data_image0
_cell_length_a       50.5222
_cell_length_b       50.5222
_cell_length_c       50.5222
_cell_angle_alpha    90
_cell_angle_beta     90
_cell_angle_gamma    90

_symmetry_space_group_name_H-M    "P 1"
_symmetry_int_tables_number       1

loop_
  _symmetry_equiv_pos_as_xyz
  'x, y, z'

loop_
  _atom_site_label
  _atom_site_occupancy
  _atom_site_fract_x
  _atom_site_fract_y
  _atom_site_fract_z
  _atom_site_thermal_displace_type
  _atom_site_B_iso_or_equiv
  _atom_site_type_symbol
  O1       1.0000 0.89009  0.09935  0.03381  Biso   1.000  O
  O2       1.0000 0.92443  0.12115  0.02153  Biso   1.000  O
  O3       1.0000 0.01114  0.06220  0.09320  Biso   1.000  O
  O4       1.0000 0.83726  0.10752  0.01280  Biso   1.000  O
  O5       1.0000 0.84249  0.12787  0.97565  Biso   1.000  O
  O6       1.0000 0.71415  0.07872  0.00477  Biso   1.000  O
  O7       1.0000 0.63836  0.07032  0.03921  Biso   1.000  O
  C1       1.0000 0.91370  0.10400  0.03620  Biso   1.000  C
  C2       1.0000 0.92960  0.08970  0.05610  Biso   1.000  C
  C3       1.0000 0.95680  0.09180  0.05780  Biso   1.000  C
  C4       1.0000 0.82804  0.11552  0.99150  Biso   1.000  C
  C5       1.0000 0.79981  0.11049  0.98401  Biso   1.000  C
  C6       1.0000 0.78214  0.09907  0.00219  Biso   1.000  C
  O8       1.0000 0.89009  0.59935  0.53381  Biso   1.000  O
  O9       1.0000 0.92443  0.62115  0.52153  Biso   1.000  O
  O10      1.0000 0.01114  0.56220  0.59320  Biso   1.000  O
  O11      1.0000 0.83726  0.60752  0.51280  Biso   1.000  O
  O12      1.0000 0.84249  0.62787  0.47565  Biso   1.000  O
  O13      1.0000 0.71415  0.57872  0.50477  Biso   1.000  O
  O14      1.0000 0.63836  0.57032  0.53921  Biso   1.000  O
  C7       1.0000 0.91370  0.60400  0.53620  Biso   1.000  C
  C8       1.0000 0.92960  0.58970  0.55610  Biso   1.000  C
  C9       1.0000 0.95680  0.59180  0.55780  Biso   1.000  C
  C10      1.0000 0.82804  0.61552  0.49150  Biso   1.000  C
  C11      1.0000 0.79981  0.61049  0.48401  Biso   1.000  C
  C12      1.0000 0.78214  0.59907  0.50219  Biso   1.000  C
  O15      1.0000 0.39009  0.09935  0.53381  Biso   1.000  O
  O16      1.0000 0.42443  0.12115  0.52153  Biso   1.000  O
  O17      1.0000 0.51114  0.06220  0.59320  Biso   1.000  O
  O18      1.0000 0.33726  0.10752  0.51280  Biso   1.000  O
  O19      1.0000 0.34249  0.12787  0.47565  Biso   1.000  O
  O20      1.0000 0.21415  0.07872  0.50477  Biso   1.000  O
  O21      1.0000 0.13836  0.07032  0.53921  Biso   1.000  O
  C13      1.0000 0.41370  0.10400  0.53620  Biso   1.000  C
  C14      1.0000 0.42960  0.08970  0.55610  Biso   1.000  C
  C15      1.0000 0.45680  0.09180  0.55780  Biso   1.000  C
  C16      1.0000 0.32804  0.11552  0.49150  Biso   1.000  C
  C17      1.0000 0.29981  0.11049  0.48401  Biso   1.000  C
  C18      1.0000 0.28214  0.09907  0.50219  Biso   1.000  C
  O22      1.0000 0.39009  0.59935  0.03381  Biso   1.000  O
  O23      1.0000 0.42443  0.62115  0.02153  Biso   1.000  O
  O24      1.0000 0.51114  0.56220  0.09320  Biso   1.000  O
  O25      1.0000 0.33726  0.60752  0.01280  Biso   1.000  O
  O26      1.0000 0.34249  0.62787  0.97565  Biso   1.000  O
  O27      1.0000 0.21415  0.57872  0.00477  Biso   1.000  O
  O28      1.0000 0.13836  0.57032  0.03921  Biso   1.000  O
  C19      1.0000 0.41370  0.60400  0.03620  Biso   1.000  C
  C20      1.0000 0.42960  0.58970  0.05610  Biso   1.000  C
  C21      1.0000 0.45680  0.59180  0.05780  Biso   1.000  C
  C22      1.0000 0.32804  0.61552  0.99150  Biso   1.000  C
  C23      1.0000 0.29981  0.61049  0.98401  Biso   1.000  C
  C24      1.0000 0.28214  0.59907  0.00219  Biso   1.000  C
  O29      1.0000 0.85991  0.15065  0.53381  Biso   1.000  O
  O30      1.0000 0.82557  0.12885  0.52153  Biso   1.000  O
  O31      1.0000 0.73886  0.18780  0.59320  Biso   1.000  O
  O32      1.0000 0.91274  0.14248  0.51280  Biso   1.000  O
  O33      1.0000 0.90751  0.12213  0.47565  Biso   1.000  O
  O34      1.0000 0.03585  0.17128  0.50477  Biso   1.000  O
  O35      1.0000 0.11164  0.17968  0.53921  Biso   1.000  O
  C25      1.0000 0.83630  0.14600  0.53620  Biso   1.000  C
  C26      1.0000 0.82040  0.16030  0.55610  Biso   1.000  C
  C27      1.0000 0.79320  0.15820  0.55780  Biso   1.000  C
  C28      1.0000 0.92196  0.13448  0.49150  Biso   1.000  C
  C29      1.0000 0.95019  0.13951  0.48401  Biso   1.000  C
  C30      1.0000 0.96786  0.15093  0.50219  Biso   1.000  C
  O36      1.0000 0.85991  0.65065  0.03381  Biso   1.000  O
  O37      1.0000 0.82557  0.62885  0.02153  Biso   1.000  O
  O38      1.0000 0.73886  0.68780  0.09320  Biso   1.000  O
  O39      1.0000 0.91274  0.64248  0.01280  Biso   1.000  O
  O40      1.0000 0.90751  0.62213  0.97565  Biso   1.000  O
  O41      1.0000 0.03585  0.67128  0.00477  Biso   1.000  O
  O42      1.0000 0.11164  0.67968  0.03921  Biso   1.000  O
  C31      1.0000 0.83630  0.64600  0.03620  Biso   1.000  C
  C32      1.0000 0.82040  0.66030  0.05610  Biso   1.000  C
  C33      1.0000 0.79320  0.65820  0.05780  Biso   1.000  C
  C34      1.0000 0.92196  0.63448  0.99150  Biso   1.000  C
  C35      1.0000 0.95019  0.63951  0.98401  Biso   1.000  C
  C36      1.0000 0.96786  0.65093  0.00219  Biso   1.000  C
  O43      1.0000 0.35991  0.15065  0.03381  Biso   1.000  O
  O44      1.0000 0.32557  0.12885  0.02153  Biso   1.000  O
  O45      1.0000 0.23886  0.18780  0.09320  Biso   1.000  O
  O46      1.0000 0.41274  0.14248  0.01280  Biso   1.000  O
  O47      1.0000 0.40751  0.12213  0.97565  Biso   1.000  O
  O48      1.0000 0.53585  0.17128  0.00477  Biso   1.000  O
  O49      1.0000 0.61164  0.17968  0.03921  Biso   1.000  O
  C37      1.0000 0.33630  0.14600  0.03620  Biso   1.000  C
  C38      1.0000 0.32040  0.16030  0.05610  Biso   1.000  C
  C39      1.0000 0.29320  0.15820  0.05780  Biso   1.000  C
  C40      1.0000 0.42196  0.13448  0.99150  Biso   1.000  C
  C41      1.0000 0.45019  0.13951  0.98401  Biso   1.000  C
  C42      1.0000 0.46786  0.15093  0.00219  Biso   1.000  C
  O50      1.0000 0.35991  0.65065  0.53381  Biso   1.000  O
  O51      1.0000 0.32557  0.62885  0.52153  Biso   1.000  O
  O52      1.0000 0.23886  0.68780  0.59320  Biso   1.000  O
  O53      1.0000 0.41274  0.64248  0.51280  Biso   1.000  O
  O54      1.0000 0.40751  0.62213  0.47565  Biso   1.000  O
  O55      1.0000 0.53585  0.67128  0.50477  Biso   1.000  O
  O56      1.0000 0.61164  0.67968  0.53921  Biso   1.000  O
  C43      1.0000 0.33630  0.64600  0.53620  Biso   1.000  C
  C44      1.0000 0.32040  0.66030  0.55610  Biso   1.000  C
  C45      1.0000 0.29320  0.65820  0.55780  Biso   1.000  C
  C46      1.0000 0.42196  0.63448  0.49150  Biso   1.000  C
  C47      1.0000 0.45019  0.63951  0.48401  Biso   1.000  C
  C48      1.0000 0.46786  0.65093  0.50219  Biso   1.000  C
  O57      1.0000 0.35991  0.59935  0.71619  Biso   1.000  O
  O58      1.0000 0.32557  0.62115  0.72847  Biso   1.000  O
  O59      1.0000 0.23886  0.56220  0.65680  Biso   1.000  O
  O60      1.0000 0.41274  0.60752  0.73720  Biso   1.000  O
  O61      1.0000 0.40751  0.62787  0.77435  Biso   1.000  O
  O62      1.0000 0.53585  0.57872  0.74523  Biso   1.000  O
  O63      1.0000 0.61164  0.57032  0.71079  Biso   1.000  O
  C49      1.0000 0.33630  0.60400  0.71380  Biso   1.000  C
  C50      1.0000 0.32040  0.58970  0.69390  Biso   1.000  C
  C51      1.0000 0.29320  0.59180  0.69220  Biso   1.000  C
  C52      1.0000 0.42196  0.61552  0.75850  Biso   1.000  C
  C53      1.0000 0.45019  0.61049  0.76599  Biso   1.000  C
  C54      1.0000 0.46786  0.59907  0.74781  Biso   1.000  C
  O64      1.0000 0.35991  0.09935  0.21619  Biso   1.000  O
  O65      1.0000 0.32557  0.12115  0.22847  Biso   1.000  O
  O66      1.0000 0.23886  0.06220  0.15680  Biso   1.000  O
  O67      1.0000 0.41274  0.10752  0.23720  Biso   1.000  O
  O68      1.0000 0.40751  0.12787  0.27435  Biso   1.000  O
  O69      1.0000 0.53585  0.07872  0.24523  Biso   1.000  O
  O70      1.0000 0.61164  0.07032  0.21079  Biso   1.000  O
  C55      1.0000 0.33630  0.10400  0.21380  Biso   1.000  C
  C56      1.0000 0.32040  0.08970  0.19390  Biso   1.000  C
  C57      1.0000 0.29320  0.09180  0.19220  Biso   1.000  C
  C58      1.0000 0.42196  0.11552  0.25850  Biso   1.000  C
  C59      1.0000 0.45019  0.11049  0.26599  Biso   1.000  C
  C60      1.0000 0.46786  0.09907  0.24781  Biso   1.000  C
  O71      1.0000 0.85991  0.59935  0.21619  Biso   1.000  O
  O72      1.0000 0.82557  0.62115  0.22847  Biso   1.000  O
  O73      1.0000 0.73886  0.56220  0.15680  Biso   1.000  O
  O74      1.0000 0.91274  0.60752  0.23720  Biso   1.000  O
  O75      1.0000 0.90751  0.62787  0.27435  Biso   1.000  O
  O76      1.0000 0.03585  0.57872  0.24523  Biso   1.000  O
  O77      1.0000 0.11164  0.57032  0.21079  Biso   1.000  O
  C61      1.0000 0.83630  0.60400  0.21380  Biso   1.000  C
  C62      1.0000 0.82040  0.58970  0.19390  Biso   1.000  C
  C63      1.0000 0.79320  0.59180  0.19220  Biso   1.000  C
  C64      1.0000 0.92196  0.61552  0.25850  Biso   1.000  C
  C65      1.0000 0.95019  0.61049  0.26599  Biso   1.000  C
  C66      1.0000 0.96786  0.59907  0.24781  Biso   1.000  C
  O78      1.0000 0.85991  0.09935  0.71619  Biso   1.000  O
  O79      1.0000 0.82557  0.12115  0.72847  Biso   1.000  O
  O80      1.0000 0.73886  0.06220  0.65680  Biso   1.000  O
  O81      1.0000 0.91274  0.10752  0.73720  Biso   1.000  O
  O82      1.0000 0.90751  0.12787  0.77435  Biso   1.000  O
  O83      1.0000 0.03585  0.07872  0.74523  Biso   1.000  O
  O84      1.0000 0.11164  0.07032  0.71079  Biso   1.000  O
  C67      1.0000 0.83630  0.10400  0.71380  Biso   1.000  C
  C68      1.0000 0.82040  0.08970  0.69390  Biso   1.000  C
  C69      1.0000 0.79320  0.09180  0.69220  Biso   1.000  C
  C70      1.0000 0.92196  0.11552  0.75850  Biso   1.000  C
  C71      1.0000 0.95019  0.11049  0.76599  Biso   1.000  C
  C72      1.0000 0.96786  0.09907  0.74781  Biso   1.000  C
  O85      1.0000 0.39009  0.65065  0.21619  Biso   1.000  O
  O86      1.0000 0.42443  0.62885  0.22847  Biso   1.000  O
  O87      1.0000 0.51114  0.68780  0.15680  Biso   1.000  O
  O88      1.0000 0.33726  0.64248  0.23720  Biso   1.000  O
  O89      1.0000 0.34249  0.62213  0.27435  Biso   1.000  O
  O90      1.0000 0.21415  0.67128  0.24523  Biso   1.000  O
  O91      1.0000 0.13836  0.67968  0.21079  Biso   1.000  O
  C73      1.0000 0.41370  0.64600  0.21380  Biso   1.000  C
  C74      1.0000 0.42960  0.66030  0.19390  Biso   1.000  C
  C75      1.0000 0.45680  0.65820  0.19220  Biso   1.000  C
  C76      1.0000 0.32804  0.63448  0.25850  Biso   1.000  C
  C77      1.0000 0.29981  0.63951  0.26599  Biso   1.000  C
  C78      1.0000 0.28214  0.65093  0.24781  Biso   1.000  C
  O92      1.0000 0.39009  0.15065  0.71619  Biso   1.000  O
  O93      1.0000 0.42443  0.12885  0.72847  Biso   1.000  O
  O94      1.0000 0.51114  0.18780  0.65680  Biso   1.000  O
  O95      1.0000 0.33726  0.14248  0.73720  Biso   1.000  O
  O96      1.0000 0.34249  0.12213  0.77435  Biso   1.000  O
  O97      1.0000 0.21415  0.17128  0.74523  Biso   1.000  O
  O98      1.0000 0.13836  0.17968  0.71079  Biso   1.000  O
  C79      1.0000 0.41370  0.14600  0.71380  Biso   1.000  C
  C80      1.0000 0.42960  0.16030  0.69390  Biso   1.000  C
  C81      1.0000 0.45680  0.15820  0.69220  Biso   1.000  C
  C82      1.0000 0.32804  0.13448  0.75850  Biso   1.000  C
  C83      1.0000 0.29981  0.13951  0.76599  Biso   1.000  C
  C84      1.0000 0.28214  0.15093  0.74781  Biso   1.000  C
  O99      1.0000 0.89009  0.65065  0.71619  Biso   1.000  O
  O100     1.0000 0.92443  0.62885  0.72847  Biso   1.000  O
  O101     1.0000 0.01114  0.68780  0.65680  Biso   1.000  O
  O102     1.0000 0.83726  0.64248  0.73720  Biso   1.000  O
  O103     1.0000 0.84249  0.62213  0.77435  Biso   1.000  O
  O104     1.0000 0.71415  0.67128  0.74523  Biso   1.000  O
  O105     1.0000 0.63836  0.67968  0.71079  Biso   1.000  O
  C85      1.0000 0.91370  0.64600  0.71380  Biso   1.000  C
  C86      1.0000 0.92960  0.66030  0.69390  Biso   1.000  C
  C87      1.0000 0.95680  0.65820  0.69220  Biso   1.000  C
  C88      1.0000 0.82804  0.63448  0.75850  Biso   1.000  C
  C89      1.0000 0.79981  0.63951  0.76599  Biso   1.000  C
  C90      1.0000 0.78214  0.65093  0.74781  Biso   1.000  C
  O106     1.0000 0.89009  0.15065  0.21619  Biso   1.000  O
  O107     1.0000 0.92443  0.12885  0.22847  Biso   1.000  O
  O108     1.0000 0.01114  0.18780  0.15680  Biso   1.000  O
  O109     1.0000 0.83726  0.14248  0.23720  Biso   1.000  O
  O110     1.0000 0.84249  0.12213  0.27435  Biso   1.000  O
  O111     1.0000 0.71415  0.17128  0.24523  Biso   1.000  O
  O112     1.0000 0.63836  0.17968  0.21079  Biso   1.000  O
  C91      1.0000 0.91370  0.14600  0.21380  Biso   1.000  C
  C92      1.0000 0.92960  0.16030  0.19390  Biso   1.000  C
  C93      1.0000 0.95680  0.15820  0.19220  Biso   1.000  C
  C94      1.0000 0.82804  0.13448  0.25850  Biso   1.000  C
  C95      1.0000 0.79981  0.13951  0.26599  Biso   1.000  C
  C96      1.0000 0.78214  0.15093  0.24781  Biso   1.000  C
  O113     1.0000 0.03381  0.89009  0.09935  Biso   1.000  O
  O114     1.0000 0.02153  0.92443  0.12115  Biso   1.000  O
  O115     1.0000 0.09320  0.01114  0.06220  Biso   1.000  O
  O116     1.0000 0.01280  0.83726  0.10752  Biso   1.000  O
  O117     1.0000 0.97565  0.84249  0.12787  Biso   1.000  O
  O118     1.0000 0.00477  0.71415  0.07872  Biso   1.000  O
  O119     1.0000 0.03921  0.63836  0.07032  Biso   1.000  O
  C97      1.0000 0.03620  0.91370  0.10400  Biso   1.000  C
  C98      1.0000 0.05610  0.92960  0.08970  Biso   1.000  C
  C99      1.0000 0.05780  0.95680  0.09180  Biso   1.000  C
  C100     1.0000 0.99150  0.82804  0.11552  Biso   1.000  C
  C101     1.0000 0.98401  0.79981  0.11049  Biso   1.000  C
  C102     1.0000 0.00219  0.78214  0.09907  Biso   1.000  C
  O120     1.0000 0.03381  0.39009  0.59935  Biso   1.000  O
  O121     1.0000 0.02153  0.42443  0.62115  Biso   1.000  O
  O122     1.0000 0.09320  0.51114  0.56220  Biso   1.000  O
  O123     1.0000 0.01280  0.33726  0.60752  Biso   1.000  O
  O124     1.0000 0.97565  0.34249  0.62787  Biso   1.000  O
  O125     1.0000 0.00477  0.21415  0.57872  Biso   1.000  O
  O126     1.0000 0.03921  0.13836  0.57032  Biso   1.000  O
  C103     1.0000 0.03620  0.41370  0.60400  Biso   1.000  C
  C104     1.0000 0.05610  0.42960  0.58970  Biso   1.000  C
  C105     1.0000 0.05780  0.45680  0.59180  Biso   1.000  C
  C106     1.0000 0.99150  0.32804  0.61552  Biso   1.000  C
  C107     1.0000 0.98401  0.29981  0.61049  Biso   1.000  C
  C108     1.0000 0.00219  0.28214  0.59907  Biso   1.000  C
  O127     1.0000 0.53381  0.89009  0.59935  Biso   1.000  O
  O128     1.0000 0.52153  0.92443  0.62115  Biso   1.000  O
  O129     1.0000 0.59320  0.01114  0.56220  Biso   1.000  O
  O130     1.0000 0.51280  0.83726  0.60752  Biso   1.000  O
  O131     1.0000 0.47565  0.84249  0.62787  Biso   1.000  O
  O132     1.0000 0.50477  0.71415  0.57872  Biso   1.000  O
  O133     1.0000 0.53921  0.63836  0.57032  Biso   1.000  O
  C109     1.0000 0.53620  0.91370  0.60400  Biso   1.000  C
  C110     1.0000 0.55610  0.92960  0.58970  Biso   1.000  C
  C111     1.0000 0.55780  0.95680  0.59180  Biso   1.000  C
  C112     1.0000 0.49150  0.82804  0.61552  Biso   1.000  C
  C113     1.0000 0.48401  0.79981  0.61049  Biso   1.000  C
  C114     1.0000 0.50219  0.78214  0.59907  Biso   1.000  C
  O134     1.0000 0.53381  0.39009  0.09935  Biso   1.000  O
  O135     1.0000 0.52153  0.42443  0.12115  Biso   1.000  O
  O136     1.0000 0.59320  0.51114  0.06220  Biso   1.000  O
  O137     1.0000 0.51280  0.33726  0.10752  Biso   1.000  O
  O138     1.0000 0.47565  0.34249  0.12787  Biso   1.000  O
  O139     1.0000 0.50477  0.21415  0.07872  Biso   1.000  O
  O140     1.0000 0.53921  0.13836  0.07032  Biso   1.000  O
  C115     1.0000 0.53620  0.41370  0.10400  Biso   1.000  C
  C116     1.0000 0.55610  0.42960  0.08970  Biso   1.000  C
  C117     1.0000 0.55780  0.45680  0.09180  Biso   1.000  C
  C118     1.0000 0.49150  0.32804  0.11552  Biso   1.000  C
  C119     1.0000 0.48401  0.29981  0.11049  Biso   1.000  C
  C120     1.0000 0.50219  0.28214  0.09907  Biso   1.000  C
  O141     1.0000 0.53381  0.85991  0.15065  Biso   1.000  O
  O142     1.0000 0.52153  0.82557  0.12885  Biso   1.000  O
  O143     1.0000 0.59320  0.73886  0.18780  Biso   1.000  O
  O144     1.0000 0.51280  0.91274  0.14248  Biso   1.000  O
  O145     1.0000 0.47565  0.90751  0.12213  Biso   1.000  O
  O146     1.0000 0.50477  0.03585  0.17128  Biso   1.000  O
  O147     1.0000 0.53921  0.11164  0.17968  Biso   1.000  O
  C121     1.0000 0.53620  0.83630  0.14600  Biso   1.000  C
  C122     1.0000 0.55610  0.82040  0.16030  Biso   1.000  C
  C123     1.0000 0.55780  0.79320  0.15820  Biso   1.000  C
  C124     1.0000 0.49150  0.92196  0.13448  Biso   1.000  C
  C125     1.0000 0.48401  0.95019  0.13951  Biso   1.000  C
  C126     1.0000 0.50219  0.96786  0.15093  Biso   1.000  C
  O148     1.0000 0.53381  0.35991  0.65065  Biso   1.000  O
  O149     1.0000 0.52153  0.32557  0.62885  Biso   1.000  O
  O150     1.0000 0.59320  0.23886  0.68780  Biso   1.000  O
  O151     1.0000 0.51280  0.41274  0.64248  Biso   1.000  O
  O152     1.0000 0.47565  0.40751  0.62213  Biso   1.000  O
  O153     1.0000 0.50477  0.53585  0.67128  Biso   1.000  O
  O154     1.0000 0.53921  0.61164  0.67968  Biso   1.000  O
  C127     1.0000 0.53620  0.33630  0.64600  Biso   1.000  C
  C128     1.0000 0.55610  0.32040  0.66030  Biso   1.000  C
  C129     1.0000 0.55780  0.29320  0.65820  Biso   1.000  C
  C130     1.0000 0.49150  0.42196  0.63448  Biso   1.000  C
  C131     1.0000 0.48401  0.45019  0.63951  Biso   1.000  C
  C132     1.0000 0.50219  0.46786  0.65093  Biso   1.000  C
  O155     1.0000 0.03381  0.85991  0.65065  Biso   1.000  O
  O156     1.0000 0.02153  0.82557  0.62885  Biso   1.000  O
  O157     1.0000 0.09320  0.73886  0.68780  Biso   1.000  O
  O158     1.0000 0.01280  0.91274  0.64248  Biso   1.000  O
  O159     1.0000 0.97565  0.90751  0.62213  Biso   1.000  O
  O160     1.0000 0.00477  0.03585  0.67128  Biso   1.000  O
  O161     1.0000 0.03921  0.11164  0.67968  Biso   1.000  O
  C133     1.0000 0.03620  0.83630  0.64600  Biso   1.000  C
  C134     1.0000 0.05610  0.82040  0.66030  Biso   1.000  C
  C135     1.0000 0.05780  0.79320  0.65820  Biso   1.000  C
  C136     1.0000 0.99150  0.92196  0.63448  Biso   1.000  C
  C137     1.0000 0.98401  0.95019  0.63951  Biso   1.000  C
  C138     1.0000 0.00219  0.96786  0.65093  Biso   1.000  C
  O162     1.0000 0.03381  0.35991  0.15065  Biso   1.000  O
  O163     1.0000 0.02153  0.32557  0.12885  Biso   1.000  O
  O164     1.0000 0.09320  0.23886  0.18780  Biso   1.000  O
  O165     1.0000 0.01280  0.41274  0.14248  Biso   1.000  O
  O166     1.0000 0.97565  0.40751  0.12213  Biso   1.000  O
  O167     1.0000 0.00477  0.53585  0.17128  Biso   1.000  O
  O168     1.0000 0.03921  0.61164  0.17968  Biso   1.000  O
  C139     1.0000 0.03620  0.33630  0.14600  Biso   1.000  C
  C140     1.0000 0.05610  0.32040  0.16030  Biso   1.000  C
  C141     1.0000 0.05780  0.29320  0.15820  Biso   1.000  C
  C142     1.0000 0.99150  0.42196  0.13448  Biso   1.000  C
  C143     1.0000 0.98401  0.45019  0.13951  Biso   1.000  C
  C144     1.0000 0.00219  0.46786  0.15093  Biso   1.000  C
  O169     1.0000 0.71619  0.35991  0.59935  Biso   1.000  O
  O170     1.0000 0.72847  0.32557  0.62115  Biso   1.000  O
  O171     1.0000 0.65680  0.23886  0.56220  Biso   1.000  O
  O172     1.0000 0.73720  0.41274  0.60752  Biso   1.000  O
  O173     1.0000 0.77435  0.40751  0.62787  Biso   1.000  O
  O174     1.0000 0.74523  0.53585  0.57872  Biso   1.000  O
  O175     1.0000 0.71079  0.61164  0.57032  Biso   1.000  O
  C145     1.0000 0.71380  0.33630  0.60400  Biso   1.000  C
  C146     1.0000 0.69390  0.32040  0.58970  Biso   1.000  C
  C147     1.0000 0.69220  0.29320  0.59180  Biso   1.000  C
  C148     1.0000 0.75850  0.42196  0.61552  Biso   1.000  C
  C149     1.0000 0.76599  0.45019  0.61049  Biso   1.000  C
  C150     1.0000 0.74781  0.46786  0.59907  Biso   1.000  C
  O176     1.0000 0.71619  0.85991  0.09935  Biso   1.000  O
  O177     1.0000 0.72847  0.82557  0.12115  Biso   1.000  O
  O178     1.0000 0.65680  0.73886  0.06220  Biso   1.000  O
  O179     1.0000 0.73720  0.91274  0.10752  Biso   1.000  O
  O180     1.0000 0.77435  0.90751  0.12787  Biso   1.000  O
  O181     1.0000 0.74523  0.03585  0.07872  Biso   1.000  O
  O182     1.0000 0.71079  0.11164  0.07032  Biso   1.000  O
  C151     1.0000 0.71380  0.83630  0.10400  Biso   1.000  C
  C152     1.0000 0.69390  0.82040  0.08970  Biso   1.000  C
  C153     1.0000 0.69220  0.79320  0.09180  Biso   1.000  C
  C154     1.0000 0.75850  0.92196  0.11552  Biso   1.000  C
  C155     1.0000 0.76599  0.95019  0.11049  Biso   1.000  C
  C156     1.0000 0.74781  0.96786  0.09907  Biso   1.000  C
  O183     1.0000 0.21619  0.35991  0.09935  Biso   1.000  O
  O184     1.0000 0.22847  0.32557  0.12115  Biso   1.000  O
  O185     1.0000 0.15680  0.23886  0.06220  Biso   1.000  O
  O186     1.0000 0.23720  0.41274  0.10752  Biso   1.000  O
  O187     1.0000 0.27435  0.40751  0.12787  Biso   1.000  O
  O188     1.0000 0.24523  0.53585  0.07872  Biso   1.000  O
  O189     1.0000 0.21079  0.61164  0.07032  Biso   1.000  O
  C157     1.0000 0.21380  0.33630  0.10400  Biso   1.000  C
  C158     1.0000 0.19390  0.32040  0.08970  Biso   1.000  C
  C159     1.0000 0.19220  0.29320  0.09180  Biso   1.000  C
  C160     1.0000 0.25850  0.42196  0.11552  Biso   1.000  C
  C161     1.0000 0.26599  0.45019  0.11049  Biso   1.000  C
  C162     1.0000 0.24781  0.46786  0.09907  Biso   1.000  C
  O190     1.0000 0.21619  0.85991  0.59935  Biso   1.000  O
  O191     1.0000 0.22847  0.82557  0.62115  Biso   1.000  O
  O192     1.0000 0.15680  0.73886  0.56220  Biso   1.000  O
  O193     1.0000 0.23720  0.91274  0.60752  Biso   1.000  O
  O194     1.0000 0.27435  0.90751  0.62787  Biso   1.000  O
  O195     1.0000 0.24523  0.03585  0.57872  Biso   1.000  O
  O196     1.0000 0.21079  0.11164  0.57032  Biso   1.000  O
  C163     1.0000 0.21380  0.83630  0.60400  Biso   1.000  C
  C164     1.0000 0.19390  0.82040  0.58970  Biso   1.000  C
  C165     1.0000 0.19220  0.79320  0.59180  Biso   1.000  C
  C166     1.0000 0.25850  0.92196  0.61552  Biso   1.000  C
  C167     1.0000 0.26599  0.95019  0.61049  Biso   1.000  C
  C168     1.0000 0.24781  0.96786  0.59907  Biso   1.000  C
  O197     1.0000 0.21619  0.39009  0.65065  Biso   1.000  O
  O198     1.0000 0.22847  0.42443  0.62885  Biso   1.000  O
  O199     1.0000 0.15680  0.51114  0.68780  Biso   1.000  O
  O200     1.0000 0.23720  0.33726  0.64248  Biso   1.000  O
  O201     1.0000 0.27435  0.34249  0.62213  Biso   1.000  O
  O202     1.0000 0.24523  0.21415  0.67128  Biso   1.000  O
  O203     1.0000 0.21079  0.13836  0.67968  Biso   1.000  O
  C169     1.0000 0.21380  0.41370  0.64600  Biso   1.000  C
  C170     1.0000 0.19390  0.42960  0.66030  Biso   1.000  C
  C171     1.0000 0.19220  0.45680  0.65820  Biso   1.000  C
  C172     1.0000 0.25850  0.32804  0.63448  Biso   1.000  C
  C173     1.0000 0.26599  0.29981  0.63951  Biso   1.000  C
  C174     1.0000 0.24781  0.28214  0.65093  Biso   1.000  C
  O204     1.0000 0.21619  0.89009  0.15065  Biso   1.000  O
  O205     1.0000 0.22847  0.92443  0.12885  Biso   1.000  O
  O206     1.0000 0.15680  0.01114  0.18780  Biso   1.000  O
  O207     1.0000 0.23720  0.83726  0.14248  Biso   1.000  O
  O208     1.0000 0.27435  0.84249  0.12213  Biso   1.000  O
  O209     1.0000 0.24523  0.71415  0.17128  Biso   1.000  O
  O210     1.0000 0.21079  0.63836  0.17968  Biso   1.000  O
  C175     1.0000 0.21380  0.91370  0.14600  Biso   1.000  C
  C176     1.0000 0.19390  0.92960  0.16030  Biso   1.000  C
  C177     1.0000 0.19220  0.95680  0.15820  Biso   1.000  C
  C178     1.0000 0.25850  0.82804  0.13448  Biso   1.000  C
  C179     1.0000 0.26599  0.79981  0.13951  Biso   1.000  C
  C180     1.0000 0.24781  0.78214  0.15093  Biso   1.000  C
  O211     1.0000 0.71619  0.39009  0.15065  Biso   1.000  O
  O212     1.0000 0.72847  0.42443  0.12885  Biso   1.000  O
  O213     1.0000 0.65680  0.51114  0.18780  Biso   1.000  O
  O214     1.0000 0.73720  0.33726  0.14248  Biso   1.000  O
  O215     1.0000 0.77435  0.34249  0.12213  Biso   1.000  O
  O216     1.0000 0.74523  0.21415  0.17128  Biso   1.000  O
  O217     1.0000 0.71079  0.13836  0.17968  Biso   1.000  O
  C181     1.0000 0.71380  0.41370  0.14600  Biso   1.000  C
  C182     1.0000 0.69390  0.42960  0.16030  Biso   1.000  C
  C183     1.0000 0.69220  0.45680  0.15820  Biso   1.000  C
  C184     1.0000 0.75850  0.32804  0.13448  Biso   1.000  C
  C185     1.0000 0.76599  0.29981  0.13951  Biso   1.000  C
  C186     1.0000 0.74781  0.28214  0.15093  Biso   1.000  C
  O218     1.0000 0.71619  0.89009  0.65065  Biso   1.000  O
  O219     1.0000 0.72847  0.92443  0.62885  Biso   1.000  O
  O220     1.0000 0.65680  0.01114  0.68780  Biso   1.000  O
  O221     1.0000 0.73720  0.83726  0.64248  Biso   1.000  O
  O222     1.0000 0.77435  0.84249  0.62213  Biso   1.000  O
  O223     1.0000 0.74523  0.71415  0.67128  Biso   1.000  O
  O224     1.0000 0.71079  0.63836  0.67968  Biso   1.000  O
  C187     1.0000 0.71380  0.91370  0.64600  Biso   1.000  C
  C188     1.0000 0.69390  0.92960  0.66030  Biso   1.000  C
  C189     1.0000 0.69220  0.95680  0.65820  Biso   1.000  C
  C190     1.0000 0.75850  0.82804  0.63448  Biso   1.000  C
  C191     1.0000 0.76599  0.79981  0.63951  Biso   1.000  C
  C192     1.0000 0.74781  0.78214  0.65093  Biso   1.000  C
  O225     1.0000 0.09935  0.03381  0.89009  Biso   1.000  O
  O226     1.0000 0.12115  0.02153  0.92443  Biso   1.000  O
  O227     1.0000 0.06220  0.09320  0.01114  Biso   1.000  O
  O228     1.0000 0.10752  0.01280  0.83726  Biso   1.000  O
  O229     1.0000 0.12787  0.97565  0.84249  Biso   1.000  O
  O230     1.0000 0.07872  0.00477  0.71415  Biso   1.000  O
  O231     1.0000 0.07032  0.03921  0.63836  Biso   1.000  O
  C193     1.0000 0.10400  0.03620  0.91370  Biso   1.000  C
  C194     1.0000 0.08970  0.05610  0.92960  Biso   1.000  C
  C195     1.0000 0.09180  0.05780  0.95680  Biso   1.000  C
  C196     1.0000 0.11552  0.99150  0.82804  Biso   1.000  C
  C197     1.0000 0.11049  0.98401  0.79981  Biso   1.000  C
  C198     1.0000 0.09907  0.00219  0.78214  Biso   1.000  C
  O232     1.0000 0.09935  0.53381  0.39009  Biso   1.000  O
  O233     1.0000 0.12115  0.52153  0.42443  Biso   1.000  O
  O234     1.0000 0.06220  0.59320  0.51114  Biso   1.000  O
  O235     1.0000 0.10752  0.51280  0.33726  Biso   1.000  O
  O236     1.0000 0.12787  0.47565  0.34249  Biso   1.000  O
  O237     1.0000 0.07872  0.50477  0.21415  Biso   1.000  O
  O238     1.0000 0.07032  0.53921  0.13836  Biso   1.000  O
  C199     1.0000 0.10400  0.53620  0.41370  Biso   1.000  C
  C200     1.0000 0.08970  0.55610  0.42960  Biso   1.000  C
  C201     1.0000 0.09180  0.55780  0.45680  Biso   1.000  C
  C202     1.0000 0.11552  0.49150  0.32804  Biso   1.000  C
  C203     1.0000 0.11049  0.48401  0.29981  Biso   1.000  C
  C204     1.0000 0.09907  0.50219  0.28214  Biso   1.000  C
  O239     1.0000 0.59935  0.03381  0.39009  Biso   1.000  O
  O240     1.0000 0.62115  0.02153  0.42443  Biso   1.000  O
  O241     1.0000 0.56220  0.09320  0.51114  Biso   1.000  O
  O242     1.0000 0.60752  0.01280  0.33726  Biso   1.000  O
  O243     1.0000 0.62787  0.97565  0.34249  Biso   1.000  O
  O244     1.0000 0.57872  0.00477  0.21415  Biso   1.000  O
  O245     1.0000 0.57032  0.03921  0.13836  Biso   1.000  O
  C205     1.0000 0.60400  0.03620  0.41370  Biso   1.000  C
  C206     1.0000 0.58970  0.05610  0.42960  Biso   1.000  C
  C207     1.0000 0.59180  0.05780  0.45680  Biso   1.000  C
  C208     1.0000 0.61552  0.99150  0.32804  Biso   1.000  C
  C209     1.0000 0.61049  0.98401  0.29981  Biso   1.000  C
  C210     1.0000 0.59907  0.00219  0.28214  Biso   1.000  C
  O246     1.0000 0.59935  0.53381  0.89009  Biso   1.000  O
  O247     1.0000 0.62115  0.52153  0.92443  Biso   1.000  O
  O248     1.0000 0.56220  0.59320  0.01114  Biso   1.000  O
  O249     1.0000 0.60752  0.51280  0.83726  Biso   1.000  O
  O250     1.0000 0.62787  0.47565  0.84249  Biso   1.000  O
  O251     1.0000 0.57872  0.50477  0.71415  Biso   1.000  O
  O252     1.0000 0.57032  0.53921  0.63836  Biso   1.000  O
  C211     1.0000 0.60400  0.53620  0.91370  Biso   1.000  C
  C212     1.0000 0.58970  0.55610  0.92960  Biso   1.000  C
  C213     1.0000 0.59180  0.55780  0.95680  Biso   1.000  C
  C214     1.0000 0.61552  0.49150  0.82804  Biso   1.000  C
  C215     1.0000 0.61049  0.48401  0.79981  Biso   1.000  C
  C216     1.0000 0.59907  0.50219  0.78214  Biso   1.000  C
  O253     1.0000 0.15065  0.53381  0.85991  Biso   1.000  O
  O254     1.0000 0.12885  0.52153  0.82557  Biso   1.000  O
  O255     1.0000 0.18780  0.59320  0.73886  Biso   1.000  O
  O256     1.0000 0.14248  0.51280  0.91274  Biso   1.000  O
  O257     1.0000 0.12213  0.47565  0.90751  Biso   1.000  O
  O258     1.0000 0.17128  0.50477  0.03585  Biso   1.000  O
  O259     1.0000 0.17968  0.53921  0.11164  Biso   1.000  O
  C217     1.0000 0.14600  0.53620  0.83630  Biso   1.000  C
  C218     1.0000 0.16030  0.55610  0.82040  Biso   1.000  C
  C219     1.0000 0.15820  0.55780  0.79320  Biso   1.000  C
  C220     1.0000 0.13448  0.49150  0.92196  Biso   1.000  C
  C221     1.0000 0.13951  0.48401  0.95019  Biso   1.000  C
  C222     1.0000 0.15093  0.50219  0.96786  Biso   1.000  C
  O260     1.0000 0.15065  0.03381  0.35991  Biso   1.000  O
  O261     1.0000 0.12885  0.02153  0.32557  Biso   1.000  O
  O262     1.0000 0.18780  0.09320  0.23886  Biso   1.000  O
  O263     1.0000 0.14248  0.01280  0.41274  Biso   1.000  O
  O264     1.0000 0.12213  0.97565  0.40751  Biso   1.000  O
  O265     1.0000 0.17128  0.00477  0.53585  Biso   1.000  O
  O266     1.0000 0.17968  0.03921  0.61164  Biso   1.000  O
  C223     1.0000 0.14600  0.03620  0.33630  Biso   1.000  C
  C224     1.0000 0.16030  0.05610  0.32040  Biso   1.000  C
  C225     1.0000 0.15820  0.05780  0.29320  Biso   1.000  C
  C226     1.0000 0.13448  0.99150  0.42196  Biso   1.000  C
  C227     1.0000 0.13951  0.98401  0.45019  Biso   1.000  C
  C228     1.0000 0.15093  0.00219  0.46786  Biso   1.000  C
  O267     1.0000 0.65065  0.53381  0.35991  Biso   1.000  O
  O268     1.0000 0.62885  0.52153  0.32557  Biso   1.000  O
  O269     1.0000 0.68780  0.59320  0.23886  Biso   1.000  O
  O270     1.0000 0.64248  0.51280  0.41274  Biso   1.000  O
  O271     1.0000 0.62213  0.47565  0.40751  Biso   1.000  O
  O272     1.0000 0.67128  0.50477  0.53585  Biso   1.000  O
  O273     1.0000 0.67968  0.53921  0.61164  Biso   1.000  O
  C229     1.0000 0.64600  0.53620  0.33630  Biso   1.000  C
  C230     1.0000 0.66030  0.55610  0.32040  Biso   1.000  C
  C231     1.0000 0.65820  0.55780  0.29320  Biso   1.000  C
  C232     1.0000 0.63448  0.49150  0.42196  Biso   1.000  C
  C233     1.0000 0.63951  0.48401  0.45019  Biso   1.000  C
  C234     1.0000 0.65093  0.50219  0.46786  Biso   1.000  C
  O274     1.0000 0.65065  0.03381  0.85991  Biso   1.000  O
  O275     1.0000 0.62885  0.02153  0.82557  Biso   1.000  O
  O276     1.0000 0.68780  0.09320  0.73886  Biso   1.000  O
  O277     1.0000 0.64248  0.01280  0.91274  Biso   1.000  O
  O278     1.0000 0.62213  0.97565  0.90751  Biso   1.000  O
  O279     1.0000 0.67128  0.00477  0.03585  Biso   1.000  O
  O280     1.0000 0.67968  0.03921  0.11164  Biso   1.000  O
  C235     1.0000 0.64600  0.03620  0.83630  Biso   1.000  C
  C236     1.0000 0.66030  0.05610  0.82040  Biso   1.000  C
  C237     1.0000 0.65820  0.05780  0.79320  Biso   1.000  C
  C238     1.0000 0.63448  0.99150  0.92196  Biso   1.000  C
  C239     1.0000 0.63951  0.98401  0.95019  Biso   1.000  C
  C240     1.0000 0.65093  0.00219  0.96786  Biso   1.000  C
  O281     1.0000 0.59935  0.71619  0.35991  Biso   1.000  O
  O282     1.0000 0.62115  0.72847  0.32557  Biso   1.000  O
  O283     1.0000 0.56220  0.65680  0.23886  Biso   1.000  O
  O284     1.0000 0.60752  0.73720  0.41274  Biso   1.000  O
  O285     1.0000 0.62787  0.77435  0.40751  Biso   1.000  O
  O286     1.0000 0.57872  0.74523  0.53585  Biso   1.000  O
  O287     1.0000 0.57032  0.71079  0.61164  Biso   1.000  O
  C241     1.0000 0.60400  0.71380  0.33630  Biso   1.000  C
  C242     1.0000 0.58970  0.69390  0.32040  Biso   1.000  C
  C243     1.0000 0.59180  0.69220  0.29320  Biso   1.000  C
  C244     1.0000 0.61552  0.75850  0.42196  Biso   1.000  C
  C245     1.0000 0.61049  0.76599  0.45019  Biso   1.000  C
  C246     1.0000 0.59907  0.74781  0.46786  Biso   1.000  C
  O288     1.0000 0.59935  0.21619  0.85991  Biso   1.000  O
  O289     1.0000 0.62115  0.22847  0.82557  Biso   1.000  O
  O290     1.0000 0.56220  0.15680  0.73886  Biso   1.000  O
  O291     1.0000 0.60752  0.23720  0.91274  Biso   1.000  O
  O292     1.0000 0.62787  0.27435  0.90751  Biso   1.000  O
  O293     1.0000 0.57872  0.24523  0.03585  Biso   1.000  O
  O294     1.0000 0.57032  0.21079  0.11164  Biso   1.000  O
  C247     1.0000 0.60400  0.21380  0.83630  Biso   1.000  C
  C248     1.0000 0.58970  0.19390  0.82040  Biso   1.000  C
  C249     1.0000 0.59180  0.19220  0.79320  Biso   1.000  C
  C250     1.0000 0.61552  0.25850  0.92196  Biso   1.000  C
  C251     1.0000 0.61049  0.26599  0.95019  Biso   1.000  C
  C252     1.0000 0.59907  0.24781  0.96786  Biso   1.000  C
  O295     1.0000 0.09935  0.71619  0.85991  Biso   1.000  O
  O296     1.0000 0.12115  0.72847  0.82557  Biso   1.000  O
  O297     1.0000 0.06220  0.65680  0.73886  Biso   1.000  O
  O298     1.0000 0.10752  0.73720  0.91274  Biso   1.000  O
  O299     1.0000 0.12787  0.77435  0.90751  Biso   1.000  O
  O300     1.0000 0.07872  0.74523  0.03585  Biso   1.000  O
  O301     1.0000 0.07032  0.71079  0.11164  Biso   1.000  O
  C253     1.0000 0.10400  0.71380  0.83630  Biso   1.000  C
  C254     1.0000 0.08970  0.69390  0.82040  Biso   1.000  C
  C255     1.0000 0.09180  0.69220  0.79320  Biso   1.000  C
  C256     1.0000 0.11552  0.75850  0.92196  Biso   1.000  C
  C257     1.0000 0.11049  0.76599  0.95019  Biso   1.000  C
  C258     1.0000 0.09907  0.74781  0.96786  Biso   1.000  C
  O302     1.0000 0.09935  0.21619  0.35991  Biso   1.000  O
  O303     1.0000 0.12115  0.22847  0.32557  Biso   1.000  O
  O304     1.0000 0.06220  0.15680  0.23886  Biso   1.000  O
  O305     1.0000 0.10752  0.23720  0.41274  Biso   1.000  O
  O306     1.0000 0.12787  0.27435  0.40751  Biso   1.000  O
  O307     1.0000 0.07872  0.24523  0.53585  Biso   1.000  O
  O308     1.0000 0.07032  0.21079  0.61164  Biso   1.000  O
  C259     1.0000 0.10400  0.21380  0.33630  Biso   1.000  C
  C260     1.0000 0.08970  0.19390  0.32040  Biso   1.000  C
  C261     1.0000 0.09180  0.19220  0.29320  Biso   1.000  C
  C262     1.0000 0.11552  0.25850  0.42196  Biso   1.000  C
  C263     1.0000 0.11049  0.26599  0.45019  Biso   1.000  C
  C264     1.0000 0.09907  0.24781  0.46786  Biso   1.000  C
  O309     1.0000 0.65065  0.21619  0.39009  Biso   1.000  O
  O310     1.0000 0.62885  0.22847  0.42443  Biso   1.000  O
  O311     1.0000 0.68780  0.15680  0.51114  Biso   1.000  O
  O312     1.0000 0.64248  0.23720  0.33726  Biso   1.000  O
  O313     1.0000 0.62213  0.27435  0.34249  Biso   1.000  O
  O314     1.0000 0.67128  0.24523  0.21415  Biso   1.000  O
  O315     1.0000 0.67968  0.21079  0.13836  Biso   1.000  O
  C265     1.0000 0.64600  0.21380  0.41370  Biso   1.000  C
  C266     1.0000 0.66030  0.19390  0.42960  Biso   1.000  C
  C267     1.0000 0.65820  0.19220  0.45680  Biso   1.000  C
  C268     1.0000 0.63448  0.25850  0.32804  Biso   1.000  C
  C269     1.0000 0.63951  0.26599  0.29981  Biso   1.000  C
  C270     1.0000 0.65093  0.24781  0.28214  Biso   1.000  C
  O316     1.0000 0.65065  0.71619  0.89009  Biso   1.000  O
  O317     1.0000 0.62885  0.72847  0.92443  Biso   1.000  O
  O318     1.0000 0.68780  0.65680  0.01114  Biso   1.000  O
  O319     1.0000 0.64248  0.73720  0.83726  Biso   1.000  O
  O320     1.0000 0.62213  0.77435  0.84249  Biso   1.000  O
  O321     1.0000 0.67128  0.74523  0.71415  Biso   1.000  O
  O322     1.0000 0.67968  0.71079  0.63836  Biso   1.000  O
  C271     1.0000 0.64600  0.71380  0.91370  Biso   1.000  C
  C272     1.0000 0.66030  0.69390  0.92960  Biso   1.000  C
  C273     1.0000 0.65820  0.69220  0.95680  Biso   1.000  C
  C274     1.0000 0.63448  0.75850  0.82804  Biso   1.000  C
  C275     1.0000 0.63951  0.76599  0.79981  Biso   1.000  C
  C276     1.0000 0.65093  0.74781  0.78214  Biso   1.000  C
  O323     1.0000 0.15065  0.21619  0.89009  Biso   1.000  O
  O324     1.0000 0.12885  0.22847  0.92443  Biso   1.000  O
  O325     1.0000 0.18780  0.15680  0.01114  Biso   1.000  O
  O326     1.0000 0.14248  0.23720  0.83726  Biso   1.000  O
  O327     1.0000 0.12213  0.27435  0.84249  Biso   1.000  O
  O328     1.0000 0.17128  0.24523  0.71415  Biso   1.000  O
  O329     1.0000 0.17968  0.21079  0.63836  Biso   1.000  O
  C277     1.0000 0.14600  0.21380  0.91370  Biso   1.000  C
  C278     1.0000 0.16030  0.19390  0.92960  Biso   1.000  C
  C279     1.0000 0.15820  0.19220  0.95680  Biso   1.000  C
  C280     1.0000 0.13448  0.25850  0.82804  Biso   1.000  C
  C281     1.0000 0.13951  0.26599  0.79981  Biso   1.000  C
  C282     1.0000 0.15093  0.24781  0.78214  Biso   1.000  C
  O330     1.0000 0.15065  0.71619  0.39009  Biso   1.000  O
  O331     1.0000 0.12885  0.72847  0.42443  Biso   1.000  O
  O332     1.0000 0.18780  0.65680  0.51114  Biso   1.000  O
  O333     1.0000 0.14248  0.73720  0.33726  Biso   1.000  O
  O334     1.0000 0.12213  0.77435  0.34249  Biso   1.000  O
  O335     1.0000 0.17128  0.74523  0.21415  Biso   1.000  O
  O336     1.0000 0.17968  0.71079  0.13836  Biso   1.000  O
  C283     1.0000 0.14600  0.71380  0.41370  Biso   1.000  C
  C284     1.0000 0.16030  0.69390  0.42960  Biso   1.000  C
  C285     1.0000 0.15820  0.69220  0.45680  Biso   1.000  C
  C286     1.0000 0.13448  0.75850  0.32804  Biso   1.000  C
  C287     1.0000 0.13951  0.76599  0.29981  Biso   1.000  C
  C288     1.0000 0.15093  0.74781  0.28214  Biso   1.000  C
  O337     1.0000 0.84935  0.14009  0.46619  Biso   1.000  O
  O338     1.0000 0.87115  0.17443  0.47847  Biso   1.000  O
  O339     1.0000 0.81220  0.26114  0.40680  Biso   1.000  O
  O340     1.0000 0.85752  0.08726  0.48720  Biso   1.000  O
  O341     1.0000 0.87787  0.09249  0.52435  Biso   1.000  O
  O342     1.0000 0.82872  0.96415  0.49523  Biso   1.000  O
  O343     1.0000 0.82032  0.88836  0.46079  Biso   1.000  O
  C289     1.0000 0.85400  0.16370  0.46380  Biso   1.000  C
  C290     1.0000 0.83970  0.17960  0.44390  Biso   1.000  C
  C291     1.0000 0.84180  0.20680  0.44220  Biso   1.000  C
  C292     1.0000 0.86552  0.07804  0.50850  Biso   1.000  C
  C293     1.0000 0.86049  0.04981  0.51599  Biso   1.000  C
  C294     1.0000 0.84907  0.03214  0.49781  Biso   1.000  C
  O344     1.0000 0.84935  0.64009  0.96619  Biso   1.000  O
  O345     1.0000 0.87115  0.67443  0.97847  Biso   1.000  O
  O346     1.0000 0.81220  0.76114  0.90680  Biso   1.000  O
  O347     1.0000 0.85752  0.58726  0.98720  Biso   1.000  O
  O348     1.0000 0.87787  0.59249  0.02435  Biso   1.000  O
  O349     1.0000 0.82872  0.46415  0.99523  Biso   1.000  O
  O350     1.0000 0.82032  0.38836  0.96079  Biso   1.000  O
  C295     1.0000 0.85400  0.66370  0.96380  Biso   1.000  C
  C296     1.0000 0.83970  0.67960  0.94390  Biso   1.000  C
  C297     1.0000 0.84180  0.70680  0.94220  Biso   1.000  C
  C298     1.0000 0.86552  0.57804  0.00850  Biso   1.000  C
  C299     1.0000 0.86049  0.54981  0.01599  Biso   1.000  C
  C300     1.0000 0.84907  0.53214  0.99781  Biso   1.000  C
  O351     1.0000 0.34935  0.14009  0.96619  Biso   1.000  O
  O352     1.0000 0.37115  0.17443  0.97847  Biso   1.000  O
  O353     1.0000 0.31220  0.26114  0.90680  Biso   1.000  O
  O354     1.0000 0.35752  0.08726  0.98720  Biso   1.000  O
  O355     1.0000 0.37787  0.09249  0.02435  Biso   1.000  O
  O356     1.0000 0.32872  0.96415  0.99523  Biso   1.000  O
  O357     1.0000 0.32032  0.88836  0.96079  Biso   1.000  O
  C301     1.0000 0.35400  0.16370  0.96380  Biso   1.000  C
  C302     1.0000 0.33970  0.17960  0.94390  Biso   1.000  C
  C303     1.0000 0.34180  0.20680  0.94220  Biso   1.000  C
  C304     1.0000 0.36552  0.07804  0.00850  Biso   1.000  C
  C305     1.0000 0.36049  0.04981  0.01599  Biso   1.000  C
  C306     1.0000 0.34907  0.03214  0.99781  Biso   1.000  C
  O358     1.0000 0.34935  0.64009  0.46619  Biso   1.000  O
  O359     1.0000 0.37115  0.67443  0.47847  Biso   1.000  O
  O360     1.0000 0.31220  0.76114  0.40680  Biso   1.000  O
  O361     1.0000 0.35752  0.58726  0.48720  Biso   1.000  O
  O362     1.0000 0.37787  0.59249  0.52435  Biso   1.000  O
  O363     1.0000 0.32872  0.46415  0.49523  Biso   1.000  O
  O364     1.0000 0.32032  0.38836  0.46079  Biso   1.000  O
  C307     1.0000 0.35400  0.66370  0.46380  Biso   1.000  C
  C308     1.0000 0.33970  0.67960  0.44390  Biso   1.000  C
  C309     1.0000 0.34180  0.70680  0.44220  Biso   1.000  C
  C310     1.0000 0.36552  0.57804  0.50850  Biso   1.000  C
  C311     1.0000 0.36049  0.54981  0.51599  Biso   1.000  C
  C312     1.0000 0.34907  0.53214  0.49781  Biso   1.000  C
  O365     1.0000 0.90065  0.10991  0.96619  Biso   1.000  O
  O366     1.0000 0.87885  0.07557  0.97847  Biso   1.000  O
  O367     1.0000 0.93780  0.98886  0.90680  Biso   1.000  O
  O368     1.0000 0.89248  0.16274  0.98720  Biso   1.000  O
  O369     1.0000 0.87213  0.15751  0.02435  Biso   1.000  O
  O370     1.0000 0.92128  0.28585  0.99523  Biso   1.000  O
  O371     1.0000 0.92968  0.36164  0.96079  Biso   1.000  O
  C313     1.0000 0.89600  0.08630  0.96380  Biso   1.000  C
  C314     1.0000 0.91030  0.07040  0.94390  Biso   1.000  C
  C315     1.0000 0.90820  0.04320  0.94220  Biso   1.000  C
  C316     1.0000 0.88448  0.17196  0.00850  Biso   1.000  C
  C317     1.0000 0.88951  0.20019  0.01599  Biso   1.000  C
  C318     1.0000 0.90093  0.21786  0.99781  Biso   1.000  C
  O372     1.0000 0.90065  0.60991  0.46619  Biso   1.000  O
  O373     1.0000 0.87885  0.57557  0.47847  Biso   1.000  O
  O374     1.0000 0.93780  0.48886  0.40680  Biso   1.000  O
  O375     1.0000 0.89248  0.66274  0.48720  Biso   1.000  O
  O376     1.0000 0.87213  0.65751  0.52435  Biso   1.000  O
  O377     1.0000 0.92128  0.78585  0.49523  Biso   1.000  O
  O378     1.0000 0.92968  0.86164  0.46079  Biso   1.000  O
  C319     1.0000 0.89600  0.58630  0.46380  Biso   1.000  C
  C320     1.0000 0.91030  0.57040  0.44390  Biso   1.000  C
  C321     1.0000 0.90820  0.54320  0.44220  Biso   1.000  C
  C322     1.0000 0.88448  0.67196  0.50850  Biso   1.000  C
  C323     1.0000 0.88951  0.70019  0.51599  Biso   1.000  C
  C324     1.0000 0.90093  0.71786  0.49781  Biso   1.000  C
  O379     1.0000 0.40065  0.10991  0.46619  Biso   1.000  O
  O380     1.0000 0.37885  0.07557  0.47847  Biso   1.000  O
  O381     1.0000 0.43780  0.98886  0.40680  Biso   1.000  O
  O382     1.0000 0.39248  0.16274  0.48720  Biso   1.000  O
  O383     1.0000 0.37213  0.15751  0.52435  Biso   1.000  O
  O384     1.0000 0.42128  0.28585  0.49523  Biso   1.000  O
  O385     1.0000 0.42968  0.36164  0.46079  Biso   1.000  O
  C325     1.0000 0.39600  0.08630  0.46380  Biso   1.000  C
  C326     1.0000 0.41030  0.07040  0.44390  Biso   1.000  C
  C327     1.0000 0.40820  0.04320  0.44220  Biso   1.000  C
  C328     1.0000 0.38448  0.17196  0.50850  Biso   1.000  C
  C329     1.0000 0.38951  0.20019  0.51599  Biso   1.000  C
  C330     1.0000 0.40093  0.21786  0.49781  Biso   1.000  C
  O386     1.0000 0.40065  0.60991  0.96619  Biso   1.000  O
  O387     1.0000 0.37885  0.57557  0.97847  Biso   1.000  O
  O388     1.0000 0.43780  0.48886  0.90680  Biso   1.000  O
  O389     1.0000 0.39248  0.66274  0.98720  Biso   1.000  O
  O390     1.0000 0.37213  0.65751  0.02435  Biso   1.000  O
  O391     1.0000 0.42128  0.78585  0.99523  Biso   1.000  O
  O392     1.0000 0.42968  0.86164  0.96079  Biso   1.000  O
  C331     1.0000 0.39600  0.58630  0.96380  Biso   1.000  C
  C332     1.0000 0.41030  0.57040  0.94390  Biso   1.000  C
  C333     1.0000 0.40820  0.54320  0.94220  Biso   1.000  C
  C334     1.0000 0.38448  0.67196  0.00850  Biso   1.000  C
  C335     1.0000 0.38951  0.70019  0.01599  Biso   1.000  C
  C336     1.0000 0.40093  0.71786  0.99781  Biso   1.000  C
  O393     1.0000 0.34935  0.60991  0.78381  Biso   1.000  O
  O394     1.0000 0.37115  0.57557  0.77153  Biso   1.000  O
  O395     1.0000 0.31220  0.48886  0.84320  Biso   1.000  O
  O396     1.0000 0.35752  0.66274  0.76280  Biso   1.000  O
  O397     1.0000 0.37787  0.65751  0.72565  Biso   1.000  O
  O398     1.0000 0.32872  0.78585  0.75477  Biso   1.000  O
  O399     1.0000 0.32032  0.86164  0.78921  Biso   1.000  O
  C337     1.0000 0.35400  0.58630  0.78620  Biso   1.000  C
  C338     1.0000 0.33970  0.57040  0.80610  Biso   1.000  C
  C339     1.0000 0.34180  0.54320  0.80780  Biso   1.000  C
  C340     1.0000 0.36552  0.67196  0.74150  Biso   1.000  C
  C341     1.0000 0.36049  0.70019  0.73401  Biso   1.000  C
  C342     1.0000 0.34907  0.71786  0.75219  Biso   1.000  C
  O400     1.0000 0.34935  0.10991  0.28381  Biso   1.000  O
  O401     1.0000 0.37115  0.07557  0.27153  Biso   1.000  O
  O402     1.0000 0.31220  0.98886  0.34320  Biso   1.000  O
  O403     1.0000 0.35752  0.16274  0.26280  Biso   1.000  O
  O404     1.0000 0.37787  0.15751  0.22565  Biso   1.000  O
  O405     1.0000 0.32872  0.28585  0.25477  Biso   1.000  O
  O406     1.0000 0.32032  0.36164  0.28921  Biso   1.000  O
  C343     1.0000 0.35400  0.08630  0.28620  Biso   1.000  C
  C344     1.0000 0.33970  0.07040  0.30610  Biso   1.000  C
  C345     1.0000 0.34180  0.04320  0.30780  Biso   1.000  C
  C346     1.0000 0.36552  0.17196  0.24150  Biso   1.000  C
  C347     1.0000 0.36049  0.20019  0.23401  Biso   1.000  C
  C348     1.0000 0.34907  0.21786  0.25219  Biso   1.000  C
  O407     1.0000 0.84935  0.60991  0.28381  Biso   1.000  O
  O408     1.0000 0.87115  0.57557  0.27153  Biso   1.000  O
  O409     1.0000 0.81220  0.48886  0.34320  Biso   1.000  O
  O410     1.0000 0.85752  0.66274  0.26280  Biso   1.000  O
  O411     1.0000 0.87787  0.65751  0.22565  Biso   1.000  O
  O412     1.0000 0.82872  0.78585  0.25477  Biso   1.000  O
  O413     1.0000 0.82032  0.86164  0.28921  Biso   1.000  O
  C349     1.0000 0.85400  0.58630  0.28620  Biso   1.000  C
  C350     1.0000 0.83970  0.57040  0.30610  Biso   1.000  C
  C351     1.0000 0.84180  0.54320  0.30780  Biso   1.000  C
  C352     1.0000 0.86552  0.67196  0.24150  Biso   1.000  C
  C353     1.0000 0.86049  0.70019  0.23401  Biso   1.000  C
  C354     1.0000 0.84907  0.71786  0.25219  Biso   1.000  C
  O414     1.0000 0.84935  0.10991  0.78381  Biso   1.000  O
  O415     1.0000 0.87115  0.07557  0.77153  Biso   1.000  O
  O416     1.0000 0.81220  0.98886  0.84320  Biso   1.000  O
  O417     1.0000 0.85752  0.16274  0.76280  Biso   1.000  O
  O418     1.0000 0.87787  0.15751  0.72565  Biso   1.000  O
  O419     1.0000 0.82872  0.28585  0.75477  Biso   1.000  O
  O420     1.0000 0.82032  0.36164  0.78921  Biso   1.000  O
  C355     1.0000 0.85400  0.08630  0.78620  Biso   1.000  C
  C356     1.0000 0.83970  0.07040  0.80610  Biso   1.000  C
  C357     1.0000 0.84180  0.04320  0.80780  Biso   1.000  C
  C358     1.0000 0.86552  0.17196  0.74150  Biso   1.000  C
  C359     1.0000 0.86049  0.20019  0.73401  Biso   1.000  C
  C360     1.0000 0.84907  0.21786  0.75219  Biso   1.000  C
  O421     1.0000 0.40065  0.64009  0.28381  Biso   1.000  O
  O422     1.0000 0.37885  0.67443  0.27153  Biso   1.000  O
  O423     1.0000 0.43780  0.76114  0.34320  Biso   1.000  O
  O424     1.0000 0.39248  0.58726  0.26280  Biso   1.000  O
  O425     1.0000 0.37213  0.59249  0.22565  Biso   1.000  O
  O426     1.0000 0.42128  0.46415  0.25477  Biso   1.000  O
  O427     1.0000 0.42968  0.38836  0.28921  Biso   1.000  O
  C361     1.0000 0.39600  0.66370  0.28620  Biso   1.000  C
  C362     1.0000 0.41030  0.67960  0.30610  Biso   1.000  C
  C363     1.0000 0.40820  0.70680  0.30780  Biso   1.000  C
  C364     1.0000 0.38448  0.57804  0.24150  Biso   1.000  C
  C365     1.0000 0.38951  0.54981  0.23401  Biso   1.000  C
  C366     1.0000 0.40093  0.53214  0.25219  Biso   1.000  C
  O428     1.0000 0.40065  0.14009  0.78381  Biso   1.000  O
  O429     1.0000 0.37885  0.17443  0.77153  Biso   1.000  O
  O430     1.0000 0.43780  0.26114  0.84320  Biso   1.000  O
  O431     1.0000 0.39248  0.08726  0.76280  Biso   1.000  O
  O432     1.0000 0.37213  0.09249  0.72565  Biso   1.000  O
  O433     1.0000 0.42128  0.96415  0.75477  Biso   1.000  O
  O434     1.0000 0.42968  0.88836  0.78921  Biso   1.000  O
  C367     1.0000 0.39600  0.16370  0.78620  Biso   1.000  C
  C368     1.0000 0.41030  0.17960  0.80610  Biso   1.000  C
  C369     1.0000 0.40820  0.20680  0.80780  Biso   1.000  C
  C370     1.0000 0.38448  0.07804  0.74150  Biso   1.000  C
  C371     1.0000 0.38951  0.04981  0.73401  Biso   1.000  C
  C372     1.0000 0.40093  0.03214  0.75219  Biso   1.000  C
  O435     1.0000 0.90065  0.64009  0.78381  Biso   1.000  O
  O436     1.0000 0.87885  0.67443  0.77153  Biso   1.000  O
  O437     1.0000 0.93780  0.76114  0.84320  Biso   1.000  O
  O438     1.0000 0.89248  0.58726  0.76280  Biso   1.000  O
  O439     1.0000 0.87213  0.59249  0.72565  Biso   1.000  O
  O440     1.0000 0.92128  0.46415  0.75477  Biso   1.000  O
  O441     1.0000 0.92968  0.38836  0.78921  Biso   1.000  O
  C373     1.0000 0.89600  0.66370  0.78620  Biso   1.000  C
  C374     1.0000 0.91030  0.67960  0.80610  Biso   1.000  C
  C375     1.0000 0.90820  0.70680  0.80780  Biso   1.000  C
  C376     1.0000 0.88448  0.57804  0.74150  Biso   1.000  C
  C377     1.0000 0.88951  0.54981  0.73401  Biso   1.000  C
  C378     1.0000 0.90093  0.53214  0.75219  Biso   1.000  C
  O442     1.0000 0.90065  0.14009  0.28381  Biso   1.000  O
  O443     1.0000 0.87885  0.17443  0.27153  Biso   1.000  O
  O444     1.0000 0.93780  0.26114  0.34320  Biso   1.000  O
  O445     1.0000 0.89248  0.08726  0.26280  Biso   1.000  O
  O446     1.0000 0.87213  0.09249  0.22565  Biso   1.000  O
  O447     1.0000 0.92128  0.96415  0.25477  Biso   1.000  O
  O448     1.0000 0.92968  0.88836  0.28921  Biso   1.000  O
  C379     1.0000 0.89600  0.16370  0.28620  Biso   1.000  C
  C380     1.0000 0.91030  0.17960  0.30610  Biso   1.000  C
  C381     1.0000 0.90820  0.20680  0.30780  Biso   1.000  C
  C382     1.0000 0.88448  0.07804  0.24150  Biso   1.000  C
  C383     1.0000 0.88951  0.04981  0.23401  Biso   1.000  C
  C384     1.0000 0.90093  0.03214  0.25219  Biso   1.000  C
  O449     1.0000 0.64009  0.28381  0.40065  Biso   1.000  O
  O450     1.0000 0.67443  0.27153  0.37885  Biso   1.000  O
  O451     1.0000 0.76114  0.34320  0.43780  Biso   1.000  O
  O452     1.0000 0.58726  0.26280  0.39248  Biso   1.000  O
  O453     1.0000 0.59249  0.22565  0.37213  Biso   1.000  O
  O454     1.0000 0.46415  0.25477  0.42128  Biso   1.000  O
  O455     1.0000 0.38836  0.28921  0.42968  Biso   1.000  O
  C385     1.0000 0.66370  0.28620  0.39600  Biso   1.000  C
  C386     1.0000 0.67960  0.30610  0.41030  Biso   1.000  C
  C387     1.0000 0.70680  0.30780  0.40820  Biso   1.000  C
  C388     1.0000 0.57804  0.24150  0.38448  Biso   1.000  C
  C389     1.0000 0.54981  0.23401  0.38951  Biso   1.000  C
  C390     1.0000 0.53214  0.25219  0.40093  Biso   1.000  C
  O456     1.0000 0.64009  0.78381  0.90065  Biso   1.000  O
  O457     1.0000 0.67443  0.77153  0.87885  Biso   1.000  O
  O458     1.0000 0.76114  0.84320  0.93780  Biso   1.000  O
  O459     1.0000 0.58726  0.76280  0.89248  Biso   1.000  O
  O460     1.0000 0.59249  0.72565  0.87213  Biso   1.000  O
  O461     1.0000 0.46415  0.75477  0.92128  Biso   1.000  O
  O462     1.0000 0.38836  0.78921  0.92968  Biso   1.000  O
  C391     1.0000 0.66370  0.78620  0.89600  Biso   1.000  C
  C392     1.0000 0.67960  0.80610  0.91030  Biso   1.000  C
  C393     1.0000 0.70680  0.80780  0.90820  Biso   1.000  C
  C394     1.0000 0.57804  0.74150  0.88448  Biso   1.000  C
  C395     1.0000 0.54981  0.73401  0.88951  Biso   1.000  C
  C396     1.0000 0.53214  0.75219  0.90093  Biso   1.000  C
  O463     1.0000 0.14009  0.28381  0.90065  Biso   1.000  O
  O464     1.0000 0.17443  0.27153  0.87885  Biso   1.000  O
  O465     1.0000 0.26114  0.34320  0.93780  Biso   1.000  O
  O466     1.0000 0.08726  0.26280  0.89248  Biso   1.000  O
  O467     1.0000 0.09249  0.22565  0.87213  Biso   1.000  O
  O468     1.0000 0.96415  0.25477  0.92128  Biso   1.000  O
  O469     1.0000 0.88836  0.28921  0.92968  Biso   1.000  O
  C397     1.0000 0.16370  0.28620  0.89600  Biso   1.000  C
  C398     1.0000 0.17960  0.30610  0.91030  Biso   1.000  C
  C399     1.0000 0.20680  0.30780  0.90820  Biso   1.000  C
  C400     1.0000 0.07804  0.24150  0.88448  Biso   1.000  C
  C401     1.0000 0.04981  0.23401  0.88951  Biso   1.000  C
  C402     1.0000 0.03214  0.25219  0.90093  Biso   1.000  C
  O470     1.0000 0.14009  0.78381  0.40065  Biso   1.000  O
  O471     1.0000 0.17443  0.77153  0.37885  Biso   1.000  O
  O472     1.0000 0.26114  0.84320  0.43780  Biso   1.000  O
  O473     1.0000 0.08726  0.76280  0.39248  Biso   1.000  O
  O474     1.0000 0.09249  0.72565  0.37213  Biso   1.000  O
  O475     1.0000 0.96415  0.75477  0.42128  Biso   1.000  O
  O476     1.0000 0.88836  0.78921  0.42968  Biso   1.000  O
  C403     1.0000 0.16370  0.78620  0.39600  Biso   1.000  C
  C404     1.0000 0.17960  0.80610  0.41030  Biso   1.000  C
  C405     1.0000 0.20680  0.80780  0.40820  Biso   1.000  C
  C406     1.0000 0.07804  0.74150  0.38448  Biso   1.000  C
  C407     1.0000 0.04981  0.73401  0.38951  Biso   1.000  C
  C408     1.0000 0.03214  0.75219  0.40093  Biso   1.000  C
  O477     1.0000 0.60991  0.78381  0.34935  Biso   1.000  O
  O478     1.0000 0.57557  0.77153  0.37115  Biso   1.000  O
  O479     1.0000 0.48886  0.84320  0.31220  Biso   1.000  O
  O480     1.0000 0.66274  0.76280  0.35752  Biso   1.000  O
  O481     1.0000 0.65751  0.72565  0.37787  Biso   1.000  O
  O482     1.0000 0.78585  0.75477  0.32872  Biso   1.000  O
  O483     1.0000 0.86164  0.78921  0.32032  Biso   1.000  O
  C409     1.0000 0.58630  0.78620  0.35400  Biso   1.000  C
  C410     1.0000 0.57040  0.80610  0.33970  Biso   1.000  C
  C411     1.0000 0.54320  0.80780  0.34180  Biso   1.000  C
  C412     1.0000 0.67196  0.74150  0.36552  Biso   1.000  C
  C413     1.0000 0.70019  0.73401  0.36049  Biso   1.000  C
  C414     1.0000 0.71786  0.75219  0.34907  Biso   1.000  C
  O484     1.0000 0.60991  0.28381  0.84935  Biso   1.000  O
  O485     1.0000 0.57557  0.27153  0.87115  Biso   1.000  O
  O486     1.0000 0.48886  0.34320  0.81220  Biso   1.000  O
  O487     1.0000 0.66274  0.26280  0.85752  Biso   1.000  O
  O488     1.0000 0.65751  0.22565  0.87787  Biso   1.000  O
  O489     1.0000 0.78585  0.25477  0.82872  Biso   1.000  O
  O490     1.0000 0.86164  0.28921  0.82032  Biso   1.000  O
  C415     1.0000 0.58630  0.28620  0.85400  Biso   1.000  C
  C416     1.0000 0.57040  0.30610  0.83970  Biso   1.000  C
  C417     1.0000 0.54320  0.30780  0.84180  Biso   1.000  C
  C418     1.0000 0.67196  0.24150  0.86552  Biso   1.000  C
  C419     1.0000 0.70019  0.23401  0.86049  Biso   1.000  C
  C420     1.0000 0.71786  0.25219  0.84907  Biso   1.000  C
  O491     1.0000 0.10991  0.78381  0.84935  Biso   1.000  O
  O492     1.0000 0.07557  0.77153  0.87115  Biso   1.000  O
  O493     1.0000 0.98886  0.84320  0.81220  Biso   1.000  O
  O494     1.0000 0.16274  0.76280  0.85752  Biso   1.000  O
  O495     1.0000 0.15751  0.72565  0.87787  Biso   1.000  O
  O496     1.0000 0.28585  0.75477  0.82872  Biso   1.000  O
  O497     1.0000 0.36164  0.78921  0.82032  Biso   1.000  O
  C421     1.0000 0.08630  0.78620  0.85400  Biso   1.000  C
  C422     1.0000 0.07040  0.80610  0.83970  Biso   1.000  C
  C423     1.0000 0.04320  0.80780  0.84180  Biso   1.000  C
  C424     1.0000 0.17196  0.74150  0.86552  Biso   1.000  C
  C425     1.0000 0.20019  0.73401  0.86049  Biso   1.000  C
  C426     1.0000 0.21786  0.75219  0.84907  Biso   1.000  C
  O498     1.0000 0.10991  0.28381  0.34935  Biso   1.000  O
  O499     1.0000 0.07557  0.27153  0.37115  Biso   1.000  O
  O500     1.0000 0.98886  0.34320  0.31220  Biso   1.000  O
  O501     1.0000 0.16274  0.26280  0.35752  Biso   1.000  O
  O502     1.0000 0.15751  0.22565  0.37787  Biso   1.000  O
  O503     1.0000 0.28585  0.25477  0.32872  Biso   1.000  O
  O504     1.0000 0.36164  0.28921  0.32032  Biso   1.000  O
  C427     1.0000 0.08630  0.28620  0.35400  Biso   1.000  C
  C428     1.0000 0.07040  0.30610  0.33970  Biso   1.000  C
  C429     1.0000 0.04320  0.30780  0.34180  Biso   1.000  C
  C430     1.0000 0.17196  0.24150  0.36552  Biso   1.000  C
  C431     1.0000 0.20019  0.23401  0.36049  Biso   1.000  C
  C432     1.0000 0.21786  0.25219  0.34907  Biso   1.000  C
  O505     1.0000 0.10991  0.96619  0.90065  Biso   1.000  O
  O506     1.0000 0.07557  0.97847  0.87885  Biso   1.000  O
  O507     1.0000 0.98886  0.90680  0.93780  Biso   1.000  O
  O508     1.0000 0.16274  0.98720  0.89248  Biso   1.000  O
  O509     1.0000 0.15751  0.02435  0.87213  Biso   1.000  O
  O510     1.0000 0.28585  0.99523  0.92128  Biso   1.000  O
  O511     1.0000 0.36164  0.96079  0.92968  Biso   1.000  O
  C433     1.0000 0.08630  0.96380  0.89600  Biso   1.000  C
  C434     1.0000 0.07040  0.94390  0.91030  Biso   1.000  C
  C435     1.0000 0.04320  0.94220  0.90820  Biso   1.000  C
  C436     1.0000 0.17196  0.00850  0.88448  Biso   1.000  C
  C437     1.0000 0.20019  0.01599  0.88951  Biso   1.000  C
  C438     1.0000 0.21786  0.99781  0.90093  Biso   1.000  C
  O512     1.0000 0.10991  0.46619  0.40065  Biso   1.000  O
  O513     1.0000 0.07557  0.47847  0.37885  Biso   1.000  O
  O514     1.0000 0.98886  0.40680  0.43780  Biso   1.000  O
  O515     1.0000 0.16274  0.48720  0.39248  Biso   1.000  O
  O516     1.0000 0.15751  0.52435  0.37213  Biso   1.000  O
  O517     1.0000 0.28585  0.49523  0.42128  Biso   1.000  O
  O518     1.0000 0.36164  0.46079  0.42968  Biso   1.000  O
  C439     1.0000 0.08630  0.46380  0.39600  Biso   1.000  C
  C440     1.0000 0.07040  0.44390  0.41030  Biso   1.000  C
  C441     1.0000 0.04320  0.44220  0.40820  Biso   1.000  C
  C442     1.0000 0.17196  0.50850  0.38448  Biso   1.000  C
  C443     1.0000 0.20019  0.51599  0.38951  Biso   1.000  C
  C444     1.0000 0.21786  0.49781  0.40093  Biso   1.000  C
  O519     1.0000 0.60991  0.96619  0.40065  Biso   1.000  O
  O520     1.0000 0.57557  0.97847  0.37885  Biso   1.000  O
  O521     1.0000 0.48886  0.90680  0.43780  Biso   1.000  O
  O522     1.0000 0.66274  0.98720  0.39248  Biso   1.000  O
  O523     1.0000 0.65751  0.02435  0.37213  Biso   1.000  O
  O524     1.0000 0.78585  0.99523  0.42128  Biso   1.000  O
  O525     1.0000 0.86164  0.96079  0.42968  Biso   1.000  O
  C445     1.0000 0.58630  0.96380  0.39600  Biso   1.000  C
  C446     1.0000 0.57040  0.94390  0.41030  Biso   1.000  C
  C447     1.0000 0.54320  0.94220  0.40820  Biso   1.000  C
  C448     1.0000 0.67196  0.00850  0.38448  Biso   1.000  C
  C449     1.0000 0.70019  0.01599  0.38951  Biso   1.000  C
  C450     1.0000 0.71786  0.99781  0.40093  Biso   1.000  C
  O526     1.0000 0.60991  0.46619  0.90065  Biso   1.000  O
  O527     1.0000 0.57557  0.47847  0.87885  Biso   1.000  O
  O528     1.0000 0.48886  0.40680  0.93780  Biso   1.000  O
  O529     1.0000 0.66274  0.48720  0.89248  Biso   1.000  O
  O530     1.0000 0.65751  0.52435  0.87213  Biso   1.000  O
  O531     1.0000 0.78585  0.49523  0.92128  Biso   1.000  O
  O532     1.0000 0.86164  0.46079  0.92968  Biso   1.000  O
  C451     1.0000 0.58630  0.46380  0.89600  Biso   1.000  C
  C452     1.0000 0.57040  0.44390  0.91030  Biso   1.000  C
  C453     1.0000 0.54320  0.44220  0.90820  Biso   1.000  C
  C454     1.0000 0.67196  0.50850  0.88448  Biso   1.000  C
  C455     1.0000 0.70019  0.51599  0.88951  Biso   1.000  C
  C456     1.0000 0.71786  0.49781  0.90093  Biso   1.000  C
  O533     1.0000 0.14009  0.46619  0.84935  Biso   1.000  O
  O534     1.0000 0.17443  0.47847  0.87115  Biso   1.000  O
  O535     1.0000 0.26114  0.40680  0.81220  Biso   1.000  O
  O536     1.0000 0.08726  0.48720  0.85752  Biso   1.000  O
  O537     1.0000 0.09249  0.52435  0.87787  Biso   1.000  O
  O538     1.0000 0.96415  0.49523  0.82872  Biso   1.000  O
  O539     1.0000 0.88836  0.46079  0.82032  Biso   1.000  O
  C457     1.0000 0.16370  0.46380  0.85400  Biso   1.000  C
  C458     1.0000 0.17960  0.44390  0.83970  Biso   1.000  C
  C459     1.0000 0.20680  0.44220  0.84180  Biso   1.000  C
  C460     1.0000 0.07804  0.50850  0.86552  Biso   1.000  C
  C461     1.0000 0.04981  0.51599  0.86049  Biso   1.000  C
  C462     1.0000 0.03214  0.49781  0.84907  Biso   1.000  C
  O540     1.0000 0.14009  0.96619  0.34935  Biso   1.000  O
  O541     1.0000 0.17443  0.97847  0.37115  Biso   1.000  O
  O542     1.0000 0.26114  0.90680  0.31220  Biso   1.000  O
  O543     1.0000 0.08726  0.98720  0.35752  Biso   1.000  O
  O544     1.0000 0.09249  0.02435  0.37787  Biso   1.000  O
  O545     1.0000 0.96415  0.99523  0.32872  Biso   1.000  O
  O546     1.0000 0.88836  0.96079  0.32032  Biso   1.000  O
  C463     1.0000 0.16370  0.96380  0.35400  Biso   1.000  C
  C464     1.0000 0.17960  0.94390  0.33970  Biso   1.000  C
  C465     1.0000 0.20680  0.94220  0.34180  Biso   1.000  C
  C466     1.0000 0.07804  0.00850  0.36552  Biso   1.000  C
  C467     1.0000 0.04981  0.01599  0.36049  Biso   1.000  C
  C468     1.0000 0.03214  0.99781  0.34907  Biso   1.000  C
  O547     1.0000 0.64009  0.46619  0.34935  Biso   1.000  O
  O548     1.0000 0.67443  0.47847  0.37115  Biso   1.000  O
  O549     1.0000 0.76114  0.40680  0.31220  Biso   1.000  O
  O550     1.0000 0.58726  0.48720  0.35752  Biso   1.000  O
  O551     1.0000 0.59249  0.52435  0.37787  Biso   1.000  O
  O552     1.0000 0.46415  0.49523  0.32872  Biso   1.000  O
  O553     1.0000 0.38836  0.46079  0.32032  Biso   1.000  O
  C469     1.0000 0.66370  0.46380  0.35400  Biso   1.000  C
  C470     1.0000 0.67960  0.44390  0.33970  Biso   1.000  C
  C471     1.0000 0.70680  0.44220  0.34180  Biso   1.000  C
  C472     1.0000 0.57804  0.50850  0.36552  Biso   1.000  C
  C473     1.0000 0.54981  0.51599  0.36049  Biso   1.000  C
  C474     1.0000 0.53214  0.49781  0.34907  Biso   1.000  C
  O554     1.0000 0.64009  0.96619  0.84935  Biso   1.000  O
  O555     1.0000 0.67443  0.97847  0.87115  Biso   1.000  O
  O556     1.0000 0.76114  0.90680  0.81220  Biso   1.000  O
  O557     1.0000 0.58726  0.98720  0.85752  Biso   1.000  O
  O558     1.0000 0.59249  0.02435  0.87787  Biso   1.000  O
  O559     1.0000 0.46415  0.99523  0.82872  Biso   1.000  O
  O560     1.0000 0.38836  0.96079  0.82032  Biso   1.000  O
  C475     1.0000 0.66370  0.96380  0.85400  Biso   1.000  C
  C476     1.0000 0.67960  0.94390  0.83970  Biso   1.000  C
  C477     1.0000 0.70680  0.94220  0.84180  Biso   1.000  C
  C478     1.0000 0.57804  0.00850  0.86552  Biso   1.000  C
  C479     1.0000 0.54981  0.01599  0.86049  Biso   1.000  C
  C480     1.0000 0.53214  0.99781  0.84907  Biso   1.000  C
  O561     1.0000 0.78381  0.34935  0.60991  Biso   1.000  O
  O562     1.0000 0.77153  0.37115  0.57557  Biso   1.000  O
  O563     1.0000 0.84320  0.31220  0.48886  Biso   1.000  O
  O564     1.0000 0.76280  0.35752  0.66274  Biso   1.000  O
  O565     1.0000 0.72565  0.37787  0.65751  Biso   1.000  O
  O566     1.0000 0.75477  0.32872  0.78585  Biso   1.000  O
  O567     1.0000 0.78921  0.32032  0.86164  Biso   1.000  O
  C481     1.0000 0.78620  0.35400  0.58630  Biso   1.000  C
  C482     1.0000 0.80610  0.33970  0.57040  Biso   1.000  C
  C483     1.0000 0.80780  0.34180  0.54320  Biso   1.000  C
  C484     1.0000 0.74150  0.36552  0.67196  Biso   1.000  C
  C485     1.0000 0.73401  0.36049  0.70019  Biso   1.000  C
  C486     1.0000 0.75219  0.34907  0.71786  Biso   1.000  C
  O568     1.0000 0.78381  0.84935  0.10991  Biso   1.000  O
  O569     1.0000 0.77153  0.87115  0.07557  Biso   1.000  O
  O570     1.0000 0.84320  0.81220  0.98886  Biso   1.000  O
  O571     1.0000 0.76280  0.85752  0.16274  Biso   1.000  O
  O572     1.0000 0.72565  0.87787  0.15751  Biso   1.000  O
  O573     1.0000 0.75477  0.82872  0.28585  Biso   1.000  O
  O574     1.0000 0.78921  0.82032  0.36164  Biso   1.000  O
  C487     1.0000 0.78620  0.85400  0.08630  Biso   1.000  C
  C488     1.0000 0.80610  0.83970  0.07040  Biso   1.000  C
  C489     1.0000 0.80780  0.84180  0.04320  Biso   1.000  C
  C490     1.0000 0.74150  0.86552  0.17196  Biso   1.000  C
  C491     1.0000 0.73401  0.86049  0.20019  Biso   1.000  C
  C492     1.0000 0.75219  0.84907  0.21786  Biso   1.000  C
  O575     1.0000 0.28381  0.34935  0.10991  Biso   1.000  O
  O576     1.0000 0.27153  0.37115  0.07557  Biso   1.000  O
  O577     1.0000 0.34320  0.31220  0.98886  Biso   1.000  O
  O578     1.0000 0.26280  0.35752  0.16274  Biso   1.000  O
  O579     1.0000 0.22565  0.37787  0.15751  Biso   1.000  O
  O580     1.0000 0.25477  0.32872  0.28585  Biso   1.000  O
  O581     1.0000 0.28921  0.32032  0.36164  Biso   1.000  O
  C493     1.0000 0.28620  0.35400  0.08630  Biso   1.000  C
  C494     1.0000 0.30610  0.33970  0.07040  Biso   1.000  C
  C495     1.0000 0.30780  0.34180  0.04320  Biso   1.000  C
  C496     1.0000 0.24150  0.36552  0.17196  Biso   1.000  C
  C497     1.0000 0.23401  0.36049  0.20019  Biso   1.000  C
  C498     1.0000 0.25219  0.34907  0.21786  Biso   1.000  C
  O582     1.0000 0.28381  0.84935  0.60991  Biso   1.000  O
  O583     1.0000 0.27153  0.87115  0.57557  Biso   1.000  O
  O584     1.0000 0.34320  0.81220  0.48886  Biso   1.000  O
  O585     1.0000 0.26280  0.85752  0.66274  Biso   1.000  O
  O586     1.0000 0.22565  0.87787  0.65751  Biso   1.000  O
  O587     1.0000 0.25477  0.82872  0.78585  Biso   1.000  O
  O588     1.0000 0.28921  0.82032  0.86164  Biso   1.000  O
  C499     1.0000 0.28620  0.85400  0.58630  Biso   1.000  C
  C500     1.0000 0.30610  0.83970  0.57040  Biso   1.000  C
  C501     1.0000 0.30780  0.84180  0.54320  Biso   1.000  C
  C502     1.0000 0.24150  0.86552  0.67196  Biso   1.000  C
  C503     1.0000 0.23401  0.86049  0.70019  Biso   1.000  C
  C504     1.0000 0.25219  0.84907  0.71786  Biso   1.000  C
  O589     1.0000 0.28381  0.40065  0.64009  Biso   1.000  O
  O590     1.0000 0.27153  0.37885  0.67443  Biso   1.000  O
  O591     1.0000 0.34320  0.43780  0.76114  Biso   1.000  O
  O592     1.0000 0.26280  0.39248  0.58726  Biso   1.000  O
  O593     1.0000 0.22565  0.37213  0.59249  Biso   1.000  O
  O594     1.0000 0.25477  0.42128  0.46415  Biso   1.000  O
  O595     1.0000 0.28921  0.42968  0.38836  Biso   1.000  O
  C505     1.0000 0.28620  0.39600  0.66370  Biso   1.000  C
  C506     1.0000 0.30610  0.41030  0.67960  Biso   1.000  C
  C507     1.0000 0.30780  0.40820  0.70680  Biso   1.000  C
  C508     1.0000 0.24150  0.38448  0.57804  Biso   1.000  C
  C509     1.0000 0.23401  0.38951  0.54981  Biso   1.000  C
  C510     1.0000 0.25219  0.40093  0.53214  Biso   1.000  C
  O596     1.0000 0.28381  0.90065  0.14009  Biso   1.000  O
  O597     1.0000 0.27153  0.87885  0.17443  Biso   1.000  O
  O598     1.0000 0.34320  0.93780  0.26114  Biso   1.000  O
  O599     1.0000 0.26280  0.89248  0.08726  Biso   1.000  O
  O600     1.0000 0.22565  0.87213  0.09249  Biso   1.000  O
  O601     1.0000 0.25477  0.92128  0.96415  Biso   1.000  O
  O602     1.0000 0.28921  0.92968  0.88836  Biso   1.000  O
  C511     1.0000 0.28620  0.89600  0.16370  Biso   1.000  C
  C512     1.0000 0.30610  0.91030  0.17960  Biso   1.000  C
  C513     1.0000 0.30780  0.90820  0.20680  Biso   1.000  C
  C514     1.0000 0.24150  0.88448  0.07804  Biso   1.000  C
  C515     1.0000 0.23401  0.88951  0.04981  Biso   1.000  C
  C516     1.0000 0.25219  0.90093  0.03214  Biso   1.000  C
  O603     1.0000 0.78381  0.40065  0.14009  Biso   1.000  O
  O604     1.0000 0.77153  0.37885  0.17443  Biso   1.000  O
  O605     1.0000 0.84320  0.43780  0.26114  Biso   1.000  O
  O606     1.0000 0.76280  0.39248  0.08726  Biso   1.000  O
  O607     1.0000 0.72565  0.37213  0.09249  Biso   1.000  O
  O608     1.0000 0.75477  0.42128  0.96415  Biso   1.000  O
  O609     1.0000 0.78921  0.42968  0.88836  Biso   1.000  O
  C517     1.0000 0.78620  0.39600  0.16370  Biso   1.000  C
  C518     1.0000 0.80610  0.41030  0.17960  Biso   1.000  C
  C519     1.0000 0.80780  0.40820  0.20680  Biso   1.000  C
  C520     1.0000 0.74150  0.38448  0.07804  Biso   1.000  C
  C521     1.0000 0.73401  0.38951  0.04981  Biso   1.000  C
  C522     1.0000 0.75219  0.40093  0.03214  Biso   1.000  C
  O610     1.0000 0.78381  0.90065  0.64009  Biso   1.000  O
  O611     1.0000 0.77153  0.87885  0.67443  Biso   1.000  O
  O612     1.0000 0.84320  0.93780  0.76114  Biso   1.000  O
  O613     1.0000 0.76280  0.89248  0.58726  Biso   1.000  O
  O614     1.0000 0.72565  0.87213  0.59249  Biso   1.000  O
  O615     1.0000 0.75477  0.92128  0.46415  Biso   1.000  O
  O616     1.0000 0.78921  0.92968  0.38836  Biso   1.000  O
  C523     1.0000 0.78620  0.89600  0.66370  Biso   1.000  C
  C524     1.0000 0.80610  0.91030  0.67960  Biso   1.000  C
  C525     1.0000 0.80780  0.90820  0.70680  Biso   1.000  C
  C526     1.0000 0.74150  0.88448  0.57804  Biso   1.000  C
  C527     1.0000 0.73401  0.88951  0.54981  Biso   1.000  C
  C528     1.0000 0.75219  0.90093  0.53214  Biso   1.000  C
  O617     1.0000 0.46619  0.84935  0.14009  Biso   1.000  O
  O618     1.0000 0.47847  0.87115  0.17443  Biso   1.000  O
  O619     1.0000 0.40680  0.81220  0.26114  Biso   1.000  O
  O620     1.0000 0.48720  0.85752  0.08726  Biso   1.000  O
  O621     1.0000 0.52435  0.87787  0.09249  Biso   1.000  O
  O622     1.0000 0.49523  0.82872  0.96415  Biso   1.000  O
  O623     1.0000 0.46079  0.82032  0.88836  Biso   1.000  O
  C529     1.0000 0.46380  0.85400  0.16370  Biso   1.000  C
  C530     1.0000 0.44390  0.83970  0.17960  Biso   1.000  C
  C531     1.0000 0.44220  0.84180  0.20680  Biso   1.000  C
  C532     1.0000 0.50850  0.86552  0.07804  Biso   1.000  C
  C533     1.0000 0.51599  0.86049  0.04981  Biso   1.000  C
  C534     1.0000 0.49781  0.84907  0.03214  Biso   1.000  C
  O624     1.0000 0.46619  0.34935  0.64009  Biso   1.000  O
  O625     1.0000 0.47847  0.37115  0.67443  Biso   1.000  O
  O626     1.0000 0.40680  0.31220  0.76114  Biso   1.000  O
  O627     1.0000 0.48720  0.35752  0.58726  Biso   1.000  O
  O628     1.0000 0.52435  0.37787  0.59249  Biso   1.000  O
  O629     1.0000 0.49523  0.32872  0.46415  Biso   1.000  O
  O630     1.0000 0.46079  0.32032  0.38836  Biso   1.000  O
  C535     1.0000 0.46380  0.35400  0.66370  Biso   1.000  C
  C536     1.0000 0.44390  0.33970  0.67960  Biso   1.000  C
  C537     1.0000 0.44220  0.34180  0.70680  Biso   1.000  C
  C538     1.0000 0.50850  0.36552  0.57804  Biso   1.000  C
  C539     1.0000 0.51599  0.36049  0.54981  Biso   1.000  C
  C540     1.0000 0.49781  0.34907  0.53214  Biso   1.000  C
  O631     1.0000 0.96619  0.84935  0.64009  Biso   1.000  O
  O632     1.0000 0.97847  0.87115  0.67443  Biso   1.000  O
  O633     1.0000 0.90680  0.81220  0.76114  Biso   1.000  O
  O634     1.0000 0.98720  0.85752  0.58726  Biso   1.000  O
  O635     1.0000 0.02435  0.87787  0.59249  Biso   1.000  O
  O636     1.0000 0.99523  0.82872  0.46415  Biso   1.000  O
  O637     1.0000 0.96079  0.82032  0.38836  Biso   1.000  O
  C541     1.0000 0.96380  0.85400  0.66370  Biso   1.000  C
  C542     1.0000 0.94390  0.83970  0.67960  Biso   1.000  C
  C543     1.0000 0.94220  0.84180  0.70680  Biso   1.000  C
  C544     1.0000 0.00850  0.86552  0.57804  Biso   1.000  C
  C545     1.0000 0.01599  0.86049  0.54981  Biso   1.000  C
  C546     1.0000 0.99781  0.84907  0.53214  Biso   1.000  C
  O638     1.0000 0.96619  0.34935  0.14009  Biso   1.000  O
  O639     1.0000 0.97847  0.37115  0.17443  Biso   1.000  O
  O640     1.0000 0.90680  0.31220  0.26114  Biso   1.000  O
  O641     1.0000 0.98720  0.35752  0.08726  Biso   1.000  O
  O642     1.0000 0.02435  0.37787  0.09249  Biso   1.000  O
  O643     1.0000 0.99523  0.32872  0.96415  Biso   1.000  O
  O644     1.0000 0.96079  0.32032  0.88836  Biso   1.000  O
  C547     1.0000 0.96380  0.35400  0.16370  Biso   1.000  C
  C548     1.0000 0.94390  0.33970  0.17960  Biso   1.000  C
  C549     1.0000 0.94220  0.34180  0.20680  Biso   1.000  C
  C550     1.0000 0.00850  0.36552  0.07804  Biso   1.000  C
  C551     1.0000 0.01599  0.36049  0.04981  Biso   1.000  C
  C552     1.0000 0.99781  0.34907  0.03214  Biso   1.000  C
  O645     1.0000 0.96619  0.90065  0.10991  Biso   1.000  O
  O646     1.0000 0.97847  0.87885  0.07557  Biso   1.000  O
  O647     1.0000 0.90680  0.93780  0.98886  Biso   1.000  O
  O648     1.0000 0.98720  0.89248  0.16274  Biso   1.000  O
  O649     1.0000 0.02435  0.87213  0.15751  Biso   1.000  O
  O650     1.0000 0.99523  0.92128  0.28585  Biso   1.000  O
  O651     1.0000 0.96079  0.92968  0.36164  Biso   1.000  O
  C553     1.0000 0.96380  0.89600  0.08630  Biso   1.000  C
  C554     1.0000 0.94390  0.91030  0.07040  Biso   1.000  C
  C555     1.0000 0.94220  0.90820  0.04320  Biso   1.000  C
  C556     1.0000 0.00850  0.88448  0.17196  Biso   1.000  C
  C557     1.0000 0.01599  0.88951  0.20019  Biso   1.000  C
  C558     1.0000 0.99781  0.90093  0.21786  Biso   1.000  C
  O652     1.0000 0.96619  0.40065  0.60991  Biso   1.000  O
  O653     1.0000 0.97847  0.37885  0.57557  Biso   1.000  O
  O654     1.0000 0.90680  0.43780  0.48886  Biso   1.000  O
  O655     1.0000 0.98720  0.39248  0.66274  Biso   1.000  O
  O656     1.0000 0.02435  0.37213  0.65751  Biso   1.000  O
  O657     1.0000 0.99523  0.42128  0.78585  Biso   1.000  O
  O658     1.0000 0.96079  0.42968  0.86164  Biso   1.000  O
  C559     1.0000 0.96380  0.39600  0.58630  Biso   1.000  C
  C560     1.0000 0.94390  0.41030  0.57040  Biso   1.000  C
  C561     1.0000 0.94220  0.40820  0.54320  Biso   1.000  C
  C562     1.0000 0.00850  0.38448  0.67196  Biso   1.000  C
  C563     1.0000 0.01599  0.38951  0.70019  Biso   1.000  C
  C564     1.0000 0.99781  0.40093  0.71786  Biso   1.000  C
  O659     1.0000 0.46619  0.90065  0.60991  Biso   1.000  O
  O660     1.0000 0.47847  0.87885  0.57557  Biso   1.000  O
  O661     1.0000 0.40680  0.93780  0.48886  Biso   1.000  O
  O662     1.0000 0.48720  0.89248  0.66274  Biso   1.000  O
  O663     1.0000 0.52435  0.87213  0.65751  Biso   1.000  O
  O664     1.0000 0.49523  0.92128  0.78585  Biso   1.000  O
  O665     1.0000 0.46079  0.92968  0.86164  Biso   1.000  O
  C565     1.0000 0.46380  0.89600  0.58630  Biso   1.000  C
  C566     1.0000 0.44390  0.91030  0.57040  Biso   1.000  C
  C567     1.0000 0.44220  0.90820  0.54320  Biso   1.000  C
  C568     1.0000 0.50850  0.88448  0.67196  Biso   1.000  C
  C569     1.0000 0.51599  0.88951  0.70019  Biso   1.000  C
  C570     1.0000 0.49781  0.90093  0.71786  Biso   1.000  C
  O666     1.0000 0.46619  0.40065  0.10991  Biso   1.000  O
  O667     1.0000 0.47847  0.37885  0.07557  Biso   1.000  O
  O668     1.0000 0.40680  0.43780  0.98886  Biso   1.000  O
  O669     1.0000 0.48720  0.39248  0.16274  Biso   1.000  O
  O670     1.0000 0.52435  0.37213  0.15751  Biso   1.000  O
  O671     1.0000 0.49523  0.42128  0.28585  Biso   1.000  O
  O672     1.0000 0.46079  0.42968  0.36164  Biso   1.000  O
  C571     1.0000 0.46380  0.39600  0.08630  Biso   1.000  C
  C572     1.0000 0.44390  0.41030  0.07040  Biso   1.000  C
  C573     1.0000 0.44220  0.40820  0.04320  Biso   1.000  C
  C574     1.0000 0.50850  0.38448  0.17196  Biso   1.000  C
  C575     1.0000 0.51599  0.38951  0.20019  Biso   1.000  C
  C576     1.0000 0.49781  0.40093  0.21786  Biso   1.000  C
  O673     1.0000 0.10991  0.90065  0.96619  Biso   1.000  O
  O674     1.0000 0.07557  0.87885  0.97847  Biso   1.000  O
  O675     1.0000 0.98886  0.93780  0.90680  Biso   1.000  O
  O676     1.0000 0.16274  0.89248  0.98720  Biso   1.000  O
  O677     1.0000 0.15751  0.87213  0.02435  Biso   1.000  O
  O678     1.0000 0.28585  0.92128  0.99523  Biso   1.000  O
  O679     1.0000 0.36164  0.92968  0.96079  Biso   1.000  O
  C577     1.0000 0.08630  0.89600  0.96380  Biso   1.000  C
  C578     1.0000 0.07040  0.91030  0.94390  Biso   1.000  C
  C579     1.0000 0.04320  0.90820  0.94220  Biso   1.000  C
  C580     1.0000 0.17196  0.88448  0.00850  Biso   1.000  C
  C581     1.0000 0.20019  0.88951  0.01599  Biso   1.000  C
  C582     1.0000 0.21786  0.90093  0.99781  Biso   1.000  C
  O680     1.0000 0.10991  0.40065  0.46619  Biso   1.000  O
  O681     1.0000 0.07557  0.37885  0.47847  Biso   1.000  O
  O682     1.0000 0.98886  0.43780  0.40680  Biso   1.000  O
  O683     1.0000 0.16274  0.39248  0.48720  Biso   1.000  O
  O684     1.0000 0.15751  0.37213  0.52435  Biso   1.000  O
  O685     1.0000 0.28585  0.42128  0.49523  Biso   1.000  O
  O686     1.0000 0.36164  0.42968  0.46079  Biso   1.000  O
  C583     1.0000 0.08630  0.39600  0.46380  Biso   1.000  C
  C584     1.0000 0.07040  0.41030  0.44390  Biso   1.000  C
  C585     1.0000 0.04320  0.40820  0.44220  Biso   1.000  C
  C586     1.0000 0.17196  0.38448  0.50850  Biso   1.000  C
  C587     1.0000 0.20019  0.38951  0.51599  Biso   1.000  C
  C588     1.0000 0.21786  0.40093  0.49781  Biso   1.000  C
  O687     1.0000 0.60991  0.90065  0.46619  Biso   1.000  O
  O688     1.0000 0.57557  0.87885  0.47847  Biso   1.000  O
  O689     1.0000 0.48886  0.93780  0.40680  Biso   1.000  O
  O690     1.0000 0.66274  0.89248  0.48720  Biso   1.000  O
  O691     1.0000 0.65751  0.87213  0.52435  Biso   1.000  O
  O692     1.0000 0.78585  0.92128  0.49523  Biso   1.000  O
  O693     1.0000 0.86164  0.92968  0.46079  Biso   1.000  O
  C589     1.0000 0.58630  0.89600  0.46380  Biso   1.000  C
  C590     1.0000 0.57040  0.91030  0.44390  Biso   1.000  C
  C591     1.0000 0.54320  0.90820  0.44220  Biso   1.000  C
  C592     1.0000 0.67196  0.88448  0.50850  Biso   1.000  C
  C593     1.0000 0.70019  0.88951  0.51599  Biso   1.000  C
  C594     1.0000 0.71786  0.90093  0.49781  Biso   1.000  C
  O694     1.0000 0.60991  0.40065  0.96619  Biso   1.000  O
  O695     1.0000 0.57557  0.37885  0.97847  Biso   1.000  O
  O696     1.0000 0.48886  0.43780  0.90680  Biso   1.000  O
  O697     1.0000 0.66274  0.39248  0.98720  Biso   1.000  O
  O698     1.0000 0.65751  0.37213  0.02435  Biso   1.000  O
  O699     1.0000 0.78585  0.42128  0.99523  Biso   1.000  O
  O700     1.0000 0.86164  0.42968  0.96079  Biso   1.000  O
  C595     1.0000 0.58630  0.39600  0.96380  Biso   1.000  C
  C596     1.0000 0.57040  0.41030  0.94390  Biso   1.000  C
  C597     1.0000 0.54320  0.40820  0.94220  Biso   1.000  C
  C598     1.0000 0.67196  0.38448  0.00850  Biso   1.000  C
  C599     1.0000 0.70019  0.38951  0.01599  Biso   1.000  C
  C600     1.0000 0.71786  0.40093  0.99781  Biso   1.000  C
  O701     1.0000 0.14009  0.84935  0.46619  Biso   1.000  O
  O702     1.0000 0.17443  0.87115  0.47847  Biso   1.000  O
  O703     1.0000 0.26114  0.81220  0.40680  Biso   1.000  O
  O704     1.0000 0.08726  0.85752  0.48720  Biso   1.000  O
  O705     1.0000 0.09249  0.87787  0.52435  Biso   1.000  O
  O706     1.0000 0.96415  0.82872  0.49523  Biso   1.000  O
  O707     1.0000 0.88836  0.82032  0.46079  Biso   1.000  O
  C601     1.0000 0.16370  0.85400  0.46380  Biso   1.000  C
  C602     1.0000 0.17960  0.83970  0.44390  Biso   1.000  C
  C603     1.0000 0.20680  0.84180  0.44220  Biso   1.000  C
  C604     1.0000 0.07804  0.86552  0.50850  Biso   1.000  C
  C605     1.0000 0.04981  0.86049  0.51599  Biso   1.000  C
  C606     1.0000 0.03214  0.84907  0.49781  Biso   1.000  C
  O708     1.0000 0.14009  0.34935  0.96619  Biso   1.000  O
  O709     1.0000 0.17443  0.37115  0.97847  Biso   1.000  O
  O710     1.0000 0.26114  0.31220  0.90680  Biso   1.000  O
  O711     1.0000 0.08726  0.35752  0.98720  Biso   1.000  O
  O712     1.0000 0.09249  0.37787  0.02435  Biso   1.000  O
  O713     1.0000 0.96415  0.32872  0.99523  Biso   1.000  O
  O714     1.0000 0.88836  0.32032  0.96079  Biso   1.000  O
  C607     1.0000 0.16370  0.35400  0.96380  Biso   1.000  C
  C608     1.0000 0.17960  0.33970  0.94390  Biso   1.000  C
  C609     1.0000 0.20680  0.34180  0.94220  Biso   1.000  C
  C610     1.0000 0.07804  0.36552  0.00850  Biso   1.000  C
  C611     1.0000 0.04981  0.36049  0.01599  Biso   1.000  C
  C612     1.0000 0.03214  0.34907  0.99781  Biso   1.000  C
  O715     1.0000 0.64009  0.84935  0.96619  Biso   1.000  O
  O716     1.0000 0.67443  0.87115  0.97847  Biso   1.000  O
  O717     1.0000 0.76114  0.81220  0.90680  Biso   1.000  O
  O718     1.0000 0.58726  0.85752  0.98720  Biso   1.000  O
  O719     1.0000 0.59249  0.87787  0.02435  Biso   1.000  O
  O720     1.0000 0.46415  0.82872  0.99523  Biso   1.000  O
  O721     1.0000 0.38836  0.82032  0.96079  Biso   1.000  O
  C613     1.0000 0.66370  0.85400  0.96380  Biso   1.000  C
  C614     1.0000 0.67960  0.83970  0.94390  Biso   1.000  C
  C615     1.0000 0.70680  0.84180  0.94220  Biso   1.000  C
  C616     1.0000 0.57804  0.86552  0.00850  Biso   1.000  C
  C617     1.0000 0.54981  0.86049  0.01599  Biso   1.000  C
  C618     1.0000 0.53214  0.84907  0.99781  Biso   1.000  C
  O722     1.0000 0.64009  0.34935  0.46619  Biso   1.000  O
  O723     1.0000 0.67443  0.37115  0.47847  Biso   1.000  O
  O724     1.0000 0.76114  0.31220  0.40680  Biso   1.000  O
  O725     1.0000 0.58726  0.35752  0.48720  Biso   1.000  O
  O726     1.0000 0.59249  0.37787  0.52435  Biso   1.000  O
  O727     1.0000 0.46415  0.32872  0.49523  Biso   1.000  O
  O728     1.0000 0.38836  0.32032  0.46079  Biso   1.000  O
  C619     1.0000 0.66370  0.35400  0.46380  Biso   1.000  C
  C620     1.0000 0.67960  0.33970  0.44390  Biso   1.000  C
  C621     1.0000 0.70680  0.34180  0.44220  Biso   1.000  C
  C622     1.0000 0.57804  0.36552  0.50850  Biso   1.000  C
  C623     1.0000 0.54981  0.36049  0.51599  Biso   1.000  C
  C624     1.0000 0.53214  0.34907  0.49781  Biso   1.000  C
  O729     1.0000 0.64009  0.40065  0.28381  Biso   1.000  O
  O730     1.0000 0.67443  0.37885  0.27153  Biso   1.000  O
  O731     1.0000 0.76114  0.43780  0.34320  Biso   1.000  O
  O732     1.0000 0.58726  0.39248  0.26280  Biso   1.000  O
  O733     1.0000 0.59249  0.37213  0.22565  Biso   1.000  O
  O734     1.0000 0.46415  0.42128  0.25477  Biso   1.000  O
  O735     1.0000 0.38836  0.42968  0.28921  Biso   1.000  O
  C625     1.0000 0.66370  0.39600  0.28620  Biso   1.000  C
  C626     1.0000 0.67960  0.41030  0.30610  Biso   1.000  C
  C627     1.0000 0.70680  0.40820  0.30780  Biso   1.000  C
  C628     1.0000 0.57804  0.38448  0.24150  Biso   1.000  C
  C629     1.0000 0.54981  0.38951  0.23401  Biso   1.000  C
  C630     1.0000 0.53214  0.40093  0.25219  Biso   1.000  C
  O736     1.0000 0.64009  0.90065  0.78381  Biso   1.000  O
  O737     1.0000 0.67443  0.87885  0.77153  Biso   1.000  O
  O738     1.0000 0.76114  0.93780  0.84320  Biso   1.000  O
  O739     1.0000 0.58726  0.89248  0.76280  Biso   1.000  O
  O740     1.0000 0.59249  0.87213  0.72565  Biso   1.000  O
  O741     1.0000 0.46415  0.92128  0.75477  Biso   1.000  O
  O742     1.0000 0.38836  0.92968  0.78921  Biso   1.000  O
  C631     1.0000 0.66370  0.89600  0.78620  Biso   1.000  C
  C632     1.0000 0.67960  0.91030  0.80610  Biso   1.000  C
  C633     1.0000 0.70680  0.90820  0.80780  Biso   1.000  C
  C634     1.0000 0.57804  0.88448  0.74150  Biso   1.000  C
  C635     1.0000 0.54981  0.88951  0.73401  Biso   1.000  C
  C636     1.0000 0.53214  0.90093  0.75219  Biso   1.000  C
  O743     1.0000 0.14009  0.40065  0.78381  Biso   1.000  O
  O744     1.0000 0.17443  0.37885  0.77153  Biso   1.000  O
  O745     1.0000 0.26114  0.43780  0.84320  Biso   1.000  O
  O746     1.0000 0.08726  0.39248  0.76280  Biso   1.000  O
  O747     1.0000 0.09249  0.37213  0.72565  Biso   1.000  O
  O748     1.0000 0.96415  0.42128  0.75477  Biso   1.000  O
  O749     1.0000 0.88836  0.42968  0.78921  Biso   1.000  O
  C637     1.0000 0.16370  0.39600  0.78620  Biso   1.000  C
  C638     1.0000 0.17960  0.41030  0.80610  Biso   1.000  C
  C639     1.0000 0.20680  0.40820  0.80780  Biso   1.000  C
  C640     1.0000 0.07804  0.38448  0.74150  Biso   1.000  C
  C641     1.0000 0.04981  0.38951  0.73401  Biso   1.000  C
  C642     1.0000 0.03214  0.40093  0.75219  Biso   1.000  C
  O750     1.0000 0.14009  0.90065  0.28381  Biso   1.000  O
  O751     1.0000 0.17443  0.87885  0.27153  Biso   1.000  O
  O752     1.0000 0.26114  0.93780  0.34320  Biso   1.000  O
  O753     1.0000 0.08726  0.89248  0.26280  Biso   1.000  O
  O754     1.0000 0.09249  0.87213  0.22565  Biso   1.000  O
  O755     1.0000 0.96415  0.92128  0.25477  Biso   1.000  O
  O756     1.0000 0.88836  0.92968  0.28921  Biso   1.000  O
  C643     1.0000 0.16370  0.89600  0.28620  Biso   1.000  C
  C644     1.0000 0.17960  0.91030  0.30610  Biso   1.000  C
  C645     1.0000 0.20680  0.90820  0.30780  Biso   1.000  C
  C646     1.0000 0.07804  0.88448  0.24150  Biso   1.000  C
  C647     1.0000 0.04981  0.88951  0.23401  Biso   1.000  C
  C648     1.0000 0.03214  0.90093  0.25219  Biso   1.000  C
  O757     1.0000 0.60991  0.34935  0.78381  Biso   1.000  O
  O758     1.0000 0.57557  0.37115  0.77153  Biso   1.000  O
  O759     1.0000 0.48886  0.31220  0.84320  Biso   1.000  O
  O760     1.0000 0.66274  0.35752  0.76280  Biso   1.000  O
  O761     1.0000 0.65751  0.37787  0.72565  Biso   1.000  O
  O762     1.0000 0.78585  0.32872  0.75477  Biso   1.000  O
  O763     1.0000 0.86164  0.32032  0.78921  Biso   1.000  O
  C649     1.0000 0.58630  0.35400  0.78620  Biso   1.000  C
  C650     1.0000 0.57040  0.33970  0.80610  Biso   1.000  C
  C651     1.0000 0.54320  0.34180  0.80780  Biso   1.000  C
  C652     1.0000 0.67196  0.36552  0.74150  Biso   1.000  C
  C653     1.0000 0.70019  0.36049  0.73401  Biso   1.000  C
  C654     1.0000 0.71786  0.34907  0.75219  Biso   1.000  C
  O764     1.0000 0.60991  0.84935  0.28381  Biso   1.000  O
  O765     1.0000 0.57557  0.87115  0.27153  Biso   1.000  O
  O766     1.0000 0.48886  0.81220  0.34320  Biso   1.000  O
  O767     1.0000 0.66274  0.85752  0.26280  Biso   1.000  O
  O768     1.0000 0.65751  0.87787  0.22565  Biso   1.000  O
  O769     1.0000 0.78585  0.82872  0.25477  Biso   1.000  O
  O770     1.0000 0.86164  0.82032  0.28921  Biso   1.000  O
  C655     1.0000 0.58630  0.85400  0.28620  Biso   1.000  C
  C656     1.0000 0.57040  0.83970  0.30610  Biso   1.000  C
  C657     1.0000 0.54320  0.84180  0.30780  Biso   1.000  C
  C658     1.0000 0.67196  0.86552  0.24150  Biso   1.000  C
  C659     1.0000 0.70019  0.86049  0.23401  Biso   1.000  C
  C660     1.0000 0.71786  0.84907  0.25219  Biso   1.000  C
  O771     1.0000 0.10991  0.34935  0.28381  Biso   1.000  O
  O772     1.0000 0.07557  0.37115  0.27153  Biso   1.000  O
  O773     1.0000 0.98886  0.31220  0.34320  Biso   1.000  O
  O774     1.0000 0.16274  0.35752  0.26280  Biso   1.000  O
  O775     1.0000 0.15751  0.37787  0.22565  Biso   1.000  O
  O776     1.0000 0.28585  0.32872  0.25477  Biso   1.000  O
  O777     1.0000 0.36164  0.32032  0.28921  Biso   1.000  O
  C661     1.0000 0.08630  0.35400  0.28620  Biso   1.000  C
  C662     1.0000 0.07040  0.33970  0.30610  Biso   1.000  C
  C663     1.0000 0.04320  0.34180  0.30780  Biso   1.000  C
  C664     1.0000 0.17196  0.36552  0.24150  Biso   1.000  C
  C665     1.0000 0.20019  0.36049  0.23401  Biso   1.000  C
  C666     1.0000 0.21786  0.34907  0.25219  Biso   1.000  C
  O778     1.0000 0.10991  0.84935  0.78381  Biso   1.000  O
  O779     1.0000 0.07557  0.87115  0.77153  Biso   1.000  O
  O780     1.0000 0.98886  0.81220  0.84320  Biso   1.000  O
  O781     1.0000 0.16274  0.85752  0.76280  Biso   1.000  O
  O782     1.0000 0.15751  0.87787  0.72565  Biso   1.000  O
  O783     1.0000 0.28585  0.82872  0.75477  Biso   1.000  O
  O784     1.0000 0.36164  0.82032  0.78921  Biso   1.000  O
  C667     1.0000 0.08630  0.85400  0.78620  Biso   1.000  C
  C668     1.0000 0.07040  0.83970  0.80610  Biso   1.000  C
  C669     1.0000 0.04320  0.84180  0.80780  Biso   1.000  C
  C670     1.0000 0.17196  0.86552  0.74150  Biso   1.000  C
  C671     1.0000 0.20019  0.86049  0.73401  Biso   1.000  C
  C672     1.0000 0.21786  0.84907  0.75219  Biso   1.000  C
  O785     1.0000 0.96619  0.10991  0.90065  Biso   1.000  O
  O786     1.0000 0.97847  0.07557  0.87885  Biso   1.000  O
  O787     1.0000 0.90680  0.98886  0.93780  Biso   1.000  O
  O788     1.0000 0.98720  0.16274  0.89248  Biso   1.000  O
  O789     1.0000 0.02435  0.15751  0.87213  Biso   1.000  O
  O790     1.0000 0.99523  0.28585  0.92128  Biso   1.000  O
  O791     1.0000 0.96079  0.36164  0.92968  Biso   1.000  O
  C673     1.0000 0.96380  0.08630  0.89600  Biso   1.000  C
  C674     1.0000 0.94390  0.07040  0.91030  Biso   1.000  C
  C675     1.0000 0.94220  0.04320  0.90820  Biso   1.000  C
  C676     1.0000 0.00850  0.17196  0.88448  Biso   1.000  C
  C677     1.0000 0.01599  0.20019  0.88951  Biso   1.000  C
  C678     1.0000 0.99781  0.21786  0.90093  Biso   1.000  C
  O792     1.0000 0.96619  0.60991  0.40065  Biso   1.000  O
  O793     1.0000 0.97847  0.57557  0.37885  Biso   1.000  O
  O794     1.0000 0.90680  0.48886  0.43780  Biso   1.000  O
  O795     1.0000 0.98720  0.66274  0.39248  Biso   1.000  O
  O796     1.0000 0.02435  0.65751  0.37213  Biso   1.000  O
  O797     1.0000 0.99523  0.78585  0.42128  Biso   1.000  O
  O798     1.0000 0.96079  0.86164  0.42968  Biso   1.000  O
  C679     1.0000 0.96380  0.58630  0.39600  Biso   1.000  C
  C680     1.0000 0.94390  0.57040  0.41030  Biso   1.000  C
  C681     1.0000 0.94220  0.54320  0.40820  Biso   1.000  C
  C682     1.0000 0.00850  0.67196  0.38448  Biso   1.000  C
  C683     1.0000 0.01599  0.70019  0.38951  Biso   1.000  C
  C684     1.0000 0.99781  0.71786  0.40093  Biso   1.000  C
  O799     1.0000 0.46619  0.10991  0.40065  Biso   1.000  O
  O800     1.0000 0.47847  0.07557  0.37885  Biso   1.000  O
  O801     1.0000 0.40680  0.98886  0.43780  Biso   1.000  O
  O802     1.0000 0.48720  0.16274  0.39248  Biso   1.000  O
  O803     1.0000 0.52435  0.15751  0.37213  Biso   1.000  O
  O804     1.0000 0.49523  0.28585  0.42128  Biso   1.000  O
  O805     1.0000 0.46079  0.36164  0.42968  Biso   1.000  O
  C685     1.0000 0.46380  0.08630  0.39600  Biso   1.000  C
  C686     1.0000 0.44390  0.07040  0.41030  Biso   1.000  C
  C687     1.0000 0.44220  0.04320  0.40820  Biso   1.000  C
  C688     1.0000 0.50850  0.17196  0.38448  Biso   1.000  C
  C689     1.0000 0.51599  0.20019  0.38951  Biso   1.000  C
  C690     1.0000 0.49781  0.21786  0.40093  Biso   1.000  C
  O806     1.0000 0.46619  0.60991  0.90065  Biso   1.000  O
  O807     1.0000 0.47847  0.57557  0.87885  Biso   1.000  O
  O808     1.0000 0.40680  0.48886  0.93780  Biso   1.000  O
  O809     1.0000 0.48720  0.66274  0.89248  Biso   1.000  O
  O810     1.0000 0.52435  0.65751  0.87213  Biso   1.000  O
  O811     1.0000 0.49523  0.78585  0.92128  Biso   1.000  O
  O812     1.0000 0.46079  0.86164  0.92968  Biso   1.000  O
  C691     1.0000 0.46380  0.58630  0.89600  Biso   1.000  C
  C692     1.0000 0.44390  0.57040  0.91030  Biso   1.000  C
  C693     1.0000 0.44220  0.54320  0.90820  Biso   1.000  C
  C694     1.0000 0.50850  0.67196  0.88448  Biso   1.000  C
  C695     1.0000 0.51599  0.70019  0.88951  Biso   1.000  C
  C696     1.0000 0.49781  0.71786  0.90093  Biso   1.000  C
  O813     1.0000 0.46619  0.14009  0.84935  Biso   1.000  O
  O814     1.0000 0.47847  0.17443  0.87115  Biso   1.000  O
  O815     1.0000 0.40680  0.26114  0.81220  Biso   1.000  O
  O816     1.0000 0.48720  0.08726  0.85752  Biso   1.000  O
  O817     1.0000 0.52435  0.09249  0.87787  Biso   1.000  O
  O818     1.0000 0.49523  0.96415  0.82872  Biso   1.000  O
  O819     1.0000 0.46079  0.88836  0.82032  Biso   1.000  O
  C697     1.0000 0.46380  0.16370  0.85400  Biso   1.000  C
  C698     1.0000 0.44390  0.17960  0.83970  Biso   1.000  C
  C699     1.0000 0.44220  0.20680  0.84180  Biso   1.000  C
  C700     1.0000 0.50850  0.07804  0.86552  Biso   1.000  C
  C701     1.0000 0.51599  0.04981  0.86049  Biso   1.000  C
  C702     1.0000 0.49781  0.03214  0.84907  Biso   1.000  C
  O820     1.0000 0.46619  0.64009  0.34935  Biso   1.000  O
  O821     1.0000 0.47847  0.67443  0.37115  Biso   1.000  O
  O822     1.0000 0.40680  0.76114  0.31220  Biso   1.000  O
  O823     1.0000 0.48720  0.58726  0.35752  Biso   1.000  O
  O824     1.0000 0.52435  0.59249  0.37787  Biso   1.000  O
  O825     1.0000 0.49523  0.46415  0.32872  Biso   1.000  O
  O826     1.0000 0.46079  0.38836  0.32032  Biso   1.000  O
  C703     1.0000 0.46380  0.66370  0.35400  Biso   1.000  C
  C704     1.0000 0.44390  0.67960  0.33970  Biso   1.000  C
  C705     1.0000 0.44220  0.70680  0.34180  Biso   1.000  C
  C706     1.0000 0.50850  0.57804  0.36552  Biso   1.000  C
  C707     1.0000 0.51599  0.54981  0.36049  Biso   1.000  C
  C708     1.0000 0.49781  0.53214  0.34907  Biso   1.000  C
  O827     1.0000 0.96619  0.14009  0.34935  Biso   1.000  O
  O828     1.0000 0.97847  0.17443  0.37115  Biso   1.000  O
  O829     1.0000 0.90680  0.26114  0.31220  Biso   1.000  O
  O830     1.0000 0.98720  0.08726  0.35752  Biso   1.000  O
  O831     1.0000 0.02435  0.09249  0.37787  Biso   1.000  O
  O832     1.0000 0.99523  0.96415  0.32872  Biso   1.000  O
  O833     1.0000 0.96079  0.88836  0.32032  Biso   1.000  O
  C709     1.0000 0.96380  0.16370  0.35400  Biso   1.000  C
  C710     1.0000 0.94390  0.17960  0.33970  Biso   1.000  C
  C711     1.0000 0.94220  0.20680  0.34180  Biso   1.000  C
  C712     1.0000 0.00850  0.07804  0.36552  Biso   1.000  C
  C713     1.0000 0.01599  0.04981  0.36049  Biso   1.000  C
  C714     1.0000 0.99781  0.03214  0.34907  Biso   1.000  C
  O834     1.0000 0.96619  0.64009  0.84935  Biso   1.000  O
  O835     1.0000 0.97847  0.67443  0.87115  Biso   1.000  O
  O836     1.0000 0.90680  0.76114  0.81220  Biso   1.000  O
  O837     1.0000 0.98720  0.58726  0.85752  Biso   1.000  O
  O838     1.0000 0.02435  0.59249  0.87787  Biso   1.000  O
  O839     1.0000 0.99523  0.46415  0.82872  Biso   1.000  O
  O840     1.0000 0.96079  0.38836  0.82032  Biso   1.000  O
  C715     1.0000 0.96380  0.66370  0.85400  Biso   1.000  C
  C716     1.0000 0.94390  0.67960  0.83970  Biso   1.000  C
  C717     1.0000 0.94220  0.70680  0.84180  Biso   1.000  C
  C718     1.0000 0.00850  0.57804  0.86552  Biso   1.000  C
  C719     1.0000 0.01599  0.54981  0.86049  Biso   1.000  C
  C720     1.0000 0.99781  0.53214  0.84907  Biso   1.000  C
  O841     1.0000 0.28381  0.64009  0.40065  Biso   1.000  O
  O842     1.0000 0.27153  0.67443  0.37885  Biso   1.000  O
  O843     1.0000 0.34320  0.76114  0.43780  Biso   1.000  O
  O844     1.0000 0.26280  0.58726  0.39248  Biso   1.000  O
  O845     1.0000 0.22565  0.59249  0.37213  Biso   1.000  O
  O846     1.0000 0.25477  0.46415  0.42128  Biso   1.000  O
  O847     1.0000 0.28921  0.38836  0.42968  Biso   1.000  O
  C721     1.0000 0.28620  0.66370  0.39600  Biso   1.000  C
  C722     1.0000 0.30610  0.67960  0.41030  Biso   1.000  C
  C723     1.0000 0.30780  0.70680  0.40820  Biso   1.000  C
  C724     1.0000 0.24150  0.57804  0.38448  Biso   1.000  C
  C725     1.0000 0.23401  0.54981  0.38951  Biso   1.000  C
  C726     1.0000 0.25219  0.53214  0.40093  Biso   1.000  C
  O848     1.0000 0.28381  0.14009  0.90065  Biso   1.000  O
  O849     1.0000 0.27153  0.17443  0.87885  Biso   1.000  O
  O850     1.0000 0.34320  0.26114  0.93780  Biso   1.000  O
  O851     1.0000 0.26280  0.08726  0.89248  Biso   1.000  O
  O852     1.0000 0.22565  0.09249  0.87213  Biso   1.000  O
  O853     1.0000 0.25477  0.96415  0.92128  Biso   1.000  O
  O854     1.0000 0.28921  0.88836  0.92968  Biso   1.000  O
  C727     1.0000 0.28620  0.16370  0.89600  Biso   1.000  C
  C728     1.0000 0.30610  0.17960  0.91030  Biso   1.000  C
  C729     1.0000 0.30780  0.20680  0.90820  Biso   1.000  C
  C730     1.0000 0.24150  0.07804  0.88448  Biso   1.000  C
  C731     1.0000 0.23401  0.04981  0.88951  Biso   1.000  C
  C732     1.0000 0.25219  0.03214  0.90093  Biso   1.000  C
  O855     1.0000 0.78381  0.64009  0.90065  Biso   1.000  O
  O856     1.0000 0.77153  0.67443  0.87885  Biso   1.000  O
  O857     1.0000 0.84320  0.76114  0.93780  Biso   1.000  O
  O858     1.0000 0.76280  0.58726  0.89248  Biso   1.000  O
  O859     1.0000 0.72565  0.59249  0.87213  Biso   1.000  O
  O860     1.0000 0.75477  0.46415  0.92128  Biso   1.000  O
  O861     1.0000 0.78921  0.38836  0.92968  Biso   1.000  O
  C733     1.0000 0.78620  0.66370  0.89600  Biso   1.000  C
  C734     1.0000 0.80610  0.67960  0.91030  Biso   1.000  C
  C735     1.0000 0.80780  0.70680  0.90820  Biso   1.000  C
  C736     1.0000 0.74150  0.57804  0.88448  Biso   1.000  C
  C737     1.0000 0.73401  0.54981  0.88951  Biso   1.000  C
  C738     1.0000 0.75219  0.53214  0.90093  Biso   1.000  C
  O862     1.0000 0.78381  0.14009  0.40065  Biso   1.000  O
  O863     1.0000 0.77153  0.17443  0.37885  Biso   1.000  O
  O864     1.0000 0.84320  0.26114  0.43780  Biso   1.000  O
  O865     1.0000 0.76280  0.08726  0.39248  Biso   1.000  O
  O866     1.0000 0.72565  0.09249  0.37213  Biso   1.000  O
  O867     1.0000 0.75477  0.96415  0.42128  Biso   1.000  O
  O868     1.0000 0.78921  0.88836  0.42968  Biso   1.000  O
  C739     1.0000 0.78620  0.16370  0.39600  Biso   1.000  C
  C740     1.0000 0.80610  0.17960  0.41030  Biso   1.000  C
  C741     1.0000 0.80780  0.20680  0.40820  Biso   1.000  C
  C742     1.0000 0.74150  0.07804  0.38448  Biso   1.000  C
  C743     1.0000 0.73401  0.04981  0.38951  Biso   1.000  C
  C744     1.0000 0.75219  0.03214  0.40093  Biso   1.000  C
  O869     1.0000 0.78381  0.60991  0.34935  Biso   1.000  O
  O870     1.0000 0.77153  0.57557  0.37115  Biso   1.000  O
  O871     1.0000 0.84320  0.48886  0.31220  Biso   1.000  O
  O872     1.0000 0.76280  0.66274  0.35752  Biso   1.000  O
  O873     1.0000 0.72565  0.65751  0.37787  Biso   1.000  O
  O874     1.0000 0.75477  0.78585  0.32872  Biso   1.000  O
  O875     1.0000 0.78921  0.86164  0.32032  Biso   1.000  O
  C745     1.0000 0.78620  0.58630  0.35400  Biso   1.000  C
  C746     1.0000 0.80610  0.57040  0.33970  Biso   1.000  C
  C747     1.0000 0.80780  0.54320  0.34180  Biso   1.000  C
  C748     1.0000 0.74150  0.67196  0.36552  Biso   1.000  C
  C749     1.0000 0.73401  0.70019  0.36049  Biso   1.000  C
  C750     1.0000 0.75219  0.71786  0.34907  Biso   1.000  C
  O876     1.0000 0.78381  0.10991  0.84935  Biso   1.000  O
  O877     1.0000 0.77153  0.07557  0.87115  Biso   1.000  O
  O878     1.0000 0.84320  0.98886  0.81220  Biso   1.000  O
  O879     1.0000 0.76280  0.16274  0.85752  Biso   1.000  O
  O880     1.0000 0.72565  0.15751  0.87787  Biso   1.000  O
  O881     1.0000 0.75477  0.28585  0.82872  Biso   1.000  O
  O882     1.0000 0.78921  0.36164  0.82032  Biso   1.000  O
  C751     1.0000 0.78620  0.08630  0.85400  Biso   1.000  C
  C752     1.0000 0.80610  0.07040  0.83970  Biso   1.000  C
  C753     1.0000 0.80780  0.04320  0.84180  Biso   1.000  C
  C754     1.0000 0.74150  0.17196  0.86552  Biso   1.000  C
  C755     1.0000 0.73401  0.20019  0.86049  Biso   1.000  C
  C756     1.0000 0.75219  0.21786  0.84907  Biso   1.000  C
  O883     1.0000 0.28381  0.60991  0.84935  Biso   1.000  O
  O884     1.0000 0.27153  0.57557  0.87115  Biso   1.000  O
  O885     1.0000 0.34320  0.48886  0.81220  Biso   1.000  O
  O886     1.0000 0.26280  0.66274  0.85752  Biso   1.000  O
  O887     1.0000 0.22565  0.65751  0.87787  Biso   1.000  O
  O888     1.0000 0.25477  0.78585  0.82872  Biso   1.000  O
  O889     1.0000 0.28921  0.86164  0.82032  Biso   1.000  O
  C757     1.0000 0.28620  0.58630  0.85400  Biso   1.000  C
  C758     1.0000 0.30610  0.57040  0.83970  Biso   1.000  C
  C759     1.0000 0.30780  0.54320  0.84180  Biso   1.000  C
  C760     1.0000 0.24150  0.67196  0.86552  Biso   1.000  C
  C761     1.0000 0.23401  0.70019  0.86049  Biso   1.000  C
  C762     1.0000 0.25219  0.71786  0.84907  Biso   1.000  C
  O890     1.0000 0.28381  0.10991  0.34935  Biso   1.000  O
  O891     1.0000 0.27153  0.07557  0.37115  Biso   1.000  O
  O892     1.0000 0.34320  0.98886  0.31220  Biso   1.000  O
  O893     1.0000 0.26280  0.16274  0.35752  Biso   1.000  O
  O894     1.0000 0.22565  0.15751  0.37787  Biso   1.000  O
  O895     1.0000 0.25477  0.28585  0.32872  Biso   1.000  O
  O896     1.0000 0.28921  0.36164  0.32032  Biso   1.000  O
  C763     1.0000 0.28620  0.08630  0.35400  Biso   1.000  C
  C764     1.0000 0.30610  0.07040  0.33970  Biso   1.000  C
  C765     1.0000 0.30780  0.04320  0.34180  Biso   1.000  C
  C766     1.0000 0.24150  0.17196  0.36552  Biso   1.000  C
  C767     1.0000 0.23401  0.20019  0.36049  Biso   1.000  C
  C768     1.0000 0.25219  0.21786  0.34907  Biso   1.000  C
  O897     1.0000 0.90065  0.96619  0.10991  Biso   1.000  O
  O898     1.0000 0.87885  0.97847  0.07557  Biso   1.000  O
  O899     1.0000 0.93780  0.90680  0.98886  Biso   1.000  O
  O900     1.0000 0.89248  0.98720  0.16274  Biso   1.000  O
  O901     1.0000 0.87213  0.02435  0.15751  Biso   1.000  O
  O902     1.0000 0.92128  0.99523  0.28585  Biso   1.000  O
  O903     1.0000 0.92968  0.96079  0.36164  Biso   1.000  O
  C769     1.0000 0.89600  0.96380  0.08630  Biso   1.000  C
  C770     1.0000 0.91030  0.94390  0.07040  Biso   1.000  C
  C771     1.0000 0.90820  0.94220  0.04320  Biso   1.000  C
  C772     1.0000 0.88448  0.00850  0.17196  Biso   1.000  C
  C773     1.0000 0.88951  0.01599  0.20019  Biso   1.000  C
  C774     1.0000 0.90093  0.99781  0.21786  Biso   1.000  C
  O904     1.0000 0.90065  0.46619  0.60991  Biso   1.000  O
  O905     1.0000 0.87885  0.47847  0.57557  Biso   1.000  O
  O906     1.0000 0.93780  0.40680  0.48886  Biso   1.000  O
  O907     1.0000 0.89248  0.48720  0.66274  Biso   1.000  O
  O908     1.0000 0.87213  0.52435  0.65751  Biso   1.000  O
  O909     1.0000 0.92128  0.49523  0.78585  Biso   1.000  O
  O910     1.0000 0.92968  0.46079  0.86164  Biso   1.000  O
  C775     1.0000 0.89600  0.46380  0.58630  Biso   1.000  C
  C776     1.0000 0.91030  0.44390  0.57040  Biso   1.000  C
  C777     1.0000 0.90820  0.44220  0.54320  Biso   1.000  C
  C778     1.0000 0.88448  0.50850  0.67196  Biso   1.000  C
  C779     1.0000 0.88951  0.51599  0.70019  Biso   1.000  C
  C780     1.0000 0.90093  0.49781  0.71786  Biso   1.000  C
  O911     1.0000 0.40065  0.96619  0.60991  Biso   1.000  O
  O912     1.0000 0.37885  0.97847  0.57557  Biso   1.000  O
  O913     1.0000 0.43780  0.90680  0.48886  Biso   1.000  O
  O914     1.0000 0.39248  0.98720  0.66274  Biso   1.000  O
  O915     1.0000 0.37213  0.02435  0.65751  Biso   1.000  O
  O916     1.0000 0.42128  0.99523  0.78585  Biso   1.000  O
  O917     1.0000 0.42968  0.96079  0.86164  Biso   1.000  O
  C781     1.0000 0.39600  0.96380  0.58630  Biso   1.000  C
  C782     1.0000 0.41030  0.94390  0.57040  Biso   1.000  C
  C783     1.0000 0.40820  0.94220  0.54320  Biso   1.000  C
  C784     1.0000 0.38448  0.00850  0.67196  Biso   1.000  C
  C785     1.0000 0.38951  0.01599  0.70019  Biso   1.000  C
  C786     1.0000 0.40093  0.99781  0.71786  Biso   1.000  C
  O918     1.0000 0.40065  0.46619  0.10991  Biso   1.000  O
  O919     1.0000 0.37885  0.47847  0.07557  Biso   1.000  O
  O920     1.0000 0.43780  0.40680  0.98886  Biso   1.000  O
  O921     1.0000 0.39248  0.48720  0.16274  Biso   1.000  O
  O922     1.0000 0.37213  0.52435  0.15751  Biso   1.000  O
  O923     1.0000 0.42128  0.49523  0.28585  Biso   1.000  O
  O924     1.0000 0.42968  0.46079  0.36164  Biso   1.000  O
  C787     1.0000 0.39600  0.46380  0.08630  Biso   1.000  C
  C788     1.0000 0.41030  0.44390  0.07040  Biso   1.000  C
  C789     1.0000 0.40820  0.44220  0.04320  Biso   1.000  C
  C790     1.0000 0.38448  0.50850  0.17196  Biso   1.000  C
  C791     1.0000 0.38951  0.51599  0.20019  Biso   1.000  C
  C792     1.0000 0.40093  0.49781  0.21786  Biso   1.000  C
  O925     1.0000 0.84935  0.46619  0.14009  Biso   1.000  O
  O926     1.0000 0.87115  0.47847  0.17443  Biso   1.000  O
  O927     1.0000 0.81220  0.40680  0.26114  Biso   1.000  O
  O928     1.0000 0.85752  0.48720  0.08726  Biso   1.000  O
  O929     1.0000 0.87787  0.52435  0.09249  Biso   1.000  O
  O930     1.0000 0.82872  0.49523  0.96415  Biso   1.000  O
  O931     1.0000 0.82032  0.46079  0.88836  Biso   1.000  O
  C793     1.0000 0.85400  0.46380  0.16370  Biso   1.000  C
  C794     1.0000 0.83970  0.44390  0.17960  Biso   1.000  C
  C795     1.0000 0.84180  0.44220  0.20680  Biso   1.000  C
  C796     1.0000 0.86552  0.50850  0.07804  Biso   1.000  C
  C797     1.0000 0.86049  0.51599  0.04981  Biso   1.000  C
  C798     1.0000 0.84907  0.49781  0.03214  Biso   1.000  C
  O932     1.0000 0.84935  0.96619  0.64009  Biso   1.000  O
  O933     1.0000 0.87115  0.97847  0.67443  Biso   1.000  O
  O934     1.0000 0.81220  0.90680  0.76114  Biso   1.000  O
  O935     1.0000 0.85752  0.98720  0.58726  Biso   1.000  O
  O936     1.0000 0.87787  0.02435  0.59249  Biso   1.000  O
  O937     1.0000 0.82872  0.99523  0.46415  Biso   1.000  O
  O938     1.0000 0.82032  0.96079  0.38836  Biso   1.000  O
  C799     1.0000 0.85400  0.96380  0.66370  Biso   1.000  C
  C800     1.0000 0.83970  0.94390  0.67960  Biso   1.000  C
  C801     1.0000 0.84180  0.94220  0.70680  Biso   1.000  C
  C802     1.0000 0.86552  0.00850  0.57804  Biso   1.000  C
  C803     1.0000 0.86049  0.01599  0.54981  Biso   1.000  C
  C804     1.0000 0.84907  0.99781  0.53214  Biso   1.000  C
  O939     1.0000 0.34935  0.46619  0.64009  Biso   1.000  O
  O940     1.0000 0.37115  0.47847  0.67443  Biso   1.000  O
  O941     1.0000 0.31220  0.40680  0.76114  Biso   1.000  O
  O942     1.0000 0.35752  0.48720  0.58726  Biso   1.000  O
  O943     1.0000 0.37787  0.52435  0.59249  Biso   1.000  O
  O944     1.0000 0.32872  0.49523  0.46415  Biso   1.000  O
  O945     1.0000 0.32032  0.46079  0.38836  Biso   1.000  O
  C805     1.0000 0.35400  0.46380  0.66370  Biso   1.000  C
  C806     1.0000 0.33970  0.44390  0.67960  Biso   1.000  C
  C807     1.0000 0.34180  0.44220  0.70680  Biso   1.000  C
  C808     1.0000 0.36552  0.50850  0.57804  Biso   1.000  C
  C809     1.0000 0.36049  0.51599  0.54981  Biso   1.000  C
  C810     1.0000 0.34907  0.49781  0.53214  Biso   1.000  C
  O946     1.0000 0.34935  0.96619  0.14009  Biso   1.000  O
  O947     1.0000 0.37115  0.97847  0.17443  Biso   1.000  O
  O948     1.0000 0.31220  0.90680  0.26114  Biso   1.000  O
  O949     1.0000 0.35752  0.98720  0.08726  Biso   1.000  O
  O950     1.0000 0.37787  0.02435  0.09249  Biso   1.000  O
  O951     1.0000 0.32872  0.99523  0.96415  Biso   1.000  O
  O952     1.0000 0.32032  0.96079  0.88836  Biso   1.000  O
  C811     1.0000 0.35400  0.96380  0.16370  Biso   1.000  C
  C812     1.0000 0.33970  0.94390  0.17960  Biso   1.000  C
  C813     1.0000 0.34180  0.94220  0.20680  Biso   1.000  C
  C814     1.0000 0.36552  0.00850  0.07804  Biso   1.000  C
  C815     1.0000 0.36049  0.01599  0.04981  Biso   1.000  C
  C816     1.0000 0.34907  0.99781  0.03214  Biso   1.000  C
  O953     1.0000 0.40065  0.28381  0.64009  Biso   1.000  O
  O954     1.0000 0.37885  0.27153  0.67443  Biso   1.000  O
  O955     1.0000 0.43780  0.34320  0.76114  Biso   1.000  O
  O956     1.0000 0.39248  0.26280  0.58726  Biso   1.000  O
  O957     1.0000 0.37213  0.22565  0.59249  Biso   1.000  O
  O958     1.0000 0.42128  0.25477  0.46415  Biso   1.000  O
  O959     1.0000 0.42968  0.28921  0.38836  Biso   1.000  O
  C817     1.0000 0.39600  0.28620  0.66370  Biso   1.000  C
  C818     1.0000 0.41030  0.30610  0.67960  Biso   1.000  C
  C819     1.0000 0.40820  0.30780  0.70680  Biso   1.000  C
  C820     1.0000 0.38448  0.24150  0.57804  Biso   1.000  C
  C821     1.0000 0.38951  0.23401  0.54981  Biso   1.000  C
  C822     1.0000 0.40093  0.25219  0.53214  Biso   1.000  C
  O960     1.0000 0.40065  0.78381  0.14009  Biso   1.000  O
  O961     1.0000 0.37885  0.77153  0.17443  Biso   1.000  O
  O962     1.0000 0.43780  0.84320  0.26114  Biso   1.000  O
  O963     1.0000 0.39248  0.76280  0.08726  Biso   1.000  O
  O964     1.0000 0.37213  0.72565  0.09249  Biso   1.000  O
  O965     1.0000 0.42128  0.75477  0.96415  Biso   1.000  O
  O966     1.0000 0.42968  0.78921  0.88836  Biso   1.000  O
  C823     1.0000 0.39600  0.78620  0.16370  Biso   1.000  C
  C824     1.0000 0.41030  0.80610  0.17960  Biso   1.000  C
  C825     1.0000 0.40820  0.80780  0.20680  Biso   1.000  C
  C826     1.0000 0.38448  0.74150  0.07804  Biso   1.000  C
  C827     1.0000 0.38951  0.73401  0.04981  Biso   1.000  C
  C828     1.0000 0.40093  0.75219  0.03214  Biso   1.000  C
  O967     1.0000 0.90065  0.28381  0.14009  Biso   1.000  O
  O968     1.0000 0.87885  0.27153  0.17443  Biso   1.000  O
  O969     1.0000 0.93780  0.34320  0.26114  Biso   1.000  O
  O970     1.0000 0.89248  0.26280  0.08726  Biso   1.000  O
  O971     1.0000 0.87213  0.22565  0.09249  Biso   1.000  O
  O972     1.0000 0.92128  0.25477  0.96415  Biso   1.000  O
  O973     1.0000 0.92968  0.28921  0.88836  Biso   1.000  O
  C829     1.0000 0.89600  0.28620  0.16370  Biso   1.000  C
  C830     1.0000 0.91030  0.30610  0.17960  Biso   1.000  C
  C831     1.0000 0.90820  0.30780  0.20680  Biso   1.000  C
  C832     1.0000 0.88448  0.24150  0.07804  Biso   1.000  C
  C833     1.0000 0.88951  0.23401  0.04981  Biso   1.000  C
  C834     1.0000 0.90093  0.25219  0.03214  Biso   1.000  C
  O974     1.0000 0.90065  0.78381  0.64009  Biso   1.000  O
  O975     1.0000 0.87885  0.77153  0.67443  Biso   1.000  O
  O976     1.0000 0.93780  0.84320  0.76114  Biso   1.000  O
  O977     1.0000 0.89248  0.76280  0.58726  Biso   1.000  O
  O978     1.0000 0.87213  0.72565  0.59249  Biso   1.000  O
  O979     1.0000 0.92128  0.75477  0.46415  Biso   1.000  O
  O980     1.0000 0.92968  0.78921  0.38836  Biso   1.000  O
  C835     1.0000 0.89600  0.78620  0.66370  Biso   1.000  C
  C836     1.0000 0.91030  0.80610  0.67960  Biso   1.000  C
  C837     1.0000 0.90820  0.80780  0.70680  Biso   1.000  C
  C838     1.0000 0.88448  0.74150  0.57804  Biso   1.000  C
  C839     1.0000 0.88951  0.73401  0.54981  Biso   1.000  C
  C840     1.0000 0.90093  0.75219  0.53214  Biso   1.000  C
  O981     1.0000 0.34935  0.78381  0.60991  Biso   1.000  O
  O982     1.0000 0.37115  0.77153  0.57557  Biso   1.000  O
  O983     1.0000 0.31220  0.84320  0.48886  Biso   1.000  O
  O984     1.0000 0.35752  0.76280  0.66274  Biso   1.000  O
  O985     1.0000 0.37787  0.72565  0.65751  Biso   1.000  O
  O986     1.0000 0.32872  0.75477  0.78585  Biso   1.000  O
  O987     1.0000 0.32032  0.78921  0.86164  Biso   1.000  O
  C841     1.0000 0.35400  0.78620  0.58630  Biso   1.000  C
  C842     1.0000 0.33970  0.80610  0.57040  Biso   1.000  C
  C843     1.0000 0.34180  0.80780  0.54320  Biso   1.000  C
  C844     1.0000 0.36552  0.74150  0.67196  Biso   1.000  C
  C845     1.0000 0.36049  0.73401  0.70019  Biso   1.000  C
  C846     1.0000 0.34907  0.75219  0.71786  Biso   1.000  C
  O988     1.0000 0.34935  0.28381  0.10991  Biso   1.000  O
  O989     1.0000 0.37115  0.27153  0.07557  Biso   1.000  O
  O990     1.0000 0.31220  0.34320  0.98886  Biso   1.000  O
  O991     1.0000 0.35752  0.26280  0.16274  Biso   1.000  O
  O992     1.0000 0.37787  0.22565  0.15751  Biso   1.000  O
  O993     1.0000 0.32872  0.25477  0.28585  Biso   1.000  O
  O994     1.0000 0.32032  0.28921  0.36164  Biso   1.000  O
  C847     1.0000 0.35400  0.28620  0.08630  Biso   1.000  C
  C848     1.0000 0.33970  0.30610  0.07040  Biso   1.000  C
  C849     1.0000 0.34180  0.30780  0.04320  Biso   1.000  C
  C850     1.0000 0.36552  0.24150  0.17196  Biso   1.000  C
  C851     1.0000 0.36049  0.23401  0.20019  Biso   1.000  C
  C852     1.0000 0.34907  0.25219  0.21786  Biso   1.000  C
  O995     1.0000 0.84935  0.78381  0.10991  Biso   1.000  O
  O996     1.0000 0.87115  0.77153  0.07557  Biso   1.000  O
  O997     1.0000 0.81220  0.84320  0.98886  Biso   1.000  O
  O998     1.0000 0.85752  0.76280  0.16274  Biso   1.000  O
  O999     1.0000 0.87787  0.72565  0.15751  Biso   1.000  O
  O1000    1.0000 0.82872  0.75477  0.28585  Biso   1.000  O
  O1001    1.0000 0.82032  0.78921  0.36164  Biso   1.000  O
  C853     1.0000 0.85400  0.78620  0.08630  Biso   1.000  C
  C854     1.0000 0.83970  0.80610  0.07040  Biso   1.000  C
  C855     1.0000 0.84180  0.80780  0.04320  Biso   1.000  C
  C856     1.0000 0.86552  0.74150  0.17196  Biso   1.000  C
  C857     1.0000 0.86049  0.73401  0.20019  Biso   1.000  C
  C858     1.0000 0.84907  0.75219  0.21786  Biso   1.000  C
  O1002    1.0000 0.84935  0.28381  0.60991  Biso   1.000  O
  O1003    1.0000 0.87115  0.27153  0.57557  Biso   1.000  O
  O1004    1.0000 0.81220  0.34320  0.48886  Biso   1.000  O
  O1005    1.0000 0.85752  0.26280  0.66274  Biso   1.000  O
  O1006    1.0000 0.87787  0.22565  0.65751  Biso   1.000  O
  O1007    1.0000 0.82872  0.25477  0.78585  Biso   1.000  O
  O1008    1.0000 0.82032  0.28921  0.86164  Biso   1.000  O
  C859     1.0000 0.85400  0.28620  0.58630  Biso   1.000  C
  C860     1.0000 0.83970  0.30610  0.57040  Biso   1.000  C
  C861     1.0000 0.84180  0.30780  0.54320  Biso   1.000  C
  C862     1.0000 0.86552  0.24150  0.67196  Biso   1.000  C
  C863     1.0000 0.86049  0.23401  0.70019  Biso   1.000  C
  C864     1.0000 0.84907  0.25219  0.71786  Biso   1.000  C
  O1009    1.0000 0.15065  0.85991  0.53381  Biso   1.000  O
  O1010    1.0000 0.12885  0.82557  0.52153  Biso   1.000  O
  O1011    1.0000 0.18780  0.73886  0.59320  Biso   1.000  O
  O1012    1.0000 0.14248  0.91274  0.51280  Biso   1.000  O
  O1013    1.0000 0.12213  0.90751  0.47565  Biso   1.000  O
  O1014    1.0000 0.17128  0.03585  0.50477  Biso   1.000  O
  O1015    1.0000 0.17968  0.11164  0.53921  Biso   1.000  O
  C865     1.0000 0.14600  0.83630  0.53620  Biso   1.000  C
  C866     1.0000 0.16030  0.82040  0.55610  Biso   1.000  C
  C867     1.0000 0.15820  0.79320  0.55780  Biso   1.000  C
  C868     1.0000 0.13448  0.92196  0.49150  Biso   1.000  C
  C869     1.0000 0.13951  0.95019  0.48401  Biso   1.000  C
  C870     1.0000 0.15093  0.96786  0.50219  Biso   1.000  C
  O1016    1.0000 0.15065  0.35991  0.03381  Biso   1.000  O
  O1017    1.0000 0.12885  0.32557  0.02153  Biso   1.000  O
  O1018    1.0000 0.18780  0.23886  0.09320  Biso   1.000  O
  O1019    1.0000 0.14248  0.41274  0.01280  Biso   1.000  O
  O1020    1.0000 0.12213  0.40751  0.97565  Biso   1.000  O
  O1021    1.0000 0.17128  0.53585  0.00477  Biso   1.000  O
  O1022    1.0000 0.17968  0.61164  0.03921  Biso   1.000  O
  C871     1.0000 0.14600  0.33630  0.03620  Biso   1.000  C
  C872     1.0000 0.16030  0.32040  0.05610  Biso   1.000  C
  C873     1.0000 0.15820  0.29320  0.05780  Biso   1.000  C
  C874     1.0000 0.13448  0.42196  0.99150  Biso   1.000  C
  C875     1.0000 0.13951  0.45019  0.98401  Biso   1.000  C
  C876     1.0000 0.15093  0.46786  0.00219  Biso   1.000  C
  O1023    1.0000 0.65065  0.85991  0.03381  Biso   1.000  O
  O1024    1.0000 0.62885  0.82557  0.02153  Biso   1.000  O
  O1025    1.0000 0.68780  0.73886  0.09320  Biso   1.000  O
  O1026    1.0000 0.64248  0.91274  0.01280  Biso   1.000  O
  O1027    1.0000 0.62213  0.90751  0.97565  Biso   1.000  O
  O1028    1.0000 0.67128  0.03585  0.00477  Biso   1.000  O
  O1029    1.0000 0.67968  0.11164  0.03921  Biso   1.000  O
  C877     1.0000 0.64600  0.83630  0.03620  Biso   1.000  C
  C878     1.0000 0.66030  0.82040  0.05610  Biso   1.000  C
  C879     1.0000 0.65820  0.79320  0.05780  Biso   1.000  C
  C880     1.0000 0.63448  0.92196  0.99150  Biso   1.000  C
  C881     1.0000 0.63951  0.95019  0.98401  Biso   1.000  C
  C882     1.0000 0.65093  0.96786  0.00219  Biso   1.000  C
  O1030    1.0000 0.65065  0.35991  0.53381  Biso   1.000  O
  O1031    1.0000 0.62885  0.32557  0.52153  Biso   1.000  O
  O1032    1.0000 0.68780  0.23886  0.59320  Biso   1.000  O
  O1033    1.0000 0.64248  0.41274  0.51280  Biso   1.000  O
  O1034    1.0000 0.62213  0.40751  0.47565  Biso   1.000  O
  O1035    1.0000 0.67128  0.53585  0.50477  Biso   1.000  O
  O1036    1.0000 0.67968  0.61164  0.53921  Biso   1.000  O
  C883     1.0000 0.64600  0.33630  0.53620  Biso   1.000  C
  C884     1.0000 0.66030  0.32040  0.55610  Biso   1.000  C
  C885     1.0000 0.65820  0.29320  0.55780  Biso   1.000  C
  C886     1.0000 0.63448  0.42196  0.49150  Biso   1.000  C
  C887     1.0000 0.63951  0.45019  0.48401  Biso   1.000  C
  C888     1.0000 0.65093  0.46786  0.50219  Biso   1.000  C
  O1037    1.0000 0.09935  0.89009  0.03381  Biso   1.000  O
  O1038    1.0000 0.12115  0.92443  0.02153  Biso   1.000  O
  O1039    1.0000 0.06220  0.01114  0.09320  Biso   1.000  O
  O1040    1.0000 0.10752  0.83726  0.01280  Biso   1.000  O
  O1041    1.0000 0.12787  0.84249  0.97565  Biso   1.000  O
  O1042    1.0000 0.07872  0.71415  0.00477  Biso   1.000  O
  O1043    1.0000 0.07032  0.63836  0.03921  Biso   1.000  O
  C889     1.0000 0.10400  0.91370  0.03620  Biso   1.000  C
  C890     1.0000 0.08970  0.92960  0.05610  Biso   1.000  C
  C891     1.0000 0.09180  0.95680  0.05780  Biso   1.000  C
  C892     1.0000 0.11552  0.82804  0.99150  Biso   1.000  C
  C893     1.0000 0.11049  0.79981  0.98401  Biso   1.000  C
  C894     1.0000 0.09907  0.78214  0.00219  Biso   1.000  C
  O1044    1.0000 0.09935  0.39009  0.53381  Biso   1.000  O
  O1045    1.0000 0.12115  0.42443  0.52153  Biso   1.000  O
  O1046    1.0000 0.06220  0.51114  0.59320  Biso   1.000  O
  O1047    1.0000 0.10752  0.33726  0.51280  Biso   1.000  O
  O1048    1.0000 0.12787  0.34249  0.47565  Biso   1.000  O
  O1049    1.0000 0.07872  0.21415  0.50477  Biso   1.000  O
  O1050    1.0000 0.07032  0.13836  0.53921  Biso   1.000  O
  C895     1.0000 0.10400  0.41370  0.53620  Biso   1.000  C
  C896     1.0000 0.08970  0.42960  0.55610  Biso   1.000  C
  C897     1.0000 0.09180  0.45680  0.55780  Biso   1.000  C
  C898     1.0000 0.11552  0.32804  0.49150  Biso   1.000  C
  C899     1.0000 0.11049  0.29981  0.48401  Biso   1.000  C
  C900     1.0000 0.09907  0.28214  0.50219  Biso   1.000  C
  O1051    1.0000 0.59935  0.89009  0.53381  Biso   1.000  O
  O1052    1.0000 0.62115  0.92443  0.52153  Biso   1.000  O
  O1053    1.0000 0.56220  0.01114  0.59320  Biso   1.000  O
  O1054    1.0000 0.60752  0.83726  0.51280  Biso   1.000  O
  O1055    1.0000 0.62787  0.84249  0.47565  Biso   1.000  O
  O1056    1.0000 0.57872  0.71415  0.50477  Biso   1.000  O
  O1057    1.0000 0.57032  0.63836  0.53921  Biso   1.000  O
  C901     1.0000 0.60400  0.91370  0.53620  Biso   1.000  C
  C902     1.0000 0.58970  0.92960  0.55610  Biso   1.000  C
  C903     1.0000 0.59180  0.95680  0.55780  Biso   1.000  C
  C904     1.0000 0.61552  0.82804  0.49150  Biso   1.000  C
  C905     1.0000 0.61049  0.79981  0.48401  Biso   1.000  C
  C906     1.0000 0.59907  0.78214  0.50219  Biso   1.000  C
  O1058    1.0000 0.59935  0.39009  0.03381  Biso   1.000  O
  O1059    1.0000 0.62115  0.42443  0.02153  Biso   1.000  O
  O1060    1.0000 0.56220  0.51114  0.09320  Biso   1.000  O
  O1061    1.0000 0.60752  0.33726  0.01280  Biso   1.000  O
  O1062    1.0000 0.62787  0.34249  0.97565  Biso   1.000  O
  O1063    1.0000 0.57872  0.21415  0.00477  Biso   1.000  O
  O1064    1.0000 0.57032  0.13836  0.03921  Biso   1.000  O
  C907     1.0000 0.60400  0.41370  0.03620  Biso   1.000  C
  C908     1.0000 0.58970  0.42960  0.05610  Biso   1.000  C
  C909     1.0000 0.59180  0.45680  0.05780  Biso   1.000  C
  C910     1.0000 0.61552  0.32804  0.99150  Biso   1.000  C
  C911     1.0000 0.61049  0.29981  0.98401  Biso   1.000  C
  C912     1.0000 0.59907  0.28214  0.00219  Biso   1.000  C
  O1065    1.0000 0.65065  0.39009  0.21619  Biso   1.000  O
  O1066    1.0000 0.62885  0.42443  0.22847  Biso   1.000  O
  O1067    1.0000 0.68780  0.51114  0.15680  Biso   1.000  O
  O1068    1.0000 0.64248  0.33726  0.23720  Biso   1.000  O
  O1069    1.0000 0.62213  0.34249  0.27435  Biso   1.000  O
  O1070    1.0000 0.67128  0.21415  0.24523  Biso   1.000  O
  O1071    1.0000 0.67968  0.13836  0.21079  Biso   1.000  O
  C913     1.0000 0.64600  0.41370  0.21380  Biso   1.000  C
  C914     1.0000 0.66030  0.42960  0.19390  Biso   1.000  C
  C915     1.0000 0.65820  0.45680  0.19220  Biso   1.000  C
  C916     1.0000 0.63448  0.32804  0.25850  Biso   1.000  C
  C917     1.0000 0.63951  0.29981  0.26599  Biso   1.000  C
  C918     1.0000 0.65093  0.28214  0.24781  Biso   1.000  C
  O1072    1.0000 0.65065  0.89009  0.71619  Biso   1.000  O
  O1073    1.0000 0.62885  0.92443  0.72847  Biso   1.000  O
  O1074    1.0000 0.68780  0.01114  0.65680  Biso   1.000  O
  O1075    1.0000 0.64248  0.83726  0.73720  Biso   1.000  O
  O1076    1.0000 0.62213  0.84249  0.77435  Biso   1.000  O
  O1077    1.0000 0.67128  0.71415  0.74523  Biso   1.000  O
  O1078    1.0000 0.67968  0.63836  0.71079  Biso   1.000  O
  C919     1.0000 0.64600  0.91370  0.71380  Biso   1.000  C
  C920     1.0000 0.66030  0.92960  0.69390  Biso   1.000  C
  C921     1.0000 0.65820  0.95680  0.69220  Biso   1.000  C
  C922     1.0000 0.63448  0.82804  0.75850  Biso   1.000  C
  C923     1.0000 0.63951  0.79981  0.76599  Biso   1.000  C
  C924     1.0000 0.65093  0.78214  0.74781  Biso   1.000  C
  O1079    1.0000 0.15065  0.39009  0.71619  Biso   1.000  O
  O1080    1.0000 0.12885  0.42443  0.72847  Biso   1.000  O
  O1081    1.0000 0.18780  0.51114  0.65680  Biso   1.000  O
  O1082    1.0000 0.14248  0.33726  0.73720  Biso   1.000  O
  O1083    1.0000 0.12213  0.34249  0.77435  Biso   1.000  O
  O1084    1.0000 0.17128  0.21415  0.74523  Biso   1.000  O
  O1085    1.0000 0.17968  0.13836  0.71079  Biso   1.000  O
  C925     1.0000 0.14600  0.41370  0.71380  Biso   1.000  C
  C926     1.0000 0.16030  0.42960  0.69390  Biso   1.000  C
  C927     1.0000 0.15820  0.45680  0.69220  Biso   1.000  C
  C928     1.0000 0.13448  0.32804  0.75850  Biso   1.000  C
  C929     1.0000 0.13951  0.29981  0.76599  Biso   1.000  C
  C930     1.0000 0.15093  0.28214  0.74781  Biso   1.000  C
  O1086    1.0000 0.15065  0.89009  0.21619  Biso   1.000  O
  O1087    1.0000 0.12885  0.92443  0.22847  Biso   1.000  O
  O1088    1.0000 0.18780  0.01114  0.15680  Biso   1.000  O
  O1089    1.0000 0.14248  0.83726  0.23720  Biso   1.000  O
  O1090    1.0000 0.12213  0.84249  0.27435  Biso   1.000  O
  O1091    1.0000 0.17128  0.71415  0.24523  Biso   1.000  O
  O1092    1.0000 0.17968  0.63836  0.21079  Biso   1.000  O
  C931     1.0000 0.14600  0.91370  0.21380  Biso   1.000  C
  C932     1.0000 0.16030  0.92960  0.19390  Biso   1.000  C
  C933     1.0000 0.15820  0.95680  0.19220  Biso   1.000  C
  C934     1.0000 0.13448  0.82804  0.25850  Biso   1.000  C
  C935     1.0000 0.13951  0.79981  0.26599  Biso   1.000  C
  C936     1.0000 0.15093  0.78214  0.24781  Biso   1.000  C
  O1093    1.0000 0.59935  0.35991  0.71619  Biso   1.000  O
  O1094    1.0000 0.62115  0.32557  0.72847  Biso   1.000  O
  O1095    1.0000 0.56220  0.23886  0.65680  Biso   1.000  O
  O1096    1.0000 0.60752  0.41274  0.73720  Biso   1.000  O
  O1097    1.0000 0.62787  0.40751  0.77435  Biso   1.000  O
  O1098    1.0000 0.57872  0.53585  0.74523  Biso   1.000  O
  O1099    1.0000 0.57032  0.61164  0.71079  Biso   1.000  O
  C937     1.0000 0.60400  0.33630  0.71380  Biso   1.000  C
  C938     1.0000 0.58970  0.32040  0.69390  Biso   1.000  C
  C939     1.0000 0.59180  0.29320  0.69220  Biso   1.000  C
  C940     1.0000 0.61552  0.42196  0.75850  Biso   1.000  C
  C941     1.0000 0.61049  0.45019  0.76599  Biso   1.000  C
  C942     1.0000 0.59907  0.46786  0.74781  Biso   1.000  C
  O1100    1.0000 0.59935  0.85991  0.21619  Biso   1.000  O
  O1101    1.0000 0.62115  0.82557  0.22847  Biso   1.000  O
  O1102    1.0000 0.56220  0.73886  0.15680  Biso   1.000  O
  O1103    1.0000 0.60752  0.91274  0.23720  Biso   1.000  O
  O1104    1.0000 0.62787  0.90751  0.27435  Biso   1.000  O
  O1105    1.0000 0.57872  0.03585  0.24523  Biso   1.000  O
  O1106    1.0000 0.57032  0.11164  0.21079  Biso   1.000  O
  C943     1.0000 0.60400  0.83630  0.21380  Biso   1.000  C
  C944     1.0000 0.58970  0.82040  0.19390  Biso   1.000  C
  C945     1.0000 0.59180  0.79320  0.19220  Biso   1.000  C
  C946     1.0000 0.61552  0.92196  0.25850  Biso   1.000  C
  C947     1.0000 0.61049  0.95019  0.26599  Biso   1.000  C
  C948     1.0000 0.59907  0.96786  0.24781  Biso   1.000  C
  O1107    1.0000 0.09935  0.35991  0.21619  Biso   1.000  O
  O1108    1.0000 0.12115  0.32557  0.22847  Biso   1.000  O
  O1109    1.0000 0.06220  0.23886  0.15680  Biso   1.000  O
  O1110    1.0000 0.10752  0.41274  0.23720  Biso   1.000  O
  O1111    1.0000 0.12787  0.40751  0.27435  Biso   1.000  O
  O1112    1.0000 0.07872  0.53585  0.24523  Biso   1.000  O
  O1113    1.0000 0.07032  0.61164  0.21079  Biso   1.000  O
  C949     1.0000 0.10400  0.33630  0.21380  Biso   1.000  C
  C950     1.0000 0.08970  0.32040  0.19390  Biso   1.000  C
  C951     1.0000 0.09180  0.29320  0.19220  Biso   1.000  C
  C952     1.0000 0.11552  0.42196  0.25850  Biso   1.000  C
  C953     1.0000 0.11049  0.45019  0.26599  Biso   1.000  C
  C954     1.0000 0.09907  0.46786  0.24781  Biso   1.000  C
  O1114    1.0000 0.09935  0.85991  0.71619  Biso   1.000  O
  O1115    1.0000 0.12115  0.82557  0.72847  Biso   1.000  O
  O1116    1.0000 0.06220  0.73886  0.65680  Biso   1.000  O
  O1117    1.0000 0.10752  0.91274  0.73720  Biso   1.000  O
  O1118    1.0000 0.12787  0.90751  0.77435  Biso   1.000  O
  O1119    1.0000 0.07872  0.03585  0.74523  Biso   1.000  O
  O1120    1.0000 0.07032  0.11164  0.71079  Biso   1.000  O
  C955     1.0000 0.10400  0.83630  0.71380  Biso   1.000  C
  C956     1.0000 0.08970  0.82040  0.69390  Biso   1.000  C
  C957     1.0000 0.09180  0.79320  0.69220  Biso   1.000  C
  C958     1.0000 0.11552  0.92196  0.75850  Biso   1.000  C
  C959     1.0000 0.11049  0.95019  0.76599  Biso   1.000  C
  C960     1.0000 0.09907  0.96786  0.74781  Biso   1.000  C
  O1121    1.0000 0.35991  0.71619  0.59935  Biso   1.000  O
  O1122    1.0000 0.32557  0.72847  0.62115  Biso   1.000  O
  O1123    1.0000 0.23886  0.65680  0.56220  Biso   1.000  O
  O1124    1.0000 0.41274  0.73720  0.60752  Biso   1.000  O
  O1125    1.0000 0.40751  0.77435  0.62787  Biso   1.000  O
  O1126    1.0000 0.53585  0.74523  0.57872  Biso   1.000  O
  O1127    1.0000 0.61164  0.71079  0.57032  Biso   1.000  O
  C961     1.0000 0.33630  0.71380  0.60400  Biso   1.000  C
  C962     1.0000 0.32040  0.69390  0.58970  Biso   1.000  C
  C963     1.0000 0.29320  0.69220  0.59180  Biso   1.000  C
  C964     1.0000 0.42196  0.75850  0.61552  Biso   1.000  C
  C965     1.0000 0.45019  0.76599  0.61049  Biso   1.000  C
  C966     1.0000 0.46786  0.74781  0.59907  Biso   1.000  C
  O1128    1.0000 0.35991  0.21619  0.09935  Biso   1.000  O
  O1129    1.0000 0.32557  0.22847  0.12115  Biso   1.000  O
  O1130    1.0000 0.23886  0.15680  0.06220  Biso   1.000  O
  O1131    1.0000 0.41274  0.23720  0.10752  Biso   1.000  O
  O1132    1.0000 0.40751  0.27435  0.12787  Biso   1.000  O
  O1133    1.0000 0.53585  0.24523  0.07872  Biso   1.000  O
  O1134    1.0000 0.61164  0.21079  0.07032  Biso   1.000  O
  C967     1.0000 0.33630  0.21380  0.10400  Biso   1.000  C
  C968     1.0000 0.32040  0.19390  0.08970  Biso   1.000  C
  C969     1.0000 0.29320  0.19220  0.09180  Biso   1.000  C
  C970     1.0000 0.42196  0.25850  0.11552  Biso   1.000  C
  C971     1.0000 0.45019  0.26599  0.11049  Biso   1.000  C
  C972     1.0000 0.46786  0.24781  0.09907  Biso   1.000  C
  O1135    1.0000 0.85991  0.71619  0.09935  Biso   1.000  O
  O1136    1.0000 0.82557  0.72847  0.12115  Biso   1.000  O
  O1137    1.0000 0.73886  0.65680  0.06220  Biso   1.000  O
  O1138    1.0000 0.91274  0.73720  0.10752  Biso   1.000  O
  O1139    1.0000 0.90751  0.77435  0.12787  Biso   1.000  O
  O1140    1.0000 0.03585  0.74523  0.07872  Biso   1.000  O
  O1141    1.0000 0.11164  0.71079  0.07032  Biso   1.000  O
  C973     1.0000 0.83630  0.71380  0.10400  Biso   1.000  C
  C974     1.0000 0.82040  0.69390  0.08970  Biso   1.000  C
  C975     1.0000 0.79320  0.69220  0.09180  Biso   1.000  C
  C976     1.0000 0.92196  0.75850  0.11552  Biso   1.000  C
  C977     1.0000 0.95019  0.76599  0.11049  Biso   1.000  C
  C978     1.0000 0.96786  0.74781  0.09907  Biso   1.000  C
  O1142    1.0000 0.85991  0.21619  0.59935  Biso   1.000  O
  O1143    1.0000 0.82557  0.22847  0.62115  Biso   1.000  O
  O1144    1.0000 0.73886  0.15680  0.56220  Biso   1.000  O
  O1145    1.0000 0.91274  0.23720  0.60752  Biso   1.000  O
  O1146    1.0000 0.90751  0.27435  0.62787  Biso   1.000  O
  O1147    1.0000 0.03585  0.24523  0.57872  Biso   1.000  O
  O1148    1.0000 0.11164  0.21079  0.57032  Biso   1.000  O
  C979     1.0000 0.83630  0.21380  0.60400  Biso   1.000  C
  C980     1.0000 0.82040  0.19390  0.58970  Biso   1.000  C
  C981     1.0000 0.79320  0.19220  0.59180  Biso   1.000  C
  C982     1.0000 0.92196  0.25850  0.61552  Biso   1.000  C
  C983     1.0000 0.95019  0.26599  0.61049  Biso   1.000  C
  C984     1.0000 0.96786  0.24781  0.59907  Biso   1.000  C
  O1149    1.0000 0.39009  0.21619  0.65065  Biso   1.000  O
  O1150    1.0000 0.42443  0.22847  0.62885  Biso   1.000  O
  O1151    1.0000 0.51114  0.15680  0.68780  Biso   1.000  O
  O1152    1.0000 0.33726  0.23720  0.64248  Biso   1.000  O
  O1153    1.0000 0.34249  0.27435  0.62213  Biso   1.000  O
  O1154    1.0000 0.21415  0.24523  0.67128  Biso   1.000  O
  O1155    1.0000 0.13836  0.21079  0.67968  Biso   1.000  O
  C985     1.0000 0.41370  0.21380  0.64600  Biso   1.000  C
  C986     1.0000 0.42960  0.19390  0.66030  Biso   1.000  C
  C987     1.0000 0.45680  0.19220  0.65820  Biso   1.000  C
  C988     1.0000 0.32804  0.25850  0.63448  Biso   1.000  C
  C989     1.0000 0.29981  0.26599  0.63951  Biso   1.000  C
  C990     1.0000 0.28214  0.24781  0.65093  Biso   1.000  C
  O1156    1.0000 0.39009  0.71619  0.15065  Biso   1.000  O
  O1157    1.0000 0.42443  0.72847  0.12885  Biso   1.000  O
  O1158    1.0000 0.51114  0.65680  0.18780  Biso   1.000  O
  O1159    1.0000 0.33726  0.73720  0.14248  Biso   1.000  O
  O1160    1.0000 0.34249  0.77435  0.12213  Biso   1.000  O
  O1161    1.0000 0.21415  0.74523  0.17128  Biso   1.000  O
  O1162    1.0000 0.13836  0.71079  0.17968  Biso   1.000  O
  C991     1.0000 0.41370  0.71380  0.14600  Biso   1.000  C
  C992     1.0000 0.42960  0.69390  0.16030  Biso   1.000  C
  C993     1.0000 0.45680  0.69220  0.15820  Biso   1.000  C
  C994     1.0000 0.32804  0.75850  0.13448  Biso   1.000  C
  C995     1.0000 0.29981  0.76599  0.13951  Biso   1.000  C
  C996     1.0000 0.28214  0.74781  0.15093  Biso   1.000  C
  O1163    1.0000 0.89009  0.21619  0.15065  Biso   1.000  O
  O1164    1.0000 0.92443  0.22847  0.12885  Biso   1.000  O
  O1165    1.0000 0.01114  0.15680  0.18780  Biso   1.000  O
  O1166    1.0000 0.83726  0.23720  0.14248  Biso   1.000  O
  O1167    1.0000 0.84249  0.27435  0.12213  Biso   1.000  O
  O1168    1.0000 0.71415  0.24523  0.17128  Biso   1.000  O
  O1169    1.0000 0.63836  0.21079  0.17968  Biso   1.000  O
  C997     1.0000 0.91370  0.21380  0.14600  Biso   1.000  C
  C998     1.0000 0.92960  0.19390  0.16030  Biso   1.000  C
  C999     1.0000 0.95680  0.19220  0.15820  Biso   1.000  C
  C1000    1.0000 0.82804  0.25850  0.13448  Biso   1.000  C
  C1001    1.0000 0.79981  0.26599  0.13951  Biso   1.000  C
  C1002    1.0000 0.78214  0.24781  0.15093  Biso   1.000  C
  O1170    1.0000 0.89009  0.71619  0.65065  Biso   1.000  O
  O1171    1.0000 0.92443  0.72847  0.62885  Biso   1.000  O
  O1172    1.0000 0.01114  0.65680  0.68780  Biso   1.000  O
  O1173    1.0000 0.83726  0.73720  0.64248  Biso   1.000  O
  O1174    1.0000 0.84249  0.77435  0.62213  Biso   1.000  O
  O1175    1.0000 0.71415  0.74523  0.67128  Biso   1.000  O
  O1176    1.0000 0.63836  0.71079  0.67968  Biso   1.000  O
  C1003    1.0000 0.91370  0.71380  0.64600  Biso   1.000  C
  C1004    1.0000 0.92960  0.69390  0.66030  Biso   1.000  C
  C1005    1.0000 0.95680  0.69220  0.65820  Biso   1.000  C
  C1006    1.0000 0.82804  0.75850  0.63448  Biso   1.000  C
  C1007    1.0000 0.79981  0.76599  0.63951  Biso   1.000  C
  C1008    1.0000 0.78214  0.74781  0.65093  Biso   1.000  C
  O1177    1.0000 0.89009  0.03381  0.09935  Biso   1.000  O
  O1178    1.0000 0.92443  0.02153  0.12115  Biso   1.000  O
  O1179    1.0000 0.01114  0.09320  0.06220  Biso   1.000  O
  O1180    1.0000 0.83726  0.01280  0.10752  Biso   1.000  O
  O1181    1.0000 0.84249  0.97565  0.12787  Biso   1.000  O
  O1182    1.0000 0.71415  0.00477  0.07872  Biso   1.000  O
  O1183    1.0000 0.63836  0.03921  0.07032  Biso   1.000  O
  C1009    1.0000 0.91370  0.03620  0.10400  Biso   1.000  C
  C1010    1.0000 0.92960  0.05610  0.08970  Biso   1.000  C
  C1011    1.0000 0.95680  0.05780  0.09180  Biso   1.000  C
  C1012    1.0000 0.82804  0.99150  0.11552  Biso   1.000  C
  C1013    1.0000 0.79981  0.98401  0.11049  Biso   1.000  C
  C1014    1.0000 0.78214  0.00219  0.09907  Biso   1.000  C
  O1184    1.0000 0.89009  0.53381  0.59935  Biso   1.000  O
  O1185    1.0000 0.92443  0.52153  0.62115  Biso   1.000  O
  O1186    1.0000 0.01114  0.59320  0.56220  Biso   1.000  O
  O1187    1.0000 0.83726  0.51280  0.60752  Biso   1.000  O
  O1188    1.0000 0.84249  0.47565  0.62787  Biso   1.000  O
  O1189    1.0000 0.71415  0.50477  0.57872  Biso   1.000  O
  O1190    1.0000 0.63836  0.53921  0.57032  Biso   1.000  O
  C1015    1.0000 0.91370  0.53620  0.60400  Biso   1.000  C
  C1016    1.0000 0.92960  0.55610  0.58970  Biso   1.000  C
  C1017    1.0000 0.95680  0.55780  0.59180  Biso   1.000  C
  C1018    1.0000 0.82804  0.49150  0.61552  Biso   1.000  C
  C1019    1.0000 0.79981  0.48401  0.61049  Biso   1.000  C
  C1020    1.0000 0.78214  0.50219  0.59907  Biso   1.000  C
  O1191    1.0000 0.39009  0.03381  0.59935  Biso   1.000  O
  O1192    1.0000 0.42443  0.02153  0.62115  Biso   1.000  O
  O1193    1.0000 0.51114  0.09320  0.56220  Biso   1.000  O
  O1194    1.0000 0.33726  0.01280  0.60752  Biso   1.000  O
  O1195    1.0000 0.34249  0.97565  0.62787  Biso   1.000  O
  O1196    1.0000 0.21415  0.00477  0.57872  Biso   1.000  O
  O1197    1.0000 0.13836  0.03921  0.57032  Biso   1.000  O
  C1021    1.0000 0.41370  0.03620  0.60400  Biso   1.000  C
  C1022    1.0000 0.42960  0.05610  0.58970  Biso   1.000  C
  C1023    1.0000 0.45680  0.05780  0.59180  Biso   1.000  C
  C1024    1.0000 0.32804  0.99150  0.61552  Biso   1.000  C
  C1025    1.0000 0.29981  0.98401  0.61049  Biso   1.000  C
  C1026    1.0000 0.28214  0.00219  0.59907  Biso   1.000  C
  O1198    1.0000 0.39009  0.53381  0.09935  Biso   1.000  O
  O1199    1.0000 0.42443  0.52153  0.12115  Biso   1.000  O
  O1200    1.0000 0.51114  0.59320  0.06220  Biso   1.000  O
  O1201    1.0000 0.33726  0.51280  0.10752  Biso   1.000  O
  O1202    1.0000 0.34249  0.47565  0.12787  Biso   1.000  O
  O1203    1.0000 0.21415  0.50477  0.07872  Biso   1.000  O
  O1204    1.0000 0.13836  0.53921  0.07032  Biso   1.000  O
  C1027    1.0000 0.41370  0.53620  0.10400  Biso   1.000  C
  C1028    1.0000 0.42960  0.55610  0.08970  Biso   1.000  C
  C1029    1.0000 0.45680  0.55780  0.09180  Biso   1.000  C
  C1030    1.0000 0.32804  0.49150  0.11552  Biso   1.000  C
  C1031    1.0000 0.29981  0.48401  0.11049  Biso   1.000  C
  C1032    1.0000 0.28214  0.50219  0.09907  Biso   1.000  C
  O1205    1.0000 0.85991  0.53381  0.15065  Biso   1.000  O
  O1206    1.0000 0.82557  0.52153  0.12885  Biso   1.000  O
  O1207    1.0000 0.73886  0.59320  0.18780  Biso   1.000  O
  O1208    1.0000 0.91274  0.51280  0.14248  Biso   1.000  O
  O1209    1.0000 0.90751  0.47565  0.12213  Biso   1.000  O
  O1210    1.0000 0.03585  0.50477  0.17128  Biso   1.000  O
  O1211    1.0000 0.11164  0.53921  0.17968  Biso   1.000  O
  C1033    1.0000 0.83630  0.53620  0.14600  Biso   1.000  C
  C1034    1.0000 0.82040  0.55610  0.16030  Biso   1.000  C
  C1035    1.0000 0.79320  0.55780  0.15820  Biso   1.000  C
  C1036    1.0000 0.92196  0.49150  0.13448  Biso   1.000  C
  C1037    1.0000 0.95019  0.48401  0.13951  Biso   1.000  C
  C1038    1.0000 0.96786  0.50219  0.15093  Biso   1.000  C
  O1212    1.0000 0.85991  0.03381  0.65065  Biso   1.000  O
  O1213    1.0000 0.82557  0.02153  0.62885  Biso   1.000  O
  O1214    1.0000 0.73886  0.09320  0.68780  Biso   1.000  O
  O1215    1.0000 0.91274  0.01280  0.64248  Biso   1.000  O
  O1216    1.0000 0.90751  0.97565  0.62213  Biso   1.000  O
  O1217    1.0000 0.03585  0.00477  0.67128  Biso   1.000  O
  O1218    1.0000 0.11164  0.03921  0.67968  Biso   1.000  O
  C1039    1.0000 0.83630  0.03620  0.64600  Biso   1.000  C
  C1040    1.0000 0.82040  0.05610  0.66030  Biso   1.000  C
  C1041    1.0000 0.79320  0.05780  0.65820  Biso   1.000  C
  C1042    1.0000 0.92196  0.99150  0.63448  Biso   1.000  C
  C1043    1.0000 0.95019  0.98401  0.63951  Biso   1.000  C
  C1044    1.0000 0.96786  0.00219  0.65093  Biso   1.000  C
  O1219    1.0000 0.35991  0.53381  0.65065  Biso   1.000  O
  O1220    1.0000 0.32557  0.52153  0.62885  Biso   1.000  O
  O1221    1.0000 0.23886  0.59320  0.68780  Biso   1.000  O
  O1222    1.0000 0.41274  0.51280  0.64248  Biso   1.000  O
  O1223    1.0000 0.40751  0.47565  0.62213  Biso   1.000  O
  O1224    1.0000 0.53585  0.50477  0.67128  Biso   1.000  O
  O1225    1.0000 0.61164  0.53921  0.67968  Biso   1.000  O
  C1045    1.0000 0.33630  0.53620  0.64600  Biso   1.000  C
  C1046    1.0000 0.32040  0.55610  0.66030  Biso   1.000  C
  C1047    1.0000 0.29320  0.55780  0.65820  Biso   1.000  C
  C1048    1.0000 0.42196  0.49150  0.63448  Biso   1.000  C
  C1049    1.0000 0.45019  0.48401  0.63951  Biso   1.000  C
  C1050    1.0000 0.46786  0.50219  0.65093  Biso   1.000  C
  O1226    1.0000 0.35991  0.03381  0.15065  Biso   1.000  O
  O1227    1.0000 0.32557  0.02153  0.12885  Biso   1.000  O
  O1228    1.0000 0.23886  0.09320  0.18780  Biso   1.000  O
  O1229    1.0000 0.41274  0.01280  0.14248  Biso   1.000  O
  O1230    1.0000 0.40751  0.97565  0.12213  Biso   1.000  O
  O1231    1.0000 0.53585  0.00477  0.17128  Biso   1.000  O
  O1232    1.0000 0.61164  0.03921  0.17968  Biso   1.000  O
  C1051    1.0000 0.33630  0.03620  0.14600  Biso   1.000  C
  C1052    1.0000 0.32040  0.05610  0.16030  Biso   1.000  C
  C1053    1.0000 0.29320  0.05780  0.15820  Biso   1.000  C
  C1054    1.0000 0.42196  0.99150  0.13448  Biso   1.000  C
  C1055    1.0000 0.45019  0.98401  0.13951  Biso   1.000  C
  C1056    1.0000 0.46786  0.00219  0.15093  Biso   1.000  C
  O1233    1.0000 0.21619  0.65065  0.39009  Biso   1.000  O
  O1234    1.0000 0.22847  0.62885  0.42443  Biso   1.000  O
  O1235    1.0000 0.15680  0.68780  0.51114  Biso   1.000  O
  O1236    1.0000 0.23720  0.64248  0.33726  Biso   1.000  O
  O1237    1.0000 0.27435  0.62213  0.34249  Biso   1.000  O
  O1238    1.0000 0.24523  0.67128  0.21415  Biso   1.000  O
  O1239    1.0000 0.21079  0.67968  0.13836  Biso   1.000  O
  C1057    1.0000 0.21380  0.64600  0.41370  Biso   1.000  C
  C1058    1.0000 0.19390  0.66030  0.42960  Biso   1.000  C
  C1059    1.0000 0.19220  0.65820  0.45680  Biso   1.000  C
  C1060    1.0000 0.25850  0.63448  0.32804  Biso   1.000  C
  C1061    1.0000 0.26599  0.63951  0.29981  Biso   1.000  C
  C1062    1.0000 0.24781  0.65093  0.28214  Biso   1.000  C
  O1240    1.0000 0.21619  0.15065  0.89009  Biso   1.000  O
  O1241    1.0000 0.22847  0.12885  0.92443  Biso   1.000  O
  O1242    1.0000 0.15680  0.18780  0.01114  Biso   1.000  O
  O1243    1.0000 0.23720  0.14248  0.83726  Biso   1.000  O
  O1244    1.0000 0.27435  0.12213  0.84249  Biso   1.000  O
  O1245    1.0000 0.24523  0.17128  0.71415  Biso   1.000  O
  O1246    1.0000 0.21079  0.17968  0.63836  Biso   1.000  O
  C1063    1.0000 0.21380  0.14600  0.91370  Biso   1.000  C
  C1064    1.0000 0.19390  0.16030  0.92960  Biso   1.000  C
  C1065    1.0000 0.19220  0.15820  0.95680  Biso   1.000  C
  C1066    1.0000 0.25850  0.13448  0.82804  Biso   1.000  C
  C1067    1.0000 0.26599  0.13951  0.79981  Biso   1.000  C
  C1068    1.0000 0.24781  0.15093  0.78214  Biso   1.000  C
  O1247    1.0000 0.71619  0.65065  0.89009  Biso   1.000  O
  O1248    1.0000 0.72847  0.62885  0.92443  Biso   1.000  O
  O1249    1.0000 0.65680  0.68780  0.01114  Biso   1.000  O
  O1250    1.0000 0.73720  0.64248  0.83726  Biso   1.000  O
  O1251    1.0000 0.77435  0.62213  0.84249  Biso   1.000  O
  O1252    1.0000 0.74523  0.67128  0.71415  Biso   1.000  O
  O1253    1.0000 0.71079  0.67968  0.63836  Biso   1.000  O
  C1069    1.0000 0.71380  0.64600  0.91370  Biso   1.000  C
  C1070    1.0000 0.69390  0.66030  0.92960  Biso   1.000  C
  C1071    1.0000 0.69220  0.65820  0.95680  Biso   1.000  C
  C1072    1.0000 0.75850  0.63448  0.82804  Biso   1.000  C
  C1073    1.0000 0.76599  0.63951  0.79981  Biso   1.000  C
  C1074    1.0000 0.74781  0.65093  0.78214  Biso   1.000  C
  O1254    1.0000 0.71619  0.15065  0.39009  Biso   1.000  O
  O1255    1.0000 0.72847  0.12885  0.42443  Biso   1.000  O
  O1256    1.0000 0.65680  0.18780  0.51114  Biso   1.000  O
  O1257    1.0000 0.73720  0.14248  0.33726  Biso   1.000  O
  O1258    1.0000 0.77435  0.12213  0.34249  Biso   1.000  O
  O1259    1.0000 0.74523  0.17128  0.21415  Biso   1.000  O
  O1260    1.0000 0.71079  0.17968  0.13836  Biso   1.000  O
  C1075    1.0000 0.71380  0.14600  0.41370  Biso   1.000  C
  C1076    1.0000 0.69390  0.16030  0.42960  Biso   1.000  C
  C1077    1.0000 0.69220  0.15820  0.45680  Biso   1.000  C
  C1078    1.0000 0.75850  0.13448  0.32804  Biso   1.000  C
  C1079    1.0000 0.76599  0.13951  0.29981  Biso   1.000  C
  C1080    1.0000 0.74781  0.15093  0.28214  Biso   1.000  C
  O1261    1.0000 0.71619  0.59935  0.35991  Biso   1.000  O
  O1262    1.0000 0.72847  0.62115  0.32557  Biso   1.000  O
  O1263    1.0000 0.65680  0.56220  0.23886  Biso   1.000  O
  O1264    1.0000 0.73720  0.60752  0.41274  Biso   1.000  O
  O1265    1.0000 0.77435  0.62787  0.40751  Biso   1.000  O
  O1266    1.0000 0.74523  0.57872  0.53585  Biso   1.000  O
  O1267    1.0000 0.71079  0.57032  0.61164  Biso   1.000  O
  C1081    1.0000 0.71380  0.60400  0.33630  Biso   1.000  C
  C1082    1.0000 0.69390  0.58970  0.32040  Biso   1.000  C
  C1083    1.0000 0.69220  0.59180  0.29320  Biso   1.000  C
  C1084    1.0000 0.75850  0.61552  0.42196  Biso   1.000  C
  C1085    1.0000 0.76599  0.61049  0.45019  Biso   1.000  C
  C1086    1.0000 0.74781  0.59907  0.46786  Biso   1.000  C
  O1268    1.0000 0.71619  0.09935  0.85991  Biso   1.000  O
  O1269    1.0000 0.72847  0.12115  0.82557  Biso   1.000  O
  O1270    1.0000 0.65680  0.06220  0.73886  Biso   1.000  O
  O1271    1.0000 0.73720  0.10752  0.91274  Biso   1.000  O
  O1272    1.0000 0.77435  0.12787  0.90751  Biso   1.000  O
  O1273    1.0000 0.74523  0.07872  0.03585  Biso   1.000  O
  O1274    1.0000 0.71079  0.07032  0.11164  Biso   1.000  O
  C1087    1.0000 0.71380  0.10400  0.83630  Biso   1.000  C
  C1088    1.0000 0.69390  0.08970  0.82040  Biso   1.000  C
  C1089    1.0000 0.69220  0.09180  0.79320  Biso   1.000  C
  C1090    1.0000 0.75850  0.11552  0.92196  Biso   1.000  C
  C1091    1.0000 0.76599  0.11049  0.95019  Biso   1.000  C
  C1092    1.0000 0.74781  0.09907  0.96786  Biso   1.000  C
  O1275    1.0000 0.21619  0.59935  0.85991  Biso   1.000  O
  O1276    1.0000 0.22847  0.62115  0.82557  Biso   1.000  O
  O1277    1.0000 0.15680  0.56220  0.73886  Biso   1.000  O
  O1278    1.0000 0.23720  0.60752  0.91274  Biso   1.000  O
  O1279    1.0000 0.27435  0.62787  0.90751  Biso   1.000  O
  O1280    1.0000 0.24523  0.57872  0.03585  Biso   1.000  O
  O1281    1.0000 0.21079  0.57032  0.11164  Biso   1.000  O
  C1093    1.0000 0.21380  0.60400  0.83630  Biso   1.000  C
  C1094    1.0000 0.19390  0.58970  0.82040  Biso   1.000  C
  C1095    1.0000 0.19220  0.59180  0.79320  Biso   1.000  C
  C1096    1.0000 0.25850  0.61552  0.92196  Biso   1.000  C
  C1097    1.0000 0.26599  0.61049  0.95019  Biso   1.000  C
  C1098    1.0000 0.24781  0.59907  0.96786  Biso   1.000  C
  O1282    1.0000 0.21619  0.09935  0.35991  Biso   1.000  O
  O1283    1.0000 0.22847  0.12115  0.32557  Biso   1.000  O
  O1284    1.0000 0.15680  0.06220  0.23886  Biso   1.000  O
  O1285    1.0000 0.23720  0.10752  0.41274  Biso   1.000  O
  O1286    1.0000 0.27435  0.12787  0.40751  Biso   1.000  O
  O1287    1.0000 0.24523  0.07872  0.53585  Biso   1.000  O
  O1288    1.0000 0.21079  0.07032  0.61164  Biso   1.000  O
  C1099    1.0000 0.21380  0.10400  0.33630  Biso   1.000  C
  C1100    1.0000 0.19390  0.08970  0.32040  Biso   1.000  C
  C1101    1.0000 0.19220  0.09180  0.29320  Biso   1.000  C
  C1102    1.0000 0.25850  0.11552  0.42196  Biso   1.000  C
  C1103    1.0000 0.26599  0.11049  0.45019  Biso   1.000  C
  C1104    1.0000 0.24781  0.09907  0.46786  Biso   1.000  C
  O1289    1.0000 0.53381  0.15065  0.85991  Biso   1.000  O
  O1290    1.0000 0.52153  0.12885  0.82557  Biso   1.000  O
  O1291    1.0000 0.59320  0.18780  0.73886  Biso   1.000  O
  O1292    1.0000 0.51280  0.14248  0.91274  Biso   1.000  O
  O1293    1.0000 0.47565  0.12213  0.90751  Biso   1.000  O
  O1294    1.0000 0.50477  0.17128  0.03585  Biso   1.000  O
  O1295    1.0000 0.53921  0.17968  0.11164  Biso   1.000  O
  C1105    1.0000 0.53620  0.14600  0.83630  Biso   1.000  C
  C1106    1.0000 0.55610  0.16030  0.82040  Biso   1.000  C
  C1107    1.0000 0.55780  0.15820  0.79320  Biso   1.000  C
  C1108    1.0000 0.49150  0.13448  0.92196  Biso   1.000  C
  C1109    1.0000 0.48401  0.13951  0.95019  Biso   1.000  C
  C1110    1.0000 0.50219  0.15093  0.96786  Biso   1.000  C
  O1296    1.0000 0.53381  0.65065  0.35991  Biso   1.000  O
  O1297    1.0000 0.52153  0.62885  0.32557  Biso   1.000  O
  O1298    1.0000 0.59320  0.68780  0.23886  Biso   1.000  O
  O1299    1.0000 0.51280  0.64248  0.41274  Biso   1.000  O
  O1300    1.0000 0.47565  0.62213  0.40751  Biso   1.000  O
  O1301    1.0000 0.50477  0.67128  0.53585  Biso   1.000  O
  O1302    1.0000 0.53921  0.67968  0.61164  Biso   1.000  O
  C1111    1.0000 0.53620  0.64600  0.33630  Biso   1.000  C
  C1112    1.0000 0.55610  0.66030  0.32040  Biso   1.000  C
  C1113    1.0000 0.55780  0.65820  0.29320  Biso   1.000  C
  C1114    1.0000 0.49150  0.63448  0.42196  Biso   1.000  C
  C1115    1.0000 0.48401  0.63951  0.45019  Biso   1.000  C
  C1116    1.0000 0.50219  0.65093  0.46786  Biso   1.000  C
  O1303    1.0000 0.03381  0.15065  0.35991  Biso   1.000  O
  O1304    1.0000 0.02153  0.12885  0.32557  Biso   1.000  O
  O1305    1.0000 0.09320  0.18780  0.23886  Biso   1.000  O
  O1306    1.0000 0.01280  0.14248  0.41274  Biso   1.000  O
  O1307    1.0000 0.97565  0.12213  0.40751  Biso   1.000  O
  O1308    1.0000 0.00477  0.17128  0.53585  Biso   1.000  O
  O1309    1.0000 0.03921  0.17968  0.61164  Biso   1.000  O
  C1117    1.0000 0.03620  0.14600  0.33630  Biso   1.000  C
  C1118    1.0000 0.05610  0.16030  0.32040  Biso   1.000  C
  C1119    1.0000 0.05780  0.15820  0.29320  Biso   1.000  C
  C1120    1.0000 0.99150  0.13448  0.42196  Biso   1.000  C
  C1121    1.0000 0.98401  0.13951  0.45019  Biso   1.000  C
  C1122    1.0000 0.00219  0.15093  0.46786  Biso   1.000  C
  O1310    1.0000 0.03381  0.65065  0.85991  Biso   1.000  O
  O1311    1.0000 0.02153  0.62885  0.82557  Biso   1.000  O
  O1312    1.0000 0.09320  0.68780  0.73886  Biso   1.000  O
  O1313    1.0000 0.01280  0.64248  0.91274  Biso   1.000  O
  O1314    1.0000 0.97565  0.62213  0.90751  Biso   1.000  O
  O1315    1.0000 0.00477  0.67128  0.03585  Biso   1.000  O
  O1316    1.0000 0.03921  0.67968  0.11164  Biso   1.000  O
  C1123    1.0000 0.03620  0.64600  0.83630  Biso   1.000  C
  C1124    1.0000 0.05610  0.66030  0.82040  Biso   1.000  C
  C1125    1.0000 0.05780  0.65820  0.79320  Biso   1.000  C
  C1126    1.0000 0.99150  0.63448  0.92196  Biso   1.000  C
  C1127    1.0000 0.98401  0.63951  0.95019  Biso   1.000  C
  C1128    1.0000 0.00219  0.65093  0.96786  Biso   1.000  C
  O1317    1.0000 0.03381  0.09935  0.89009  Biso   1.000  O
  O1318    1.0000 0.02153  0.12115  0.92443  Biso   1.000  O
  O1319    1.0000 0.09320  0.06220  0.01114  Biso   1.000  O
  O1320    1.0000 0.01280  0.10752  0.83726  Biso   1.000  O
  O1321    1.0000 0.97565  0.12787  0.84249  Biso   1.000  O
  O1322    1.0000 0.00477  0.07872  0.71415  Biso   1.000  O
  O1323    1.0000 0.03921  0.07032  0.63836  Biso   1.000  O
  C1129    1.0000 0.03620  0.10400  0.91370  Biso   1.000  C
  C1130    1.0000 0.05610  0.08970  0.92960  Biso   1.000  C
  C1131    1.0000 0.05780  0.09180  0.95680  Biso   1.000  C
  C1132    1.0000 0.99150  0.11552  0.82804  Biso   1.000  C
  C1133    1.0000 0.98401  0.11049  0.79981  Biso   1.000  C
  C1134    1.0000 0.00219  0.09907  0.78214  Biso   1.000  C
  O1324    1.0000 0.03381  0.59935  0.39009  Biso   1.000  O
  O1325    1.0000 0.02153  0.62115  0.42443  Biso   1.000  O
  O1326    1.0000 0.09320  0.56220  0.51114  Biso   1.000  O
  O1327    1.0000 0.01280  0.60752  0.33726  Biso   1.000  O
  O1328    1.0000 0.97565  0.62787  0.34249  Biso   1.000  O
  O1329    1.0000 0.00477  0.57872  0.21415  Biso   1.000  O
  O1330    1.0000 0.03921  0.57032  0.13836  Biso   1.000  O
  C1135    1.0000 0.03620  0.60400  0.41370  Biso   1.000  C
  C1136    1.0000 0.05610  0.58970  0.42960  Biso   1.000  C
  C1137    1.0000 0.05780  0.59180  0.45680  Biso   1.000  C
  C1138    1.0000 0.99150  0.61552  0.32804  Biso   1.000  C
  C1139    1.0000 0.98401  0.61049  0.29981  Biso   1.000  C
  C1140    1.0000 0.00219  0.59907  0.28214  Biso   1.000  C
  O1331    1.0000 0.53381  0.09935  0.39009  Biso   1.000  O
  O1332    1.0000 0.52153  0.12115  0.42443  Biso   1.000  O
  O1333    1.0000 0.59320  0.06220  0.51114  Biso   1.000  O
  O1334    1.0000 0.51280  0.10752  0.33726  Biso   1.000  O
  O1335    1.0000 0.47565  0.12787  0.34249  Biso   1.000  O
  O1336    1.0000 0.50477  0.07872  0.21415  Biso   1.000  O
  O1337    1.0000 0.53921  0.07032  0.13836  Biso   1.000  O
  C1141    1.0000 0.53620  0.10400  0.41370  Biso   1.000  C
  C1142    1.0000 0.55610  0.08970  0.42960  Biso   1.000  C
  C1143    1.0000 0.55780  0.09180  0.45680  Biso   1.000  C
  C1144    1.0000 0.49150  0.11552  0.32804  Biso   1.000  C
  C1145    1.0000 0.48401  0.11049  0.29981  Biso   1.000  C
  C1146    1.0000 0.50219  0.09907  0.28214  Biso   1.000  C
  O1338    1.0000 0.53381  0.59935  0.89009  Biso   1.000  O
  O1339    1.0000 0.52153  0.62115  0.92443  Biso   1.000  O
  O1340    1.0000 0.59320  0.56220  0.01114  Biso   1.000  O
  O1341    1.0000 0.51280  0.60752  0.83726  Biso   1.000  O
  O1342    1.0000 0.47565  0.62787  0.84249  Biso   1.000  O
  O1343    1.0000 0.50477  0.57872  0.71415  Biso   1.000  O
  O1344    1.0000 0.53921  0.57032  0.63836  Biso   1.000  O
  C1147    1.0000 0.53620  0.60400  0.91370  Biso   1.000  C
  C1148    1.0000 0.55610  0.58970  0.92960  Biso   1.000  C
  C1149    1.0000 0.55780  0.59180  0.95680  Biso   1.000  C
  C1150    1.0000 0.49150  0.61552  0.82804  Biso   1.000  C
  C1151    1.0000 0.48401  0.61049  0.79981  Biso   1.000  C
  C1152    1.0000 0.50219  0.59907  0.78214  Biso   1.000  C
  In1      1.0000 0.87809  0.12191  0.00000  Biso   1.000  In
  In2      1.0000 0.87809  0.62191  0.50000  Biso   1.000  In
  In3      1.0000 0.37809  0.12191  0.50000  Biso   1.000  In
  In4      1.0000 0.37809  0.62191  0.00000  Biso   1.000  In
  In5      1.0000 0.87191  0.12809  0.50000  Biso   1.000  In
  In6      1.0000 0.87191  0.62809  0.00000  Biso   1.000  In
  In7      1.0000 0.37191  0.12809  0.00000  Biso   1.000  In
  In8      1.0000 0.37191  0.62809  0.50000  Biso   1.000  In
  In9      1.0000 0.37191  0.62191  0.75000  Biso   1.000  In
  In10     1.0000 0.37191  0.12191  0.25000  Biso   1.000  In
  In11     1.0000 0.87191  0.62191  0.25000  Biso   1.000  In
  In12     1.0000 0.87191  0.12191  0.75000  Biso   1.000  In
  In13     1.0000 0.37809  0.62809  0.25000  Biso   1.000  In
  In14     1.0000 0.37809  0.12809  0.75000  Biso   1.000  In
  In15     1.0000 0.87809  0.62809  0.75000  Biso   1.000  In
  In16     1.0000 0.87809  0.12809  0.25000  Biso   1.000  In
  In17     1.0000 0.00000  0.87809  0.12191  Biso   1.000  In
  In18     1.0000 0.00000  0.37809  0.62191  Biso   1.000  In
  In19     1.0000 0.50000  0.87809  0.62191  Biso   1.000  In
  In20     1.0000 0.50000  0.37809  0.12191  Biso   1.000  In
  In21     1.0000 0.50000  0.87191  0.12809  Biso   1.000  In
  In22     1.0000 0.50000  0.37191  0.62809  Biso   1.000  In
  In23     1.0000 0.00000  0.87191  0.62809  Biso   1.000  In
  In24     1.0000 0.00000  0.37191  0.12809  Biso   1.000  In
  In25     1.0000 0.75000  0.37191  0.62191  Biso   1.000  In
  In26     1.0000 0.75000  0.87191  0.12191  Biso   1.000  In
  In27     1.0000 0.25000  0.37191  0.12191  Biso   1.000  In
  In28     1.0000 0.25000  0.87191  0.62191  Biso   1.000  In
  In29     1.0000 0.25000  0.37809  0.62809  Biso   1.000  In
  In30     1.0000 0.25000  0.87809  0.12809  Biso   1.000  In
  In31     1.0000 0.75000  0.37809  0.12809  Biso   1.000  In
  In32     1.0000 0.75000  0.87809  0.62809  Biso   1.000  In
  In33     1.0000 0.12191  0.00000  0.87809  Biso   1.000  In
  In34     1.0000 0.12191  0.50000  0.37809  Biso   1.000  In
  In35     1.0000 0.62191  0.00000  0.37809  Biso   1.000  In
  In36     1.0000 0.62191  0.50000  0.87809  Biso   1.000  In
  In37     1.0000 0.12809  0.50000  0.87191  Biso   1.000  In
  In38     1.0000 0.12809  0.00000  0.37191  Biso   1.000  In
  In39     1.0000 0.62809  0.50000  0.37191  Biso   1.000  In
  In40     1.0000 0.62809  0.00000  0.87191  Biso   1.000  In
  In41     1.0000 0.62191  0.75000  0.37191  Biso   1.000  In
  In42     1.0000 0.62191  0.25000  0.87191  Biso   1.000  In
  In43     1.0000 0.12191  0.75000  0.87191  Biso   1.000  In
  In44     1.0000 0.12191  0.25000  0.37191  Biso   1.000  In
  In45     1.0000 0.62809  0.25000  0.37809  Biso   1.000  In
  In46     1.0000 0.62809  0.75000  0.87809  Biso   1.000  In
  In47     1.0000 0.12809  0.25000  0.87809  Biso   1.000  In
  In48     1.0000 0.12809  0.75000  0.37809  Biso   1.000  In
  In49     1.0000 0.12191  0.87809  0.00000  Biso   1.000  In
  In50     1.0000 0.12191  0.37809  0.50000  Biso   1.000  In
  In51     1.0000 0.62191  0.87809  0.50000  Biso   1.000  In
  In52     1.0000 0.62191  0.37809  0.00000  Biso   1.000  In
  In53     1.0000 0.12809  0.87191  0.50000  Biso   1.000  In
  In54     1.0000 0.12809  0.37191  0.00000  Biso   1.000  In
  In55     1.0000 0.62809  0.87191  0.00000  Biso   1.000  In
  In56     1.0000 0.62809  0.37191  0.50000  Biso   1.000  In
  In57     1.0000 0.62809  0.37809  0.25000  Biso   1.000  In
  In58     1.0000 0.62809  0.87809  0.75000  Biso   1.000  In
  In59     1.0000 0.12809  0.37809  0.75000  Biso   1.000  In
  In60     1.0000 0.12809  0.87809  0.25000  Biso   1.000  In
  In61     1.0000 0.62191  0.37191  0.75000  Biso   1.000  In
  In62     1.0000 0.62191  0.87191  0.25000  Biso   1.000  In
  In63     1.0000 0.12191  0.37191  0.25000  Biso   1.000  In
  In64     1.0000 0.12191  0.87191  0.75000  Biso   1.000  In
  In65     1.0000 0.00000  0.12191  0.87809  Biso   1.000  In
  In66     1.0000 0.00000  0.62191  0.37809  Biso   1.000  In
  In67     1.0000 0.50000  0.12191  0.37809  Biso   1.000  In
  In68     1.0000 0.50000  0.62191  0.87809  Biso   1.000  In
  In69     1.0000 0.50000  0.12809  0.87191  Biso   1.000  In
  In70     1.0000 0.50000  0.62809  0.37191  Biso   1.000  In
  In71     1.0000 0.00000  0.12809  0.37191  Biso   1.000  In
  In72     1.0000 0.00000  0.62809  0.87191  Biso   1.000  In
  In73     1.0000 0.25000  0.62809  0.37809  Biso   1.000  In
  In74     1.0000 0.25000  0.12809  0.87809  Biso   1.000  In
  In75     1.0000 0.75000  0.62809  0.87809  Biso   1.000  In
  In76     1.0000 0.75000  0.12809  0.37809  Biso   1.000  In
  In77     1.0000 0.75000  0.62191  0.37191  Biso   1.000  In
  In78     1.0000 0.75000  0.12191  0.87191  Biso   1.000  In
  In79     1.0000 0.25000  0.62191  0.87191  Biso   1.000  In
  In80     1.0000 0.25000  0.12191  0.37191  Biso   1.000  In
  In81     1.0000 0.87809  0.00000  0.12191  Biso   1.000  In
  In82     1.0000 0.87809  0.50000  0.62191  Biso   1.000  In
  In83     1.0000 0.37809  0.00000  0.62191  Biso   1.000  In
  In84     1.0000 0.37809  0.50000  0.12191  Biso   1.000  In
  In85     1.0000 0.87191  0.50000  0.12809  Biso   1.000  In
  In86     1.0000 0.87191  0.00000  0.62809  Biso   1.000  In
  In87     1.0000 0.37191  0.50000  0.62809  Biso   1.000  In
  In88     1.0000 0.37191  0.00000  0.12809  Biso   1.000  In
  In89     1.0000 0.37809  0.25000  0.62809  Biso   1.000  In
  In90     1.0000 0.37809  0.75000  0.12809  Biso   1.000  In
  In91     1.0000 0.87809  0.25000  0.12809  Biso   1.000  In
  In92     1.0000 0.87809  0.75000  0.62809  Biso   1.000  In
  In93     1.0000 0.37191  0.75000  0.62191  Biso   1.000  In
  In94     1.0000 0.37191  0.25000  0.12191  Biso   1.000  In
  In95     1.0000 0.87191  0.75000  0.12191  Biso   1.000  In
  In96     1.0000 0.87191  0.25000  0.62191  Biso   1.000  In
  Co1      1.0000 0.67661  0.07339  0.02312  Biso   1.000  Co
  Co2      1.0000 0.67661  0.57339  0.52312  Biso   1.000  Co
  Co3      1.0000 0.07339  0.17661  0.52312  Biso   1.000  Co
  Co4      1.0000 0.57339  0.17661  0.02312  Biso   1.000  Co
  Co5      1.0000 0.57339  0.67661  0.52312  Biso   1.000  Co
  Co6      1.0000 0.57339  0.57339  0.72688  Biso   1.000  Co
  Co7      1.0000 0.57339  0.07339  0.22688  Biso   1.000  Co
  Co8      1.0000 0.07339  0.57339  0.22688  Biso   1.000  Co
  Co9      1.0000 0.07339  0.07339  0.72688  Biso   1.000  Co
  Co10     1.0000 0.17661  0.67661  0.22688  Biso   1.000  Co
  Co11     1.0000 0.17661  0.17661  0.72688  Biso   1.000  Co
  Co12     1.0000 0.02312  0.67661  0.07339  Biso   1.000  Co
  Co13     1.0000 0.02312  0.17661  0.57339  Biso   1.000  Co
  Co14     1.0000 0.52312  0.67661  0.57339  Biso   1.000  Co
  Co15     1.0000 0.52312  0.07339  0.17661  Biso   1.000  Co
  Co16     1.0000 0.52312  0.57339  0.67661  Biso   1.000  Co
  Co17     1.0000 0.72688  0.57339  0.57339  Biso   1.000  Co
  Co18     1.0000 0.72688  0.07339  0.07339  Biso   1.000  Co
  Co19     1.0000 0.22688  0.57339  0.07339  Biso   1.000  Co
  Co20     1.0000 0.22688  0.07339  0.57339  Biso   1.000  Co
  Co21     1.0000 0.22688  0.17661  0.67661  Biso   1.000  Co
  Co22     1.0000 0.72688  0.17661  0.17661  Biso   1.000  Co
  Co23     1.0000 0.07339  0.02312  0.67661  Biso   1.000  Co
  Co24     1.0000 0.57339  0.02312  0.17661  Biso   1.000  Co
  Co25     1.0000 0.57339  0.52312  0.67661  Biso   1.000  Co
  Co26     1.0000 0.17661  0.52312  0.07339  Biso   1.000  Co
  Co27     1.0000 0.17661  0.02312  0.57339  Biso   1.000  Co
  Co28     1.0000 0.67661  0.52312  0.57339  Biso   1.000  Co
  Co29     1.0000 0.57339  0.72688  0.57339  Biso   1.000  Co
  Co30     1.0000 0.57339  0.22688  0.07339  Biso   1.000  Co
  Co31     1.0000 0.07339  0.72688  0.07339  Biso   1.000  Co
  Co32     1.0000 0.07339  0.22688  0.57339  Biso   1.000  Co
  Co33     1.0000 0.67661  0.22688  0.17661  Biso   1.000  Co
  Co34     1.0000 0.67661  0.72688  0.67661  Biso   1.000  Co
  Co35     1.0000 0.17661  0.72688  0.17661  Biso   1.000  Co
  Co36     1.0000 0.82339  0.92661  0.47688  Biso   1.000  Co
  Co37     1.0000 0.82339  0.42661  0.97688  Biso   1.000  Co
  Co38     1.0000 0.92661  0.32339  0.97688  Biso   1.000  Co
  Co39     1.0000 0.42661  0.32339  0.47688  Biso   1.000  Co
  Co40     1.0000 0.32339  0.82339  0.77312  Biso   1.000  Co
  Co41     1.0000 0.32339  0.32339  0.27312  Biso   1.000  Co
  Co42     1.0000 0.42661  0.42661  0.27312  Biso   1.000  Co
  Co43     1.0000 0.42661  0.92661  0.77312  Biso   1.000  Co
  Co44     1.0000 0.92661  0.42661  0.77312  Biso   1.000  Co
  Co45     1.0000 0.92661  0.92661  0.27312  Biso   1.000  Co
  Co46     1.0000 0.42661  0.27312  0.42661  Biso   1.000  Co
  Co47     1.0000 0.42661  0.77312  0.92661  Biso   1.000  Co
  Co48     1.0000 0.92661  0.27312  0.92661  Biso   1.000  Co
  Co49     1.0000 0.92661  0.77312  0.42661  Biso   1.000  Co
  Co50     1.0000 0.82339  0.77312  0.32339  Biso   1.000  Co
  Co51     1.0000 0.82339  0.27312  0.82339  Biso   1.000  Co
  Co52     1.0000 0.32339  0.27312  0.32339  Biso   1.000  Co
  Co53     1.0000 0.32339  0.97688  0.92661  Biso   1.000  Co
  Co54     1.0000 0.32339  0.47688  0.42661  Biso   1.000  Co
  Co55     1.0000 0.92661  0.47688  0.82339  Biso   1.000  Co
  Co56     1.0000 0.42661  0.47688  0.32339  Biso   1.000  Co
  Co57     1.0000 0.77312  0.32339  0.82339  Biso   1.000  Co
  Co58     1.0000 0.27312  0.32339  0.32339  Biso   1.000  Co
  Co59     1.0000 0.27312  0.42661  0.42661  Biso   1.000  Co
  Co60     1.0000 0.27312  0.92661  0.92661  Biso   1.000  Co
  Co61     1.0000 0.77312  0.42661  0.92661  Biso   1.000  Co
  Co62     1.0000 0.77312  0.92661  0.42661  Biso   1.000  Co
  Co63     1.0000 0.47688  0.82339  0.92661  Biso   1.000  Co
  Co64     1.0000 0.47688  0.32339  0.42661  Biso   1.000  Co
  Co65     1.0000 0.97688  0.92661  0.32339  Biso   1.000  Co
  Co66     1.0000 0.97688  0.42661  0.82339  Biso   1.000  Co
  Co67     1.0000 0.32339  0.92661  0.97688  Biso   1.000  Co
  Co68     1.0000 0.32339  0.42661  0.47688  Biso   1.000  Co
  Co69     1.0000 0.92661  0.82339  0.47688  Biso   1.000  Co
  Co70     1.0000 0.42661  0.82339  0.97688  Biso   1.000  Co
  Co71     1.0000 0.82339  0.32339  0.77312  Biso   1.000  Co
  Co72     1.0000 0.82339  0.82339  0.27312  Biso   1.000  Co
  Co73     1.0000 0.97688  0.32339  0.92661  Biso   1.000  Co
  Co74     1.0000 0.97688  0.82339  0.42661  Biso   1.000  Co
  Co75     1.0000 0.47688  0.92661  0.82339  Biso   1.000  Co
  Co76     1.0000 0.47688  0.42661  0.32339  Biso   1.000  Co
  Co77     1.0000 0.77312  0.82339  0.32339  Biso   1.000  Co
  Co78     1.0000 0.27312  0.82339  0.82339  Biso   1.000  Co
  Co79     1.0000 0.92661  0.97688  0.32339  Biso   1.000  Co
  Co80     1.0000 0.42661  0.97688  0.82339  Biso   1.000  Co
  Co81     1.0000 0.82339  0.47688  0.92661  Biso   1.000  Co
  Co82     1.0000 0.82339  0.97688  0.42661  Biso   1.000  Co
  Co83     1.0000 0.32339  0.77312  0.82339  Biso   1.000  Co
  Co84     1.0000 0.17661  0.07339  0.52312  Biso   1.000  Co
  Co85     1.0000 0.17661  0.57339  0.02312  Biso   1.000  Co
  Co86     1.0000 0.07339  0.67661  0.02312  Biso   1.000  Co
  Co87     1.0000 0.67661  0.17661  0.22688  Biso   1.000  Co
  Co88     1.0000 0.67661  0.67661  0.72688  Biso   1.000  Co
  Co89     1.0000 0.17661  0.22688  0.67661  Biso   1.000  Co
  Co90     1.0000 0.67661  0.02312  0.07339  Biso   1.000  Co
  Co91     1.0000 0.07339  0.52312  0.17661  Biso   1.000  Co
  Co92     1.0000 0.22688  0.67661  0.17661  Biso   1.000  Co
  Co93     1.0000 0.72688  0.67661  0.67661  Biso   1.000  Co
  Co94     1.0000 0.52312  0.17661  0.07339  Biso   1.000  Co
  Co95     1.0000 0.02312  0.07339  0.67661  Biso   1.000  Co
  Co96     1.0000 0.02312  0.57339  0.17661  Biso   1.000  Co
  Co97     1.0000 0.03986  0.03986  0.09408  Biso   1.000  Co
  Co98     1.0000 0.05171  0.05171  0.09465  Biso   1.000  Co
  Co99     1.0000 0.03986  0.53986  0.59408  Biso   1.000  Co
  Co100    1.0000 0.05171  0.55171  0.59465  Biso   1.000  Co
  Co101    1.0000 0.53986  0.03986  0.59408  Biso   1.000  Co
  Co102    1.0000 0.55171  0.05171  0.59465  Biso   1.000  Co
  Co103    1.0000 0.53986  0.53986  0.09408  Biso   1.000  Co
  Co104    1.0000 0.55171  0.55171  0.09465  Biso   1.000  Co
  Co105    1.0000 0.71014  0.21014  0.59408  Biso   1.000  Co
  Co106    1.0000 0.69829  0.19829  0.59465  Biso   1.000  Co
  Co107    1.0000 0.71014  0.71014  0.09408  Biso   1.000  Co
  Co108    1.0000 0.69829  0.69829  0.09465  Biso   1.000  Co
  Co109    1.0000 0.21014  0.53986  0.65592  Biso   1.000  Co
  Co110    1.0000 0.19829  0.55171  0.65535  Biso   1.000  Co
  Co111    1.0000 0.21014  0.03986  0.15592  Biso   1.000  Co
  Co112    1.0000 0.19829  0.05171  0.15535  Biso   1.000  Co
  Co113    1.0000 0.53986  0.71014  0.15592  Biso   1.000  Co
  Co114    1.0000 0.55171  0.69829  0.15535  Biso   1.000  Co
  Co115    1.0000 0.03986  0.71014  0.65592  Biso   1.000  Co
  Co116    1.0000 0.05171  0.69829  0.65535  Biso   1.000  Co
  Co117    1.0000 0.09408  0.03986  0.03986  Biso   1.000  Co
  Co118    1.0000 0.09465  0.05171  0.05171  Biso   1.000  Co
  Co119    1.0000 0.09408  0.53986  0.53986  Biso   1.000  Co
  Co120    1.0000 0.09465  0.55171  0.55171  Biso   1.000  Co
  Co121    1.0000 0.59408  0.03986  0.53986  Biso   1.000  Co
  Co122    1.0000 0.59465  0.05171  0.55171  Biso   1.000  Co
  Co123    1.0000 0.59408  0.53986  0.03986  Biso   1.000  Co
  Co124    1.0000 0.59465  0.55171  0.05171  Biso   1.000  Co
  Co125    1.0000 0.59408  0.71014  0.21014  Biso   1.000  Co
  Co126    1.0000 0.59465  0.69829  0.19829  Biso   1.000  Co
  Co127    1.0000 0.09408  0.71014  0.71014  Biso   1.000  Co
  Co128    1.0000 0.09465  0.69829  0.69829  Biso   1.000  Co
  Co129    1.0000 0.65592  0.21014  0.53986  Biso   1.000  Co
  Co130    1.0000 0.65535  0.19829  0.55171  Biso   1.000  Co
  Co131    1.0000 0.65592  0.71014  0.03986  Biso   1.000  Co
  Co132    1.0000 0.65535  0.69829  0.05171  Biso   1.000  Co
  Co133    1.0000 0.15592  0.53986  0.71014  Biso   1.000  Co
  Co134    1.0000 0.15535  0.55171  0.69829  Biso   1.000  Co
  Co135    1.0000 0.15592  0.03986  0.21014  Biso   1.000  Co
  Co136    1.0000 0.15535  0.05171  0.19829  Biso   1.000  Co
  Co137    1.0000 0.03986  0.09408  0.03986  Biso   1.000  Co
  Co138    1.0000 0.05171  0.09465  0.05171  Biso   1.000  Co
  Co139    1.0000 0.03986  0.59408  0.53986  Biso   1.000  Co
  Co140    1.0000 0.05171  0.59465  0.55171  Biso   1.000  Co
  Co141    1.0000 0.53986  0.09408  0.53986  Biso   1.000  Co
  Co142    1.0000 0.55171  0.09465  0.55171  Biso   1.000  Co
  Co143    1.0000 0.53986  0.59408  0.03986  Biso   1.000  Co
  Co144    1.0000 0.55171  0.59465  0.05171  Biso   1.000  Co
  Co145    1.0000 0.21014  0.59408  0.71014  Biso   1.000  Co
  Co146    1.0000 0.19829  0.59465  0.69829  Biso   1.000  Co
  Co147    1.0000 0.21014  0.09408  0.21014  Biso   1.000  Co
  Co148    1.0000 0.19829  0.09465  0.19829  Biso   1.000  Co
  Co149    1.0000 0.53986  0.65592  0.21014  Biso   1.000  Co
  Co150    1.0000 0.55171  0.65535  0.19829  Biso   1.000  Co
  Co151    1.0000 0.03986  0.65592  0.71014  Biso   1.000  Co
  Co152    1.0000 0.05171  0.65535  0.69829  Biso   1.000  Co
  Co153    1.0000 0.71014  0.15592  0.53986  Biso   1.000  Co
  Co154    1.0000 0.69829  0.15535  0.55171  Biso   1.000  Co
  Co155    1.0000 0.71014  0.65592  0.03986  Biso   1.000  Co
  Co156    1.0000 0.69829  0.65535  0.05171  Biso   1.000  Co
  Co157    1.0000 0.78986  0.28986  0.40592  Biso   1.000  Co
  Co158    1.0000 0.80171  0.30171  0.40535  Biso   1.000  Co
  Co159    1.0000 0.78986  0.78986  0.90592  Biso   1.000  Co
  Co160    1.0000 0.80171  0.80171  0.90535  Biso   1.000  Co
  Co161    1.0000 0.96014  0.96014  0.90592  Biso   1.000  Co
  Co162    1.0000 0.94829  0.94829  0.90535  Biso   1.000  Co
  Co163    1.0000 0.96014  0.46014  0.40592  Biso   1.000  Co
  Co164    1.0000 0.94829  0.44829  0.40535  Biso   1.000  Co
  Co165    1.0000 0.46014  0.96014  0.40592  Biso   1.000  Co
  Co166    1.0000 0.44829  0.94829  0.40535  Biso   1.000  Co
  Co167    1.0000 0.46014  0.46014  0.90592  Biso   1.000  Co
  Co168    1.0000 0.44829  0.44829  0.90535  Biso   1.000  Co
  Co169    1.0000 0.28986  0.46014  0.84408  Biso   1.000  Co
  Co170    1.0000 0.30171  0.44829  0.84465  Biso   1.000  Co
  Co171    1.0000 0.28986  0.96014  0.34408  Biso   1.000  Co
  Co172    1.0000 0.30171  0.94829  0.34465  Biso   1.000  Co
  Co173    1.0000 0.46014  0.78986  0.34408  Biso   1.000  Co
  Co174    1.0000 0.44829  0.80171  0.34465  Biso   1.000  Co
  Co175    1.0000 0.96014  0.78986  0.84408  Biso   1.000  Co
  Co176    1.0000 0.94829  0.80171  0.84465  Biso   1.000  Co
  Co177    1.0000 0.78986  0.34408  0.46014  Biso   1.000  Co
  Co178    1.0000 0.80171  0.34465  0.44829  Biso   1.000  Co
  Co179    1.0000 0.78986  0.84408  0.96014  Biso   1.000  Co
  Co180    1.0000 0.80171  0.84465  0.94829  Biso   1.000  Co
  Co181    1.0000 0.46014  0.84408  0.28986  Biso   1.000  Co
  Co182    1.0000 0.44829  0.84465  0.30171  Biso   1.000  Co
  Co183    1.0000 0.96014  0.84408  0.78986  Biso   1.000  Co
  Co184    1.0000 0.94829  0.84465  0.80171  Biso   1.000  Co
  Co185    1.0000 0.96014  0.90592  0.96014  Biso   1.000  Co
  Co186    1.0000 0.94829  0.90535  0.94829  Biso   1.000  Co
  Co187    1.0000 0.96014  0.40592  0.46014  Biso   1.000  Co
  Co188    1.0000 0.94829  0.40535  0.44829  Biso   1.000  Co
  Co189    1.0000 0.46014  0.90592  0.46014  Biso   1.000  Co
  Co190    1.0000 0.44829  0.90535  0.44829  Biso   1.000  Co
  Co191    1.0000 0.46014  0.40592  0.96014  Biso   1.000  Co
  Co192    1.0000 0.44829  0.40535  0.94829  Biso   1.000  Co
  Co193    1.0000 0.28986  0.40592  0.78986  Biso   1.000  Co
  Co194    1.0000 0.30171  0.40535  0.80171  Biso   1.000  Co
  Co195    1.0000 0.28986  0.90592  0.28986  Biso   1.000  Co
  Co196    1.0000 0.30171  0.90535  0.30171  Biso   1.000  Co
  Co197    1.0000 0.84408  0.28986  0.46014  Biso   1.000  Co
  Co198    1.0000 0.84465  0.30171  0.44829  Biso   1.000  Co
  Co199    1.0000 0.84408  0.78986  0.96014  Biso   1.000  Co
  Co200    1.0000 0.84465  0.80171  0.94829  Biso   1.000  Co
  Co201    1.0000 0.34408  0.46014  0.78986  Biso   1.000  Co
  Co202    1.0000 0.34465  0.44829  0.80171  Biso   1.000  Co
  Co203    1.0000 0.34408  0.96014  0.28986  Biso   1.000  Co
  Co204    1.0000 0.34465  0.94829  0.30171  Biso   1.000  Co
  Co205    1.0000 0.40592  0.78986  0.28986  Biso   1.000  Co
  Co206    1.0000 0.40535  0.80171  0.30171  Biso   1.000  Co
  Co207    1.0000 0.90592  0.78986  0.78986  Biso   1.000  Co
  Co208    1.0000 0.90535  0.80171  0.80171  Biso   1.000  Co
  Co209    1.0000 0.90592  0.96014  0.96014  Biso   1.000  Co
  Co210    1.0000 0.90535  0.94829  0.94829  Biso   1.000  Co
  Co211    1.0000 0.90592  0.46014  0.46014  Biso   1.000  Co
  Co212    1.0000 0.90535  0.44829  0.44829  Biso   1.000  Co
  Co213    1.0000 0.40592  0.96014  0.46014  Biso   1.000  Co
  Co214    1.0000 0.40535  0.94829  0.44829  Biso   1.000  Co
  Co215    1.0000 0.40592  0.46014  0.96014  Biso   1.000  Co
  Co216    1.0000 0.40535  0.44829  0.94829  Biso   1.000  Co
  Co217    1.0000 0.28986  0.78986  0.40592  Biso   1.000  Co
  Co218    1.0000 0.30171  0.80171  0.40535  Biso   1.000  Co
  Co219    1.0000 0.28986  0.28986  0.90592  Biso   1.000  Co
  Co220    1.0000 0.30171  0.30171  0.90535  Biso   1.000  Co
  Co221    1.0000 0.78986  0.46014  0.34408  Biso   1.000  Co
  Co222    1.0000 0.80171  0.44829  0.34465  Biso   1.000  Co
  Co223    1.0000 0.78986  0.96014  0.84408  Biso   1.000  Co
  Co224    1.0000 0.80171  0.94829  0.84465  Biso   1.000  Co
  Co225    1.0000 0.46014  0.28986  0.84408  Biso   1.000  Co
  Co226    1.0000 0.44829  0.30171  0.84465  Biso   1.000  Co
  Co227    1.0000 0.96014  0.28986  0.34408  Biso   1.000  Co
  Co228    1.0000 0.94829  0.30171  0.34465  Biso   1.000  Co
  Co229    1.0000 0.40592  0.28986  0.78986  Biso   1.000  Co
  Co230    1.0000 0.40535  0.30171  0.80171  Biso   1.000  Co
  Co231    1.0000 0.90592  0.28986  0.28986  Biso   1.000  Co
  Co232    1.0000 0.90535  0.30171  0.30171  Biso   1.000  Co
  Co233    1.0000 0.34408  0.78986  0.46014  Biso   1.000  Co
  Co234    1.0000 0.34465  0.80171  0.44829  Biso   1.000  Co
  Co235    1.0000 0.34408  0.28986  0.96014  Biso   1.000  Co
  Co236    1.0000 0.34465  0.30171  0.94829  Biso   1.000  Co
  Co237    1.0000 0.84408  0.46014  0.28986  Biso   1.000  Co
  Co238    1.0000 0.84465  0.44829  0.30171  Biso   1.000  Co
  Co239    1.0000 0.84408  0.96014  0.78986  Biso   1.000  Co
  Co240    1.0000 0.84465  0.94829  0.80171  Biso   1.000  Co
  Co241    1.0000 0.78986  0.40592  0.28986  Biso   1.000  Co
  Co242    1.0000 0.80171  0.40535  0.30171  Biso   1.000  Co
  Co243    1.0000 0.78986  0.90592  0.78986  Biso   1.000  Co
  Co244    1.0000 0.80171  0.90535  0.80171  Biso   1.000  Co
  Co245    1.0000 0.46014  0.34408  0.78986  Biso   1.000  Co
  Co246    1.0000 0.44829  0.34465  0.80171  Biso   1.000  Co
  Co247    1.0000 0.96014  0.34408  0.28986  Biso   1.000  Co
  Co248    1.0000 0.94829  0.34465  0.30171  Biso   1.000  Co
  Co249    1.0000 0.28986  0.84408  0.46014  Biso   1.000  Co
  Co250    1.0000 0.30171  0.84465  0.44829  Biso   1.000  Co
  Co251    1.0000 0.28986  0.34408  0.96014  Biso   1.000  Co
  Co252    1.0000 0.30171  0.34465  0.94829  Biso   1.000  Co
  Co253    1.0000 0.21014  0.71014  0.59408  Biso   1.000  Co
  Co254    1.0000 0.19829  0.69829  0.59465  Biso   1.000  Co
  Co255    1.0000 0.21014  0.21014  0.09408  Biso   1.000  Co
  Co256    1.0000 0.19829  0.19829  0.09465  Biso   1.000  Co
  Co257    1.0000 0.71014  0.53986  0.15592  Biso   1.000  Co
  Co258    1.0000 0.69829  0.55171  0.15535  Biso   1.000  Co
  Co259    1.0000 0.71014  0.03986  0.65592  Biso   1.000  Co
  Co260    1.0000 0.69829  0.05171  0.65535  Biso   1.000  Co
  Co261    1.0000 0.53986  0.21014  0.65592  Biso   1.000  Co
  Co262    1.0000 0.55171  0.19829  0.65535  Biso   1.000  Co
  Co263    1.0000 0.03986  0.21014  0.15592  Biso   1.000  Co
  Co264    1.0000 0.05171  0.19829  0.15535  Biso   1.000  Co
  Co265    1.0000 0.21014  0.65592  0.53986  Biso   1.000  Co
  Co266    1.0000 0.19829  0.65535  0.55171  Biso   1.000  Co
  Co267    1.0000 0.21014  0.15592  0.03986  Biso   1.000  Co
  Co268    1.0000 0.19829  0.15535  0.05171  Biso   1.000  Co
  Co269    1.0000 0.53986  0.15592  0.71014  Biso   1.000  Co
  Co270    1.0000 0.55171  0.15535  0.69829  Biso   1.000  Co
  Co271    1.0000 0.03986  0.15592  0.21014  Biso   1.000  Co
  Co272    1.0000 0.05171  0.15535  0.19829  Biso   1.000  Co
  Co273    1.0000 0.71014  0.59408  0.21014  Biso   1.000  Co
  Co274    1.0000 0.69829  0.59465  0.19829  Biso   1.000  Co
  Co275    1.0000 0.71014  0.09408  0.71014  Biso   1.000  Co
  Co276    1.0000 0.69829  0.09465  0.69829  Biso   1.000  Co
  Co277    1.0000 0.15592  0.71014  0.53986  Biso   1.000  Co
  Co278    1.0000 0.15535  0.69829  0.55171  Biso   1.000  Co
  Co279    1.0000 0.15592  0.21014  0.03986  Biso   1.000  Co
  Co280    1.0000 0.15535  0.19829  0.05171  Biso   1.000  Co
  Co281    1.0000 0.65592  0.53986  0.21014  Biso   1.000  Co
  Co282    1.0000 0.65535  0.55171  0.19829  Biso   1.000  Co
  Co283    1.0000 0.65592  0.03986  0.71014  Biso   1.000  Co
  Co284    1.0000 0.65535  0.05171  0.69829  Biso   1.000  Co
  Co285    1.0000 0.59408  0.21014  0.71014  Biso   1.000  Co
  Co286    1.0000 0.59465  0.19829  0.69829  Biso   1.000  Co
  Co287    1.0000 0.09408  0.21014  0.21014  Biso   1.000  Co
  Co288    1.0000 0.09465  0.19829  0.19829  Biso   1.000  Co
  O1345    1.0000 0.69537  0.05463  0.05463  Biso   1.000  O
  O1346    1.0000 0.05463  0.19537  0.55463  Biso   1.000  O
  O1347    1.0000 0.55463  0.55463  0.69537  Biso   1.000  O
  O1348    1.0000 0.19537  0.69537  0.19537  Biso   1.000  O
  O1349    1.0000 0.05463  0.69537  0.05463  Biso   1.000  O
  O1350    1.0000 0.55463  0.05463  0.19537  Biso   1.000  O
  O1351    1.0000 0.69537  0.55463  0.55463  Biso   1.000  O
  O1352    1.0000 0.19537  0.19537  0.69537  Biso   1.000  O
  O1353    1.0000 0.05463  0.05463  0.69537  Biso   1.000  O
  O1354    1.0000 0.19537  0.55463  0.05463  Biso   1.000  O
  O1355    1.0000 0.55463  0.69537  0.55463  Biso   1.000  O
  O1356    1.0000 0.69537  0.19537  0.19537  Biso   1.000  O
  O1357    1.0000 0.69537  0.69537  0.69537  Biso   1.000  O
  O1358    1.0000 0.80463  0.94537  0.44537  Biso   1.000  O
  O1359    1.0000 0.94537  0.30463  0.94537  Biso   1.000  O
  O1360    1.0000 0.30463  0.80463  0.80463  Biso   1.000  O
  O1361    1.0000 0.30463  0.30463  0.30463  Biso   1.000  O
  O1362    1.0000 0.44537  0.44537  0.30463  Biso   1.000  O
  O1363    1.0000 0.44537  0.30463  0.44537  Biso   1.000  O
  O1364    1.0000 0.80463  0.80463  0.30463  Biso   1.000  O
  O1365    1.0000 0.30463  0.94537  0.94537  Biso   1.000  O
  O1366    1.0000 0.94537  0.44537  0.80463  Biso   1.000  O
  O1367    1.0000 0.80463  0.30463  0.80463  Biso   1.000  O
  O1368    1.0000 0.30463  0.44537  0.44537  Biso   1.000  O
  O1369    1.0000 0.44537  0.80463  0.94537  Biso   1.000  O
  O1370    1.0000 0.94537  0.94537  0.30463  Biso   1.000  O
  O1371    1.0000 0.94537  0.80463  0.44537  Biso   1.000  O
  O1372    1.0000 0.44537  0.94537  0.80463  Biso   1.000  O
  O1373    1.0000 0.80463  0.44537  0.94537  Biso   1.000  O
  O1374    1.0000 0.19537  0.05463  0.55463  Biso   1.000  O
  O1375    1.0000 0.05463  0.55463  0.19537  Biso   1.000  O
  O1376    1.0000 0.55463  0.19537  0.05463  Biso   1.000  O
  O1377    1.0000 0.05216  0.05216  0.05216  Biso   1.000  O
  O1378    1.0000 0.05216  0.55216  0.55216  Biso   1.000  O
  O1379    1.0000 0.55216  0.05216  0.55216  Biso   1.000  O
  O1380    1.0000 0.55216  0.55216  0.05216  Biso   1.000  O
  O1381    1.0000 0.69784  0.19784  0.55216  Biso   1.000  O
  O1382    1.0000 0.69784  0.69784  0.05216  Biso   1.000  O
  O1383    1.0000 0.19784  0.55216  0.69784  Biso   1.000  O
  O1384    1.0000 0.19784  0.05216  0.19784  Biso   1.000  O
  O1385    1.0000 0.55216  0.69784  0.19784  Biso   1.000  O
  O1386    1.0000 0.05216  0.69784  0.69784  Biso   1.000  O
  O1387    1.0000 0.69784  0.05216  0.69784  Biso   1.000  O
  O1388    1.0000 0.80216  0.30216  0.44784  Biso   1.000  O
  O1389    1.0000 0.80216  0.80216  0.94784  Biso   1.000  O
  O1390    1.0000 0.94784  0.94784  0.94784  Biso   1.000  O
  O1391    1.0000 0.94784  0.44784  0.44784  Biso   1.000  O
  O1392    1.0000 0.44784  0.94784  0.44784  Biso   1.000  O
  O1393    1.0000 0.44784  0.44784  0.94784  Biso   1.000  O
  O1394    1.0000 0.30216  0.44784  0.80216  Biso   1.000  O
  O1395    1.0000 0.30216  0.94784  0.30216  Biso   1.000  O
  O1396    1.0000 0.44784  0.80216  0.30216  Biso   1.000  O
  O1397    1.0000 0.94784  0.80216  0.80216  Biso   1.000  O
  O1398    1.0000 0.94784  0.30216  0.30216  Biso   1.000  O
  O1399    1.0000 0.80216  0.94784  0.80216  Biso   1.000  O
  O1400    1.0000 0.30216  0.80216  0.44784  Biso   1.000  O
  O1401    1.0000 0.30216  0.30216  0.94784  Biso   1.000  O
  O1402    1.0000 0.80216  0.44784  0.30216  Biso   1.000  O
  O1403    1.0000 0.44784  0.30216  0.80216  Biso   1.000  O
  O1404    1.0000 0.19784  0.69784  0.55216  Biso   1.000  O
  O1405    1.0000 0.19784  0.19784  0.05216  Biso   1.000  O
  O1406    1.0000 0.69784  0.55216  0.19784  Biso   1.000  O
  O1407    1.0000 0.55216  0.19784  0.69784  Biso   1.000  O
  O1408    1.0000 0.05216  0.19784  0.19784  Biso   1.000  O
  C1153    1.0000 0.91490  0.07121  0.07121  Biso   1.000  C
  C1154    1.0000 0.96950  0.07550  0.07550  Biso   1.000  C
  C1155    1.0000 0.00050  0.07760  0.07760  Biso   1.000  C
  C1156    1.0000 0.62799  0.05885  0.05885  Biso   1.000  C
  C1157    1.0000 0.60310  0.06864  0.06864  Biso   1.000  C
  C1158    1.0000 0.91490  0.57121  0.57121  Biso   1.000  C
  C1159    1.0000 0.96950  0.57550  0.57550  Biso   1.000  C
  C1160    1.0000 0.00050  0.57760  0.57760  Biso   1.000  C
  C1161    1.0000 0.62799  0.55885  0.55885  Biso   1.000  C
  C1162    1.0000 0.60310  0.56864  0.56864  Biso   1.000  C
  C1163    1.0000 0.41490  0.07121  0.57121  Biso   1.000  C
  C1164    1.0000 0.46950  0.07550  0.57550  Biso   1.000  C
  C1165    1.0000 0.50050  0.07760  0.57760  Biso   1.000  C
  C1166    1.0000 0.12799  0.05885  0.55885  Biso   1.000  C
  C1167    1.0000 0.10310  0.06864  0.56864  Biso   1.000  C
  C1168    1.0000 0.41490  0.57121  0.07121  Biso   1.000  C
  C1169    1.0000 0.46950  0.57550  0.07550  Biso   1.000  C
  C1170    1.0000 0.50050  0.57760  0.07760  Biso   1.000  C
  C1171    1.0000 0.12799  0.55885  0.05885  Biso   1.000  C
  C1172    1.0000 0.10310  0.56864  0.06864  Biso   1.000  C
  C1173    1.0000 0.83510  0.17879  0.57121  Biso   1.000  C
  C1174    1.0000 0.78050  0.17450  0.57550  Biso   1.000  C
  C1175    1.0000 0.74950  0.17240  0.57760  Biso   1.000  C
  C1176    1.0000 0.12201  0.19115  0.55885  Biso   1.000  C
  C1177    1.0000 0.14690  0.18136  0.56864  Biso   1.000  C
  C1178    1.0000 0.83510  0.67879  0.07121  Biso   1.000  C
  C1179    1.0000 0.78050  0.67450  0.07550  Biso   1.000  C
  C1180    1.0000 0.74950  0.67240  0.07760  Biso   1.000  C
  C1181    1.0000 0.12201  0.69115  0.05885  Biso   1.000  C
  C1182    1.0000 0.14690  0.68136  0.06864  Biso   1.000  C
  C1183    1.0000 0.33510  0.57121  0.67879  Biso   1.000  C
  C1184    1.0000 0.28050  0.57550  0.67450  Biso   1.000  C
  C1185    1.0000 0.24950  0.57760  0.67240  Biso   1.000  C
  C1186    1.0000 0.62201  0.55885  0.69115  Biso   1.000  C
  C1187    1.0000 0.64690  0.56864  0.68136  Biso   1.000  C
  C1188    1.0000 0.33510  0.07121  0.17879  Biso   1.000  C
  C1189    1.0000 0.28050  0.07550  0.17450  Biso   1.000  C
  C1190    1.0000 0.24950  0.07760  0.17240  Biso   1.000  C
  C1191    1.0000 0.62201  0.05885  0.19115  Biso   1.000  C
  C1192    1.0000 0.64690  0.06864  0.18136  Biso   1.000  C
  C1193    1.0000 0.41490  0.67879  0.17879  Biso   1.000  C
  C1194    1.0000 0.46950  0.67450  0.17450  Biso   1.000  C
  C1195    1.0000 0.50050  0.67240  0.17240  Biso   1.000  C
  C1196    1.0000 0.12799  0.69115  0.19115  Biso   1.000  C
  C1197    1.0000 0.10310  0.68136  0.18136  Biso   1.000  C
  C1198    1.0000 0.91490  0.67879  0.67879  Biso   1.000  C
  C1199    1.0000 0.96950  0.67450  0.67450  Biso   1.000  C
  C1200    1.0000 0.00050  0.67240  0.67240  Biso   1.000  C
  C1201    1.0000 0.62799  0.69115  0.69115  Biso   1.000  C
  C1202    1.0000 0.60310  0.68136  0.68136  Biso   1.000  C
  C1203    1.0000 0.91490  0.17879  0.17879  Biso   1.000  C
  C1204    1.0000 0.96950  0.17450  0.17450  Biso   1.000  C
  C1205    1.0000 0.00050  0.17240  0.17240  Biso   1.000  C
  C1206    1.0000 0.62799  0.19115  0.19115  Biso   1.000  C
  C1207    1.0000 0.60310  0.18136  0.18136  Biso   1.000  C
  C1208    1.0000 0.07121  0.91490  0.07121  Biso   1.000  C
  C1209    1.0000 0.07550  0.96950  0.07550  Biso   1.000  C
  C1210    1.0000 0.07760  0.00050  0.07760  Biso   1.000  C
  C1211    1.0000 0.05885  0.62799  0.05885  Biso   1.000  C
  C1212    1.0000 0.06864  0.60310  0.06864  Biso   1.000  C
  C1213    1.0000 0.07121  0.41490  0.57121  Biso   1.000  C
  C1214    1.0000 0.07550  0.46950  0.57550  Biso   1.000  C
  C1215    1.0000 0.07760  0.50050  0.57760  Biso   1.000  C
  C1216    1.0000 0.05885  0.12799  0.55885  Biso   1.000  C
  C1217    1.0000 0.06864  0.10310  0.56864  Biso   1.000  C
  C1218    1.0000 0.57121  0.91490  0.57121  Biso   1.000  C
  C1219    1.0000 0.57550  0.96950  0.57550  Biso   1.000  C
  C1220    1.0000 0.57760  0.00050  0.57760  Biso   1.000  C
  C1221    1.0000 0.55885  0.62799  0.55885  Biso   1.000  C
  C1222    1.0000 0.56864  0.60310  0.56864  Biso   1.000  C
  C1223    1.0000 0.57121  0.41490  0.07121  Biso   1.000  C
  C1224    1.0000 0.57550  0.46950  0.07550  Biso   1.000  C
  C1225    1.0000 0.57760  0.50050  0.07760  Biso   1.000  C
  C1226    1.0000 0.55885  0.12799  0.05885  Biso   1.000  C
  C1227    1.0000 0.56864  0.10310  0.06864  Biso   1.000  C
  C1228    1.0000 0.57121  0.83510  0.17879  Biso   1.000  C
  C1229    1.0000 0.57550  0.78050  0.17450  Biso   1.000  C
  C1230    1.0000 0.57760  0.74950  0.17240  Biso   1.000  C
  C1231    1.0000 0.55885  0.12201  0.19115  Biso   1.000  C
  C1232    1.0000 0.56864  0.14690  0.18136  Biso   1.000  C
  C1233    1.0000 0.07121  0.83510  0.67879  Biso   1.000  C
  C1234    1.0000 0.07550  0.78050  0.67450  Biso   1.000  C
  C1235    1.0000 0.07760  0.74950  0.67240  Biso   1.000  C
  C1236    1.0000 0.05885  0.12201  0.69115  Biso   1.000  C
  C1237    1.0000 0.06864  0.14690  0.68136  Biso   1.000  C
  C1238    1.0000 0.67879  0.33510  0.57121  Biso   1.000  C
  C1239    1.0000 0.67450  0.28050  0.57550  Biso   1.000  C
  C1240    1.0000 0.67240  0.24950  0.57760  Biso   1.000  C
  C1241    1.0000 0.69115  0.62201  0.55885  Biso   1.000  C
  C1242    1.0000 0.68136  0.64690  0.56864  Biso   1.000  C
  C1243    1.0000 0.67879  0.83510  0.07121  Biso   1.000  C
  C1244    1.0000 0.67450  0.78050  0.07550  Biso   1.000  C
  C1245    1.0000 0.67240  0.74950  0.07760  Biso   1.000  C
  C1246    1.0000 0.69115  0.12201  0.05885  Biso   1.000  C
  C1247    1.0000 0.68136  0.14690  0.06864  Biso   1.000  C
  C1248    1.0000 0.17879  0.41490  0.67879  Biso   1.000  C
  C1249    1.0000 0.17450  0.46950  0.67450  Biso   1.000  C
  C1250    1.0000 0.17240  0.50050  0.67240  Biso   1.000  C
  C1251    1.0000 0.19115  0.12799  0.69115  Biso   1.000  C
  C1252    1.0000 0.18136  0.10310  0.68136  Biso   1.000  C
  C1253    1.0000 0.17879  0.91490  0.17879  Biso   1.000  C
  C1254    1.0000 0.17450  0.96950  0.17450  Biso   1.000  C
  C1255    1.0000 0.17240  0.00050  0.17240  Biso   1.000  C
  C1256    1.0000 0.19115  0.62799  0.19115  Biso   1.000  C
  C1257    1.0000 0.18136  0.60310  0.18136  Biso   1.000  C
  C1258    1.0000 0.07121  0.07121  0.91490  Biso   1.000  C
  C1259    1.0000 0.07550  0.07550  0.96950  Biso   1.000  C
  C1260    1.0000 0.07760  0.07760  0.00050  Biso   1.000  C
  C1261    1.0000 0.05885  0.05885  0.62799  Biso   1.000  C
  C1262    1.0000 0.06864  0.06864  0.60310  Biso   1.000  C
  C1263    1.0000 0.07121  0.57121  0.41490  Biso   1.000  C
  C1264    1.0000 0.07550  0.57550  0.46950  Biso   1.000  C
  C1265    1.0000 0.07760  0.57760  0.50050  Biso   1.000  C
  C1266    1.0000 0.05885  0.55885  0.12799  Biso   1.000  C
  C1267    1.0000 0.06864  0.56864  0.10310  Biso   1.000  C
  C1268    1.0000 0.57121  0.07121  0.41490  Biso   1.000  C
  C1269    1.0000 0.57550  0.07550  0.46950  Biso   1.000  C
  C1270    1.0000 0.57760  0.07760  0.50050  Biso   1.000  C
  C1271    1.0000 0.55885  0.05885  0.12799  Biso   1.000  C
  C1272    1.0000 0.56864  0.06864  0.10310  Biso   1.000  C
  C1273    1.0000 0.57121  0.57121  0.91490  Biso   1.000  C
  C1274    1.0000 0.57550  0.57550  0.96950  Biso   1.000  C
  C1275    1.0000 0.57760  0.57760  0.00050  Biso   1.000  C
  C1276    1.0000 0.55885  0.55885  0.62799  Biso   1.000  C
  C1277    1.0000 0.56864  0.56864  0.60310  Biso   1.000  C
  C1278    1.0000 0.17879  0.57121  0.83510  Biso   1.000  C
  C1279    1.0000 0.17450  0.57550  0.78050  Biso   1.000  C
  C1280    1.0000 0.17240  0.57760  0.74950  Biso   1.000  C
  C1281    1.0000 0.19115  0.55885  0.12201  Biso   1.000  C
  C1282    1.0000 0.18136  0.56864  0.14690  Biso   1.000  C
  C1283    1.0000 0.17879  0.07121  0.33510  Biso   1.000  C
  C1284    1.0000 0.17450  0.07550  0.28050  Biso   1.000  C
  C1285    1.0000 0.17240  0.07760  0.24950  Biso   1.000  C
  C1286    1.0000 0.19115  0.05885  0.62201  Biso   1.000  C
  C1287    1.0000 0.18136  0.06864  0.64690  Biso   1.000  C
  C1288    1.0000 0.57121  0.67879  0.33510  Biso   1.000  C
  C1289    1.0000 0.57550  0.67450  0.28050  Biso   1.000  C
  C1290    1.0000 0.57760  0.67240  0.24950  Biso   1.000  C
  C1291    1.0000 0.55885  0.69115  0.62201  Biso   1.000  C
  C1292    1.0000 0.56864  0.68136  0.64690  Biso   1.000  C
  C1293    1.0000 0.07121  0.67879  0.83510  Biso   1.000  C
  C1294    1.0000 0.07550  0.67450  0.78050  Biso   1.000  C
  C1295    1.0000 0.07760  0.67240  0.74950  Biso   1.000  C
  C1296    1.0000 0.05885  0.69115  0.12201  Biso   1.000  C
  C1297    1.0000 0.06864  0.68136  0.14690  Biso   1.000  C
  C1298    1.0000 0.67879  0.17879  0.41490  Biso   1.000  C
  C1299    1.0000 0.67450  0.17450  0.46950  Biso   1.000  C
  C1300    1.0000 0.67240  0.17240  0.50050  Biso   1.000  C
  C1301    1.0000 0.69115  0.19115  0.12799  Biso   1.000  C
  C1302    1.0000 0.68136  0.18136  0.10310  Biso   1.000  C
  C1303    1.0000 0.67879  0.67879  0.91490  Biso   1.000  C
  C1304    1.0000 0.67450  0.67450  0.96950  Biso   1.000  C
  C1305    1.0000 0.67240  0.67240  0.00050  Biso   1.000  C
  C1306    1.0000 0.69115  0.69115  0.62799  Biso   1.000  C
  C1307    1.0000 0.68136  0.68136  0.60310  Biso   1.000  C
  C1308    1.0000 0.17879  0.17879  0.91490  Biso   1.000  C
  C1309    1.0000 0.17450  0.17450  0.96950  Biso   1.000  C
  C1310    1.0000 0.17240  0.17240  0.00050  Biso   1.000  C
  C1311    1.0000 0.19115  0.19115  0.62799  Biso   1.000  C
  C1312    1.0000 0.18136  0.18136  0.60310  Biso   1.000  C
  C1313    1.0000 0.82121  0.16490  0.42879  Biso   1.000  C
  C1314    1.0000 0.82550  0.21950  0.42450  Biso   1.000  C
  C1315    1.0000 0.82760  0.25050  0.42240  Biso   1.000  C
  C1316    1.0000 0.80885  0.87799  0.44115  Biso   1.000  C
  C1317    1.0000 0.81864  0.85310  0.43136  Biso   1.000  C
  C1318    1.0000 0.82121  0.66490  0.92879  Biso   1.000  C
  C1319    1.0000 0.82550  0.71950  0.92450  Biso   1.000  C
  C1320    1.0000 0.82760  0.75050  0.92240  Biso   1.000  C
  C1321    1.0000 0.80885  0.37799  0.94115  Biso   1.000  C
  C1322    1.0000 0.81864  0.35310  0.93136  Biso   1.000  C
  C1323    1.0000 0.92879  0.08510  0.92879  Biso   1.000  C
  C1324    1.0000 0.92450  0.03050  0.92450  Biso   1.000  C
  C1325    1.0000 0.92240  0.99950  0.92240  Biso   1.000  C
  C1326    1.0000 0.94115  0.37201  0.94115  Biso   1.000  C
  C1327    1.0000 0.93136  0.39690  0.93136  Biso   1.000  C
  C1328    1.0000 0.92879  0.58510  0.42879  Biso   1.000  C
  C1329    1.0000 0.92450  0.53050  0.42450  Biso   1.000  C
  C1330    1.0000 0.92240  0.49950  0.42240  Biso   1.000  C
  C1331    1.0000 0.94115  0.87201  0.44115  Biso   1.000  C
  C1332    1.0000 0.93136  0.89690  0.43136  Biso   1.000  C
  C1333    1.0000 0.42879  0.08510  0.42879  Biso   1.000  C
  C1334    1.0000 0.42450  0.03050  0.42450  Biso   1.000  C
  C1335    1.0000 0.42240  0.99950  0.42240  Biso   1.000  C
  C1336    1.0000 0.44115  0.37201  0.44115  Biso   1.000  C
  C1337    1.0000 0.43136  0.39690  0.43136  Biso   1.000  C
  C1338    1.0000 0.42879  0.58510  0.92879  Biso   1.000  C
  C1339    1.0000 0.42450  0.53050  0.92450  Biso   1.000  C
  C1340    1.0000 0.42240  0.49950  0.92240  Biso   1.000  C
  C1341    1.0000 0.44115  0.87201  0.94115  Biso   1.000  C
  C1342    1.0000 0.43136  0.89690  0.93136  Biso   1.000  C
  C1343    1.0000 0.32121  0.58510  0.82121  Biso   1.000  C
  C1344    1.0000 0.32550  0.53050  0.82550  Biso   1.000  C
  C1345    1.0000 0.32760  0.49950  0.82760  Biso   1.000  C
  C1346    1.0000 0.30885  0.87201  0.80885  Biso   1.000  C
  C1347    1.0000 0.31864  0.89690  0.81864  Biso   1.000  C
  C1348    1.0000 0.32121  0.08510  0.32121  Biso   1.000  C
  C1349    1.0000 0.32550  0.03050  0.32550  Biso   1.000  C
  C1350    1.0000 0.32760  0.99950  0.32760  Biso   1.000  C
  C1351    1.0000 0.30885  0.37201  0.30885  Biso   1.000  C
  C1352    1.0000 0.31864  0.39690  0.31864  Biso   1.000  C
  C1353    1.0000 0.42879  0.66490  0.32121  Biso   1.000  C
  C1354    1.0000 0.42450  0.71950  0.32550  Biso   1.000  C
  C1355    1.0000 0.42240  0.75050  0.32760  Biso   1.000  C
  C1356    1.0000 0.44115  0.37799  0.30885  Biso   1.000  C
  C1357    1.0000 0.43136  0.35310  0.31864  Biso   1.000  C
  C1358    1.0000 0.92879  0.66490  0.82121  Biso   1.000  C
  C1359    1.0000 0.92450  0.71950  0.82550  Biso   1.000  C
  C1360    1.0000 0.92240  0.75050  0.82760  Biso   1.000  C
  C1361    1.0000 0.94115  0.37799  0.80885  Biso   1.000  C
  C1362    1.0000 0.93136  0.35310  0.81864  Biso   1.000  C
  C1363    1.0000 0.66490  0.32121  0.42879  Biso   1.000  C
  C1364    1.0000 0.71950  0.32550  0.42450  Biso   1.000  C
  C1365    1.0000 0.75050  0.32760  0.42240  Biso   1.000  C
  C1366    1.0000 0.37799  0.30885  0.44115  Biso   1.000  C
  C1367    1.0000 0.35310  0.31864  0.43136  Biso   1.000  C
  C1368    1.0000 0.66490  0.82121  0.92879  Biso   1.000  C
  C1369    1.0000 0.71950  0.82550  0.92450  Biso   1.000  C
  C1370    1.0000 0.75050  0.82760  0.92240  Biso   1.000  C
  C1371    1.0000 0.37799  0.80885  0.94115  Biso   1.000  C
  C1372    1.0000 0.35310  0.81864  0.93136  Biso   1.000  C
  C1373    1.0000 0.58510  0.82121  0.32121  Biso   1.000  C
  C1374    1.0000 0.53050  0.82550  0.32550  Biso   1.000  C
  C1375    1.0000 0.49950  0.82760  0.32760  Biso   1.000  C
  C1376    1.0000 0.87201  0.80885  0.30885  Biso   1.000  C
  C1377    1.0000 0.89690  0.81864  0.31864  Biso   1.000  C
  C1378    1.0000 0.08510  0.82121  0.82121  Biso   1.000  C
  C1379    1.0000 0.03050  0.82550  0.82550  Biso   1.000  C
  C1380    1.0000 0.99950  0.82760  0.82760  Biso   1.000  C
  C1381    1.0000 0.37201  0.80885  0.80885  Biso   1.000  C
  C1382    1.0000 0.39690  0.81864  0.81864  Biso   1.000  C
  C1383    1.0000 0.08510  0.32121  0.32121  Biso   1.000  C
  C1384    1.0000 0.03050  0.32550  0.32550  Biso   1.000  C
  C1385    1.0000 0.99950  0.32760  0.32760  Biso   1.000  C
  C1386    1.0000 0.37201  0.30885  0.30885  Biso   1.000  C
  C1387    1.0000 0.39690  0.31864  0.31864  Biso   1.000  C
  C1388    1.0000 0.08510  0.92879  0.92879  Biso   1.000  C
  C1389    1.0000 0.03050  0.92450  0.92450  Biso   1.000  C
  C1390    1.0000 0.99950  0.92240  0.92240  Biso   1.000  C
  C1391    1.0000 0.37201  0.94115  0.94115  Biso   1.000  C
  C1392    1.0000 0.39690  0.93136  0.93136  Biso   1.000  C
  C1393    1.0000 0.08510  0.42879  0.42879  Biso   1.000  C
  C1394    1.0000 0.03050  0.42450  0.42450  Biso   1.000  C
  C1395    1.0000 0.99950  0.42240  0.42240  Biso   1.000  C
  C1396    1.0000 0.37201  0.44115  0.44115  Biso   1.000  C
  C1397    1.0000 0.39690  0.43136  0.43136  Biso   1.000  C
  C1398    1.0000 0.58510  0.92879  0.42879  Biso   1.000  C
  C1399    1.0000 0.53050  0.92450  0.42450  Biso   1.000  C
  C1400    1.0000 0.49950  0.92240  0.42240  Biso   1.000  C
  C1401    1.0000 0.87201  0.94115  0.44115  Biso   1.000  C
  C1402    1.0000 0.89690  0.93136  0.43136  Biso   1.000  C
  C1403    1.0000 0.58510  0.42879  0.92879  Biso   1.000  C
  C1404    1.0000 0.53050  0.42450  0.92450  Biso   1.000  C
  C1405    1.0000 0.49950  0.42240  0.92240  Biso   1.000  C
  C1406    1.0000 0.87201  0.44115  0.94115  Biso   1.000  C
  C1407    1.0000 0.89690  0.43136  0.93136  Biso   1.000  C
  C1408    1.0000 0.16490  0.42879  0.82121  Biso   1.000  C
  C1409    1.0000 0.21950  0.42450  0.82550  Biso   1.000  C
  C1410    1.0000 0.25050  0.42240  0.82760  Biso   1.000  C
  C1411    1.0000 0.87799  0.44115  0.80885  Biso   1.000  C
  C1412    1.0000 0.85310  0.43136  0.81864  Biso   1.000  C
  C1413    1.0000 0.16490  0.92879  0.32121  Biso   1.000  C
  C1414    1.0000 0.21950  0.92450  0.32550  Biso   1.000  C
  C1415    1.0000 0.25050  0.92240  0.32760  Biso   1.000  C
  C1416    1.0000 0.87799  0.94115  0.30885  Biso   1.000  C
  C1417    1.0000 0.85310  0.93136  0.31864  Biso   1.000  C
  C1418    1.0000 0.82121  0.32121  0.58510  Biso   1.000  C
  C1419    1.0000 0.82550  0.32550  0.53050  Biso   1.000  C
  C1420    1.0000 0.82760  0.32760  0.49950  Biso   1.000  C
  C1421    1.0000 0.80885  0.30885  0.87201  Biso   1.000  C
  C1422    1.0000 0.81864  0.31864  0.89690  Biso   1.000  C
  C1423    1.0000 0.82121  0.82121  0.08510  Biso   1.000  C
  C1424    1.0000 0.82550  0.82550  0.03050  Biso   1.000  C
  C1425    1.0000 0.82760  0.82760  0.99950  Biso   1.000  C
  C1426    1.0000 0.80885  0.80885  0.37201  Biso   1.000  C
  C1427    1.0000 0.81864  0.81864  0.39690  Biso   1.000  C
  C1428    1.0000 0.32121  0.32121  0.08510  Biso   1.000  C
  C1429    1.0000 0.32550  0.32550  0.03050  Biso   1.000  C
  C1430    1.0000 0.32760  0.32760  0.99950  Biso   1.000  C
  C1431    1.0000 0.30885  0.30885  0.37201  Biso   1.000  C
  C1432    1.0000 0.31864  0.31864  0.39690  Biso   1.000  C
  C1433    1.0000 0.32121  0.42879  0.66490  Biso   1.000  C
  C1434    1.0000 0.32550  0.42450  0.71950  Biso   1.000  C
  C1435    1.0000 0.32760  0.42240  0.75050  Biso   1.000  C
  C1436    1.0000 0.30885  0.44115  0.37799  Biso   1.000  C
  C1437    1.0000 0.31864  0.43136  0.35310  Biso   1.000  C
  C1438    1.0000 0.32121  0.92879  0.16490  Biso   1.000  C
  C1439    1.0000 0.32550  0.92450  0.21950  Biso   1.000  C
  C1440    1.0000 0.32760  0.92240  0.25050  Biso   1.000  C
  C1441    1.0000 0.30885  0.94115  0.87799  Biso   1.000  C
  C1442    1.0000 0.31864  0.93136  0.85310  Biso   1.000  C
  C1443    1.0000 0.42879  0.82121  0.16490  Biso   1.000  C
  C1444    1.0000 0.42450  0.82550  0.21950  Biso   1.000  C
  C1445    1.0000 0.42240  0.82760  0.25050  Biso   1.000  C
  C1446    1.0000 0.44115  0.80885  0.87799  Biso   1.000  C
  C1447    1.0000 0.43136  0.81864  0.85310  Biso   1.000  C
  C1448    1.0000 0.92879  0.82121  0.66490  Biso   1.000  C
  C1449    1.0000 0.92450  0.82550  0.71950  Biso   1.000  C
  C1450    1.0000 0.92240  0.82760  0.75050  Biso   1.000  C
  C1451    1.0000 0.94115  0.80885  0.37799  Biso   1.000  C
  C1452    1.0000 0.93136  0.81864  0.35310  Biso   1.000  C
  C1453    1.0000 0.92879  0.92879  0.08510  Biso   1.000  C
  C1454    1.0000 0.92450  0.92450  0.03050  Biso   1.000  C
  C1455    1.0000 0.92240  0.92240  0.99950  Biso   1.000  C
  C1456    1.0000 0.94115  0.94115  0.37201  Biso   1.000  C
  C1457    1.0000 0.93136  0.93136  0.39690  Biso   1.000  C
  C1458    1.0000 0.92879  0.42879  0.58510  Biso   1.000  C
  C1459    1.0000 0.92450  0.42450  0.53050  Biso   1.000  C
  C1460    1.0000 0.92240  0.42240  0.49950  Biso   1.000  C
  C1461    1.0000 0.94115  0.44115  0.87201  Biso   1.000  C
  C1462    1.0000 0.93136  0.43136  0.89690  Biso   1.000  C
  C1463    1.0000 0.42879  0.92879  0.58510  Biso   1.000  C
  C1464    1.0000 0.42450  0.92450  0.53050  Biso   1.000  C
  C1465    1.0000 0.42240  0.92240  0.49950  Biso   1.000  C
  C1466    1.0000 0.44115  0.94115  0.87201  Biso   1.000  C
  C1467    1.0000 0.43136  0.93136  0.89690  Biso   1.000  C
  C1468    1.0000 0.42879  0.42879  0.08510  Biso   1.000  C
  C1469    1.0000 0.42450  0.42450  0.03050  Biso   1.000  C
  C1470    1.0000 0.42240  0.42240  0.99950  Biso   1.000  C
  C1471    1.0000 0.44115  0.44115  0.37201  Biso   1.000  C
  C1472    1.0000 0.43136  0.43136  0.39690  Biso   1.000  C
  C1473    1.0000 0.16490  0.82121  0.42879  Biso   1.000  C
  C1474    1.0000 0.21950  0.82550  0.42450  Biso   1.000  C
  C1475    1.0000 0.25050  0.82760  0.42240  Biso   1.000  C
  C1476    1.0000 0.87799  0.80885  0.44115  Biso   1.000  C
  C1477    1.0000 0.85310  0.81864  0.43136  Biso   1.000  C
  C1478    1.0000 0.16490  0.32121  0.92879  Biso   1.000  C
  C1479    1.0000 0.21950  0.32550  0.92450  Biso   1.000  C
  C1480    1.0000 0.25050  0.32760  0.92240  Biso   1.000  C
  C1481    1.0000 0.87799  0.30885  0.94115  Biso   1.000  C
  C1482    1.0000 0.85310  0.31864  0.93136  Biso   1.000  C
  C1483    1.0000 0.66490  0.42879  0.32121  Biso   1.000  C
  C1484    1.0000 0.71950  0.42450  0.32550  Biso   1.000  C
  C1485    1.0000 0.75050  0.42240  0.32760  Biso   1.000  C
  C1486    1.0000 0.37799  0.44115  0.30885  Biso   1.000  C
  C1487    1.0000 0.35310  0.43136  0.31864  Biso   1.000  C
  C1488    1.0000 0.66490  0.92879  0.82121  Biso   1.000  C
  C1489    1.0000 0.71950  0.92450  0.82550  Biso   1.000  C
  C1490    1.0000 0.75050  0.92240  0.82760  Biso   1.000  C
  C1491    1.0000 0.37799  0.94115  0.80885  Biso   1.000  C
  C1492    1.0000 0.35310  0.93136  0.81864  Biso   1.000  C
  C1493    1.0000 0.58510  0.32121  0.82121  Biso   1.000  C
  C1494    1.0000 0.53050  0.32550  0.82550  Biso   1.000  C
  C1495    1.0000 0.49950  0.32760  0.82760  Biso   1.000  C
  C1496    1.0000 0.87201  0.30885  0.80885  Biso   1.000  C
  C1497    1.0000 0.89690  0.31864  0.81864  Biso   1.000  C
  C1498    1.0000 0.42879  0.16490  0.82121  Biso   1.000  C
  C1499    1.0000 0.42450  0.21950  0.82550  Biso   1.000  C
  C1500    1.0000 0.42240  0.25050  0.82760  Biso   1.000  C
  C1501    1.0000 0.44115  0.87799  0.80885  Biso   1.000  C
  C1502    1.0000 0.43136  0.85310  0.81864  Biso   1.000  C
  C1503    1.0000 0.92879  0.16490  0.32121  Biso   1.000  C
  C1504    1.0000 0.92450  0.21950  0.32550  Biso   1.000  C
  C1505    1.0000 0.92240  0.25050  0.32760  Biso   1.000  C
  C1506    1.0000 0.94115  0.87799  0.30885  Biso   1.000  C
  C1507    1.0000 0.93136  0.85310  0.31864  Biso   1.000  C
  C1508    1.0000 0.32121  0.66490  0.42879  Biso   1.000  C
  C1509    1.0000 0.32550  0.71950  0.42450  Biso   1.000  C
  C1510    1.0000 0.32760  0.75050  0.42240  Biso   1.000  C
  C1511    1.0000 0.30885  0.37799  0.44115  Biso   1.000  C
  C1512    1.0000 0.31864  0.35310  0.43136  Biso   1.000  C
  C1513    1.0000 0.32121  0.16490  0.92879  Biso   1.000  C
  C1514    1.0000 0.32550  0.21950  0.92450  Biso   1.000  C
  C1515    1.0000 0.32760  0.25050  0.92240  Biso   1.000  C
  C1516    1.0000 0.30885  0.87799  0.94115  Biso   1.000  C
  C1517    1.0000 0.31864  0.85310  0.93136  Biso   1.000  C
  C1518    1.0000 0.82121  0.58510  0.32121  Biso   1.000  C
  C1519    1.0000 0.82550  0.53050  0.32550  Biso   1.000  C
  C1520    1.0000 0.82760  0.49950  0.32760  Biso   1.000  C
  C1521    1.0000 0.80885  0.87201  0.30885  Biso   1.000  C
  C1522    1.0000 0.81864  0.89690  0.31864  Biso   1.000  C
  C1523    1.0000 0.82121  0.08510  0.82121  Biso   1.000  C
  C1524    1.0000 0.82550  0.03050  0.82550  Biso   1.000  C
  C1525    1.0000 0.82760  0.99950  0.82760  Biso   1.000  C
  C1526    1.0000 0.80885  0.37201  0.80885  Biso   1.000  C
  C1527    1.0000 0.81864  0.39690  0.81864  Biso   1.000  C
  C1528    1.0000 0.82121  0.42879  0.16490  Biso   1.000  C
  C1529    1.0000 0.82550  0.42450  0.21950  Biso   1.000  C
  C1530    1.0000 0.82760  0.42240  0.25050  Biso   1.000  C
  C1531    1.0000 0.80885  0.44115  0.87799  Biso   1.000  C
  C1532    1.0000 0.81864  0.43136  0.85310  Biso   1.000  C
  C1533    1.0000 0.82121  0.92879  0.66490  Biso   1.000  C
  C1534    1.0000 0.82550  0.92450  0.71950  Biso   1.000  C
  C1535    1.0000 0.82760  0.92240  0.75050  Biso   1.000  C
  C1536    1.0000 0.80885  0.94115  0.37799  Biso   1.000  C
  C1537    1.0000 0.81864  0.93136  0.35310  Biso   1.000  C
  C1538    1.0000 0.42879  0.32121  0.66490  Biso   1.000  C
  C1539    1.0000 0.42450  0.32550  0.71950  Biso   1.000  C
  C1540    1.0000 0.42240  0.32760  0.75050  Biso   1.000  C
  C1541    1.0000 0.44115  0.30885  0.37799  Biso   1.000  C
  C1542    1.0000 0.43136  0.31864  0.35310  Biso   1.000  C
  C1543    1.0000 0.92879  0.32121  0.16490  Biso   1.000  C
  C1544    1.0000 0.92450  0.32550  0.21950  Biso   1.000  C
  C1545    1.0000 0.92240  0.32760  0.25050  Biso   1.000  C
  C1546    1.0000 0.94115  0.30885  0.87799  Biso   1.000  C
  C1547    1.0000 0.93136  0.31864  0.85310  Biso   1.000  C
  C1548    1.0000 0.32121  0.82121  0.58510  Biso   1.000  C
  C1549    1.0000 0.32550  0.82550  0.53050  Biso   1.000  C
  C1550    1.0000 0.32760  0.82760  0.49950  Biso   1.000  C
  C1551    1.0000 0.30885  0.80885  0.87201  Biso   1.000  C
  C1552    1.0000 0.31864  0.81864  0.89690  Biso   1.000  C
  C1553    1.0000 0.17879  0.83510  0.57121  Biso   1.000  C
  C1554    1.0000 0.17450  0.78050  0.57550  Biso   1.000  C
  C1555    1.0000 0.17240  0.74950  0.57760  Biso   1.000  C
  C1556    1.0000 0.19115  0.12201  0.55885  Biso   1.000  C
  C1557    1.0000 0.18136  0.14690  0.56864  Biso   1.000  C
  C1558    1.0000 0.17879  0.33510  0.07121  Biso   1.000  C
  C1559    1.0000 0.17450  0.28050  0.07550  Biso   1.000  C
  C1560    1.0000 0.17240  0.24950  0.07760  Biso   1.000  C
  C1561    1.0000 0.19115  0.62201  0.05885  Biso   1.000  C
  C1562    1.0000 0.18136  0.64690  0.06864  Biso   1.000  C
  C1563    1.0000 0.67879  0.41490  0.17879  Biso   1.000  C
  C1564    1.0000 0.67450  0.46950  0.17450  Biso   1.000  C
  C1565    1.0000 0.67240  0.50050  0.17240  Biso   1.000  C
  C1566    1.0000 0.69115  0.12799  0.19115  Biso   1.000  C
  C1567    1.0000 0.68136  0.10310  0.18136  Biso   1.000  C
  C1568    1.0000 0.67879  0.91490  0.67879  Biso   1.000  C
  C1569    1.0000 0.67450  0.96950  0.67450  Biso   1.000  C
  C1570    1.0000 0.67240  0.00050  0.67240  Biso   1.000  C
  C1571    1.0000 0.69115  0.62799  0.69115  Biso   1.000  C
  C1572    1.0000 0.68136  0.60310  0.68136  Biso   1.000  C
  C1573    1.0000 0.57121  0.33510  0.67879  Biso   1.000  C
  C1574    1.0000 0.57550  0.28050  0.67450  Biso   1.000  C
  C1575    1.0000 0.57760  0.24950  0.67240  Biso   1.000  C
  C1576    1.0000 0.55885  0.62201  0.69115  Biso   1.000  C
  C1577    1.0000 0.56864  0.64690  0.68136  Biso   1.000  C
  C1578    1.0000 0.07121  0.33510  0.17879  Biso   1.000  C
  C1579    1.0000 0.07550  0.28050  0.17450  Biso   1.000  C
  C1580    1.0000 0.07760  0.24950  0.17240  Biso   1.000  C
  C1581    1.0000 0.05885  0.62201  0.19115  Biso   1.000  C
  C1582    1.0000 0.06864  0.64690  0.18136  Biso   1.000  C
  C1583    1.0000 0.33510  0.67879  0.57121  Biso   1.000  C
  C1584    1.0000 0.28050  0.67450  0.57550  Biso   1.000  C
  C1585    1.0000 0.24950  0.67240  0.57760  Biso   1.000  C
  C1586    1.0000 0.62201  0.69115  0.55885  Biso   1.000  C
  C1587    1.0000 0.64690  0.68136  0.56864  Biso   1.000  C
  C1588    1.0000 0.33510  0.17879  0.07121  Biso   1.000  C
  C1589    1.0000 0.28050  0.17450  0.07550  Biso   1.000  C
  C1590    1.0000 0.24950  0.17240  0.07760  Biso   1.000  C
  C1591    1.0000 0.62201  0.19115  0.05885  Biso   1.000  C
  C1592    1.0000 0.64690  0.18136  0.06864  Biso   1.000  C
  C1593    1.0000 0.41490  0.17879  0.67879  Biso   1.000  C
  C1594    1.0000 0.46950  0.17450  0.67450  Biso   1.000  C
  C1595    1.0000 0.50050  0.17240  0.67240  Biso   1.000  C
  C1596    1.0000 0.12799  0.19115  0.69115  Biso   1.000  C
  C1597    1.0000 0.10310  0.18136  0.68136  Biso   1.000  C
  C1598    1.0000 0.83510  0.57121  0.17879  Biso   1.000  C
  C1599    1.0000 0.78050  0.57550  0.17450  Biso   1.000  C
  C1600    1.0000 0.74950  0.57760  0.17240  Biso   1.000  C
  C1601    1.0000 0.12201  0.55885  0.19115  Biso   1.000  C
  C1602    1.0000 0.14690  0.56864  0.18136  Biso   1.000  C
  C1603    1.0000 0.83510  0.07121  0.67879  Biso   1.000  C
  C1604    1.0000 0.78050  0.07550  0.67450  Biso   1.000  C
  C1605    1.0000 0.74950  0.07760  0.67240  Biso   1.000  C
  C1606    1.0000 0.12201  0.05885  0.69115  Biso   1.000  C
  C1607    1.0000 0.14690  0.06864  0.68136  Biso   1.000  C
  C1608    1.0000 0.17879  0.67879  0.41490  Biso   1.000  C
  C1609    1.0000 0.17450  0.67450  0.46950  Biso   1.000  C
  C1610    1.0000 0.17240  0.67240  0.50050  Biso   1.000  C
  C1611    1.0000 0.19115  0.69115  0.12799  Biso   1.000  C
  C1612    1.0000 0.18136  0.68136  0.10310  Biso   1.000  C
  C1613    1.0000 0.67879  0.57121  0.33510  Biso   1.000  C
  C1614    1.0000 0.67450  0.57550  0.28050  Biso   1.000  C
  C1615    1.0000 0.67240  0.57760  0.24950  Biso   1.000  C
  C1616    1.0000 0.69115  0.55885  0.62201  Biso   1.000  C
  C1617    1.0000 0.68136  0.56864  0.64690  Biso   1.000  C
  C1618    1.0000 0.67879  0.07121  0.83510  Biso   1.000  C
  C1619    1.0000 0.67450  0.07550  0.78050  Biso   1.000  C
  C1620    1.0000 0.67240  0.07760  0.74950  Biso   1.000  C
  C1621    1.0000 0.69115  0.05885  0.12201  Biso   1.000  C
  C1622    1.0000 0.68136  0.06864  0.14690  Biso   1.000  C
  C1623    1.0000 0.57121  0.17879  0.83510  Biso   1.000  C
  C1624    1.0000 0.57550  0.17450  0.78050  Biso   1.000  C
  C1625    1.0000 0.57760  0.17240  0.74950  Biso   1.000  C
  C1626    1.0000 0.55885  0.19115  0.12201  Biso   1.000  C
  C1627    1.0000 0.56864  0.18136  0.14690  Biso   1.000  C
  C1628    1.0000 0.07121  0.17879  0.33510  Biso   1.000  C
  C1629    1.0000 0.07550  0.17450  0.28050  Biso   1.000  C
  C1630    1.0000 0.07760  0.17240  0.24950  Biso   1.000  C
  C1631    1.0000 0.05885  0.19115  0.62201  Biso   1.000  C
  C1632    1.0000 0.06864  0.18136  0.64690  Biso   1.000  C
  C1633    1.0000 0.79200  0.11670  0.95800  Biso   1.000  C
  C1634    1.0000 0.75615  0.09400  0.99385  Biso   1.000  C
  C1635    1.0000 0.73686  0.08210  0.01314  Biso   1.000  C
  C1636    1.0000 0.29200  0.11670  0.45800  Biso   1.000  C
  C1637    1.0000 0.25615  0.09400  0.49385  Biso   1.000  C
  C1638    1.0000 0.23686  0.08210  0.51314  Biso   1.000  C
  C1639    1.0000 0.95800  0.13330  0.45800  Biso   1.000  C
  C1640    1.0000 0.99385  0.15600  0.49385  Biso   1.000  C
  C1641    1.0000 0.01314  0.16790  0.51314  Biso   1.000  C
  C1642    1.0000 0.95800  0.63330  0.95800  Biso   1.000  C
  C1643    1.0000 0.99385  0.65600  0.99385  Biso   1.000  C
  C1644    1.0000 0.01314  0.66790  0.01314  Biso   1.000  C
  C1645    1.0000 0.45800  0.61670  0.79200  Biso   1.000  C
  C1646    1.0000 0.49385  0.59400  0.75615  Biso   1.000  C
  C1647    1.0000 0.51314  0.58210  0.73686  Biso   1.000  C
  C1648    1.0000 0.45800  0.11670  0.29200  Biso   1.000  C
  C1649    1.0000 0.49385  0.09400  0.25615  Biso   1.000  C
  C1650    1.0000 0.51314  0.08210  0.23686  Biso   1.000  C
  C1651    1.0000 0.29200  0.63330  0.29200  Biso   1.000  C
  C1652    1.0000 0.25615  0.65600  0.25615  Biso   1.000  C
  C1653    1.0000 0.23686  0.66790  0.23686  Biso   1.000  C
  C1654    1.0000 0.29200  0.13330  0.79200  Biso   1.000  C
  C1655    1.0000 0.25615  0.15600  0.75615  Biso   1.000  C
  C1656    1.0000 0.23686  0.16790  0.73686  Biso   1.000  C
  C1657    1.0000 0.79200  0.63330  0.79200  Biso   1.000  C
  C1658    1.0000 0.75615  0.65600  0.75615  Biso   1.000  C
  C1659    1.0000 0.73686  0.66790  0.73686  Biso   1.000  C
  C1660    1.0000 0.79200  0.13330  0.29200  Biso   1.000  C
  C1661    1.0000 0.75615  0.15600  0.25615  Biso   1.000  C
  C1662    1.0000 0.73686  0.16790  0.23686  Biso   1.000  C
  C1663    1.0000 0.95800  0.79200  0.11670  Biso   1.000  C
  C1664    1.0000 0.99385  0.75615  0.09400  Biso   1.000  C
  C1665    1.0000 0.01314  0.73686  0.08210  Biso   1.000  C
  C1666    1.0000 0.95800  0.29200  0.61670  Biso   1.000  C
  C1667    1.0000 0.99385  0.25615  0.59400  Biso   1.000  C
  C1668    1.0000 0.01314  0.23686  0.58210  Biso   1.000  C
  C1669    1.0000 0.45800  0.95800  0.13330  Biso   1.000  C
  C1670    1.0000 0.49385  0.99385  0.15600  Biso   1.000  C
  C1671    1.0000 0.51314  0.01314  0.16790  Biso   1.000  C
  C1672    1.0000 0.45800  0.45800  0.63330  Biso   1.000  C
  C1673    1.0000 0.49385  0.49385  0.65600  Biso   1.000  C
  C1674    1.0000 0.51314  0.51314  0.66790  Biso   1.000  C
  C1675    1.0000 0.95800  0.95800  0.63330  Biso   1.000  C
  C1676    1.0000 0.99385  0.99385  0.65600  Biso   1.000  C
  C1677    1.0000 0.01314  0.01314  0.66790  Biso   1.000  C
  C1678    1.0000 0.79200  0.45800  0.61670  Biso   1.000  C
  C1679    1.0000 0.75615  0.49385  0.59400  Biso   1.000  C
  C1680    1.0000 0.73686  0.51314  0.58210  Biso   1.000  C
  C1681    1.0000 0.29200  0.45800  0.11670  Biso   1.000  C
  C1682    1.0000 0.25615  0.49385  0.09400  Biso   1.000  C
  C1683    1.0000 0.23686  0.51314  0.08210  Biso   1.000  C
  C1684    1.0000 0.29200  0.29200  0.63330  Biso   1.000  C
  C1685    1.0000 0.25615  0.25615  0.65600  Biso   1.000  C
  C1686    1.0000 0.23686  0.23686  0.66790  Biso   1.000  C
  C1687    1.0000 0.29200  0.79200  0.13330  Biso   1.000  C
  C1688    1.0000 0.25615  0.75615  0.15600  Biso   1.000  C
  C1689    1.0000 0.23686  0.73686  0.16790  Biso   1.000  C
  C1690    1.0000 0.79200  0.29200  0.13330  Biso   1.000  C
  C1691    1.0000 0.75615  0.25615  0.15600  Biso   1.000  C
  C1692    1.0000 0.73686  0.23686  0.16790  Biso   1.000  C
  C1693    1.0000 0.79200  0.79200  0.63330  Biso   1.000  C
  C1694    1.0000 0.75615  0.75615  0.65600  Biso   1.000  C
  C1695    1.0000 0.73686  0.73686  0.66790  Biso   1.000  C
  C1696    1.0000 0.11670  0.95800  0.79200  Biso   1.000  C
  C1697    1.0000 0.09400  0.99385  0.75615  Biso   1.000  C
  C1698    1.0000 0.08210  0.01314  0.73686  Biso   1.000  C
  C1699    1.0000 0.11670  0.45800  0.29200  Biso   1.000  C
  C1700    1.0000 0.09400  0.49385  0.25615  Biso   1.000  C
  C1701    1.0000 0.08210  0.51314  0.23686  Biso   1.000  C
  C1702    1.0000 0.13330  0.45800  0.95800  Biso   1.000  C
  C1703    1.0000 0.15600  0.49385  0.99385  Biso   1.000  C
  C1704    1.0000 0.16790  0.51314  0.01314  Biso   1.000  C
  C1705    1.0000 0.63330  0.45800  0.45800  Biso   1.000  C
  C1706    1.0000 0.65600  0.49385  0.49385  Biso   1.000  C
  C1707    1.0000 0.66790  0.51314  0.51314  Biso   1.000  C
  C1708    1.0000 0.63330  0.95800  0.95800  Biso   1.000  C
  C1709    1.0000 0.65600  0.99385  0.99385  Biso   1.000  C
  C1710    1.0000 0.66790  0.01314  0.01314  Biso   1.000  C
  C1711    1.0000 0.61670  0.79200  0.45800  Biso   1.000  C
  C1712    1.0000 0.59400  0.75615  0.49385  Biso   1.000  C
  C1713    1.0000 0.58210  0.73686  0.51314  Biso   1.000  C
  C1714    1.0000 0.61670  0.29200  0.95800  Biso   1.000  C
  C1715    1.0000 0.59400  0.25615  0.99385  Biso   1.000  C
  C1716    1.0000 0.58210  0.23686  0.01314  Biso   1.000  C
  C1717    1.0000 0.63330  0.29200  0.29200  Biso   1.000  C
  C1718    1.0000 0.65600  0.25615  0.25615  Biso   1.000  C
  C1719    1.0000 0.66790  0.23686  0.23686  Biso   1.000  C
  C1720    1.0000 0.63330  0.79200  0.79200  Biso   1.000  C
  C1721    1.0000 0.65600  0.75615  0.75615  Biso   1.000  C
  C1722    1.0000 0.66790  0.73686  0.73686  Biso   1.000  C
  C1723    1.0000 0.13330  0.29200  0.79200  Biso   1.000  C
  C1724    1.0000 0.15600  0.25615  0.75615  Biso   1.000  C
  C1725    1.0000 0.16790  0.23686  0.73686  Biso   1.000  C
  C1726    1.0000 0.13330  0.79200  0.29200  Biso   1.000  C
  C1727    1.0000 0.15600  0.75615  0.25615  Biso   1.000  C
  C1728    1.0000 0.16790  0.73686  0.23686  Biso   1.000  C
  C1729    1.0000 0.86670  0.04200  0.54200  Biso   1.000  C
  C1730    1.0000 0.84400  0.00615  0.50615  Biso   1.000  C
  C1731    1.0000 0.83210  0.98686  0.48686  Biso   1.000  C
  C1732    1.0000 0.36670  0.04200  0.04200  Biso   1.000  C
  C1733    1.0000 0.34400  0.00615  0.00615  Biso   1.000  C
  C1734    1.0000 0.33210  0.98686  0.98686  Biso   1.000  C
  C1735    1.0000 0.36670  0.54200  0.54200  Biso   1.000  C
  C1736    1.0000 0.34400  0.50615  0.50615  Biso   1.000  C
  C1737    1.0000 0.33210  0.48686  0.48686  Biso   1.000  C
  C1738    1.0000 0.88330  0.20800  0.04200  Biso   1.000  C
  C1739    1.0000 0.90600  0.24385  0.00615  Biso   1.000  C
  C1740    1.0000 0.91790  0.26314  0.98686  Biso   1.000  C
  C1741    1.0000 0.88330  0.70800  0.54200  Biso   1.000  C
  C1742    1.0000 0.90600  0.74385  0.50615  Biso   1.000  C
  C1743    1.0000 0.91790  0.76314  0.48686  Biso   1.000  C
  C1744    1.0000 0.38330  0.20800  0.54200  Biso   1.000  C
  C1745    1.0000 0.40600  0.24385  0.50615  Biso   1.000  C
  C1746    1.0000 0.41790  0.26314  0.48686  Biso   1.000  C
  C1747    1.0000 0.36670  0.70800  0.70800  Biso   1.000  C
  C1748    1.0000 0.34400  0.74385  0.74385  Biso   1.000  C
  C1749    1.0000 0.33210  0.76314  0.76314  Biso   1.000  C
  C1750    1.0000 0.36670  0.20800  0.20800  Biso   1.000  C
  C1751    1.0000 0.34400  0.24385  0.24385  Biso   1.000  C
  C1752    1.0000 0.33210  0.26314  0.26314  Biso   1.000  C
  C1753    1.0000 0.86670  0.70800  0.20800  Biso   1.000  C
  C1754    1.0000 0.84400  0.74385  0.24385  Biso   1.000  C
  C1755    1.0000 0.83210  0.76314  0.26314  Biso   1.000  C
  C1756    1.0000 0.86670  0.20800  0.70800  Biso   1.000  C
  C1757    1.0000 0.84400  0.24385  0.74385  Biso   1.000  C
  C1758    1.0000 0.83210  0.26314  0.76314  Biso   1.000  C
  C1759    1.0000 0.38330  0.54200  0.20800  Biso   1.000  C
  C1760    1.0000 0.40600  0.50615  0.24385  Biso   1.000  C
  C1761    1.0000 0.41790  0.48686  0.26314  Biso   1.000  C
  C1762    1.0000 0.38330  0.04200  0.70800  Biso   1.000  C
  C1763    1.0000 0.40600  0.00615  0.74385  Biso   1.000  C
  C1764    1.0000 0.41790  0.98686  0.76314  Biso   1.000  C
  C1765    1.0000 0.54200  0.20800  0.38330  Biso   1.000  C
  C1766    1.0000 0.50615  0.24385  0.40600  Biso   1.000  C
  C1767    1.0000 0.48686  0.26314  0.41790  Biso   1.000  C
  C1768    1.0000 0.54200  0.70800  0.88330  Biso   1.000  C
  C1769    1.0000 0.50615  0.74385  0.90600  Biso   1.000  C
  C1770    1.0000 0.48686  0.76314  0.91790  Biso   1.000  C
  C1771    1.0000 0.70800  0.70800  0.36670  Biso   1.000  C
  C1772    1.0000 0.74385  0.74385  0.34400  Biso   1.000  C
  C1773    1.0000 0.76314  0.76314  0.33210  Biso   1.000  C
  C1774    1.0000 0.70800  0.20800  0.86670  Biso   1.000  C
  C1775    1.0000 0.74385  0.24385  0.84400  Biso   1.000  C
  C1776    1.0000 0.76314  0.26314  0.83210  Biso   1.000  C
  C1777    1.0000 0.20800  0.70800  0.86670  Biso   1.000  C
  C1778    1.0000 0.24385  0.74385  0.84400  Biso   1.000  C
  C1779    1.0000 0.26314  0.76314  0.83210  Biso   1.000  C
  C1780    1.0000 0.20800  0.20800  0.36670  Biso   1.000  C
  C1781    1.0000 0.24385  0.24385  0.34400  Biso   1.000  C
  C1782    1.0000 0.26314  0.26314  0.33210  Biso   1.000  C
  C1783    1.0000 0.20800  0.04200  0.88330  Biso   1.000  C
  C1784    1.0000 0.24385  0.00615  0.90600  Biso   1.000  C
  C1785    1.0000 0.26314  0.98686  0.91790  Biso   1.000  C
  C1786    1.0000 0.20800  0.54200  0.38330  Biso   1.000  C
  C1787    1.0000 0.24385  0.50615  0.40600  Biso   1.000  C
  C1788    1.0000 0.26314  0.48686  0.41790  Biso   1.000  C
  C1789    1.0000 0.70800  0.04200  0.38330  Biso   1.000  C
  C1790    1.0000 0.74385  0.00615  0.40600  Biso   1.000  C
  C1791    1.0000 0.76314  0.98686  0.41790  Biso   1.000  C
  C1792    1.0000 0.04200  0.54200  0.86670  Biso   1.000  C
  C1793    1.0000 0.00615  0.50615  0.84400  Biso   1.000  C
  C1794    1.0000 0.98686  0.48686  0.83210  Biso   1.000  C
  C1795    1.0000 0.04200  0.04200  0.36670  Biso   1.000  C
  C1796    1.0000 0.00615  0.00615  0.34400  Biso   1.000  C
  C1797    1.0000 0.98686  0.98686  0.33210  Biso   1.000  C
  C1798    1.0000 0.54200  0.54200  0.36670  Biso   1.000  C
  C1799    1.0000 0.50615  0.50615  0.34400  Biso   1.000  C
  C1800    1.0000 0.48686  0.48686  0.33210  Biso   1.000  C
  C1801    1.0000 0.70800  0.36670  0.70800  Biso   1.000  C
  C1802    1.0000 0.74385  0.34400  0.74385  Biso   1.000  C
  C1803    1.0000 0.76314  0.33210  0.76314  Biso   1.000  C
  C1804    1.0000 0.70800  0.86670  0.20800  Biso   1.000  C
  C1805    1.0000 0.74385  0.84400  0.24385  Biso   1.000  C
  C1806    1.0000 0.76314  0.83210  0.26314  Biso   1.000  C
  C1807    1.0000 0.20800  0.36670  0.20800  Biso   1.000  C
  C1808    1.0000 0.24385  0.34400  0.24385  Biso   1.000  C
  C1809    1.0000 0.26314  0.33210  0.26314  Biso   1.000  C
  C1810    1.0000 0.20800  0.86670  0.70800  Biso   1.000  C
  C1811    1.0000 0.24385  0.84400  0.74385  Biso   1.000  C
  C1812    1.0000 0.26314  0.83210  0.76314  Biso   1.000  C
  C1813    1.0000 0.20800  0.38330  0.54200  Biso   1.000  C
  C1814    1.0000 0.24385  0.40600  0.50615  Biso   1.000  C
  C1815    1.0000 0.26314  0.41790  0.48686  Biso   1.000  C
  C1816    1.0000 0.70800  0.38330  0.04200  Biso   1.000  C
  C1817    1.0000 0.74385  0.40600  0.00615  Biso   1.000  C
  C1818    1.0000 0.76314  0.41790  0.98686  Biso   1.000  C
  C1819    1.0000 0.54200  0.86670  0.04200  Biso   1.000  C
  C1820    1.0000 0.50615  0.84400  0.00615  Biso   1.000  C
  C1821    1.0000 0.48686  0.83210  0.98686  Biso   1.000  C
  C1822    1.0000 0.54200  0.36670  0.54200  Biso   1.000  C
  C1823    1.0000 0.50615  0.34400  0.50615  Biso   1.000  C
  C1824    1.0000 0.48686  0.33210  0.48686  Biso   1.000  C
  C1825    1.0000 0.04200  0.88330  0.20800  Biso   1.000  C
  C1826    1.0000 0.00615  0.90600  0.24385  Biso   1.000  C
  C1827    1.0000 0.98686  0.91790  0.26314  Biso   1.000  C
  C1828    1.0000 0.04200  0.38330  0.70800  Biso   1.000  C
  C1829    1.0000 0.00615  0.40600  0.74385  Biso   1.000  C
  C1830    1.0000 0.98686  0.41790  0.76314  Biso   1.000  C
  C1831    1.0000 0.54200  0.38330  0.20800  Biso   1.000  C
  C1832    1.0000 0.50615  0.40600  0.24385  Biso   1.000  C
  C1833    1.0000 0.48686  0.41790  0.26314  Biso   1.000  C
  C1834    1.0000 0.20800  0.88330  0.04200  Biso   1.000  C
  C1835    1.0000 0.24385  0.90600  0.00615  Biso   1.000  C
  C1836    1.0000 0.26314  0.91790  0.98686  Biso   1.000  C
  C1837    1.0000 0.70800  0.88330  0.54200  Biso   1.000  C
  C1838    1.0000 0.74385  0.90600  0.50615  Biso   1.000  C
  C1839    1.0000 0.76314  0.91790  0.48686  Biso   1.000  C
  C1840    1.0000 0.04200  0.86670  0.54200  Biso   1.000  C
  C1841    1.0000 0.00615  0.84400  0.50615  Biso   1.000  C
  C1842    1.0000 0.98686  0.83210  0.48686  Biso   1.000  C
  C1843    1.0000 0.04200  0.36670  0.04200  Biso   1.000  C
  C1844    1.0000 0.00615  0.34400  0.00615  Biso   1.000  C
  C1845    1.0000 0.98686  0.33210  0.98686  Biso   1.000  C
  C1846    1.0000 0.54200  0.88330  0.70800  Biso   1.000  C
  C1847    1.0000 0.50615  0.90600  0.74385  Biso   1.000  C
  C1848    1.0000 0.48686  0.91790  0.76314  Biso   1.000  C
  C1849    1.0000 0.04200  0.20800  0.88330  Biso   1.000  C
  C1850    1.0000 0.00615  0.24385  0.90600  Biso   1.000  C
  C1851    1.0000 0.98686  0.26314  0.91790  Biso   1.000  C
  C1852    1.0000 0.04200  0.70800  0.38330  Biso   1.000  C
  C1853    1.0000 0.00615  0.74385  0.40600  Biso   1.000  C
  C1854    1.0000 0.98686  0.76314  0.41790  Biso   1.000  C
  C1855    1.0000 0.54200  0.04200  0.86670  Biso   1.000  C
  C1856    1.0000 0.50615  0.00615  0.84400  Biso   1.000  C
  C1857    1.0000 0.48686  0.98686  0.83210  Biso   1.000  C
  C1858    1.0000 0.70800  0.54200  0.88330  Biso   1.000  C
  C1859    1.0000 0.74385  0.50615  0.90600  Biso   1.000  C
  C1860    1.0000 0.76314  0.48686  0.91790  Biso   1.000  C
  C1861    1.0000 0.88330  0.04200  0.20800  Biso   1.000  C
  C1862    1.0000 0.90600  0.00615  0.24385  Biso   1.000  C
  C1863    1.0000 0.91790  0.98686  0.26314  Biso   1.000  C
  C1864    1.0000 0.88330  0.54200  0.70800  Biso   1.000  C
  C1865    1.0000 0.90600  0.50615  0.74385  Biso   1.000  C
  C1866    1.0000 0.91790  0.48686  0.76314  Biso   1.000  C
  C1867    1.0000 0.86670  0.54200  0.04200  Biso   1.000  C
  C1868    1.0000 0.84400  0.50615  0.00615  Biso   1.000  C
  C1869    1.0000 0.83210  0.48686  0.98686  Biso   1.000  C
  C1870    1.0000 0.38330  0.70800  0.04200  Biso   1.000  C
  C1871    1.0000 0.40600  0.74385  0.00615  Biso   1.000  C
  C1872    1.0000 0.41790  0.76314  0.98686  Biso   1.000  C
  C1873    1.0000 0.13330  0.95800  0.45800  Biso   1.000  C
  C1874    1.0000 0.15600  0.99385  0.49385  Biso   1.000  C
  C1875    1.0000 0.16790  0.01314  0.51314  Biso   1.000  C
  C1876    1.0000 0.11670  0.79200  0.95800  Biso   1.000  C
  C1877    1.0000 0.09400  0.75615  0.99385  Biso   1.000  C
  C1878    1.0000 0.08210  0.73686  0.01314  Biso   1.000  C
  C1879    1.0000 0.11670  0.29200  0.45800  Biso   1.000  C
  C1880    1.0000 0.09400  0.25615  0.49385  Biso   1.000  C
  C1881    1.0000 0.08210  0.23686  0.51314  Biso   1.000  C
  C1882    1.0000 0.61670  0.45800  0.79200  Biso   1.000  C
  C1883    1.0000 0.59400  0.49385  0.75615  Biso   1.000  C
  C1884    1.0000 0.58210  0.51314  0.73686  Biso   1.000  C
  C1885    1.0000 0.61670  0.95800  0.29200  Biso   1.000  C
  C1886    1.0000 0.59400  0.99385  0.25615  Biso   1.000  C
  C1887    1.0000 0.58210  0.01314  0.23686  Biso   1.000  C
  C1888    1.0000 0.45800  0.79200  0.61670  Biso   1.000  C
  C1889    1.0000 0.49385  0.75615  0.59400  Biso   1.000  C
  C1890    1.0000 0.51314  0.73686  0.58210  Biso   1.000  C
  C1891    1.0000 0.45800  0.29200  0.11670  Biso   1.000  C
  C1892    1.0000 0.49385  0.25615  0.09400  Biso   1.000  C
  C1893    1.0000 0.51314  0.23686  0.08210  Biso   1.000  C
  C1894    1.0000 0.79200  0.95800  0.11670  Biso   1.000  C
  C1895    1.0000 0.75615  0.99385  0.09400  Biso   1.000  C
  C1896    1.0000 0.73686  0.01314  0.08210  Biso   1.000  C
  C1897    1.0000 0.29200  0.95800  0.61670  Biso   1.000  C
  C1898    1.0000 0.25615  0.99385  0.59400  Biso   1.000  C
  C1899    1.0000 0.23686  0.01314  0.58210  Biso   1.000  C
  C1900    1.0000 0.95800  0.45800  0.13330  Biso   1.000  C
  C1901    1.0000 0.99385  0.49385  0.15600  Biso   1.000  C
  C1902    1.0000 0.01314  0.51314  0.16790  Biso   1.000  C
  C1903    1.0000 0.79200  0.61670  0.45800  Biso   1.000  C
  C1904    1.0000 0.75615  0.59400  0.49385  Biso   1.000  C
  C1905    1.0000 0.73686  0.58210  0.51314  Biso   1.000  C
  C1906    1.0000 0.29200  0.61670  0.95800  Biso   1.000  C
  C1907    1.0000 0.25615  0.59400  0.99385  Biso   1.000  C
  C1908    1.0000 0.23686  0.58210  0.01314  Biso   1.000  C
  C1909    1.0000 0.45800  0.13330  0.95800  Biso   1.000  C
  C1910    1.0000 0.49385  0.15600  0.99385  Biso   1.000  C
  C1911    1.0000 0.51314  0.16790  0.01314  Biso   1.000  C
  C1912    1.0000 0.45800  0.63330  0.45800  Biso   1.000  C
  C1913    1.0000 0.49385  0.65600  0.49385  Biso   1.000  C
  C1914    1.0000 0.51314  0.66790  0.51314  Biso   1.000  C
  C1915    1.0000 0.95800  0.11670  0.79200  Biso   1.000  C
  C1916    1.0000 0.99385  0.09400  0.75615  Biso   1.000  C
  C1917    1.0000 0.01314  0.08210  0.73686  Biso   1.000  C
  C1918    1.0000 0.95800  0.61670  0.29200  Biso   1.000  C
  C1919    1.0000 0.99385  0.59400  0.25615  Biso   1.000  C
  C1920    1.0000 0.01314  0.58210  0.23686  Biso   1.000  C
  C1921    1.0000 0.59078  0.09078  0.05785  Biso   1.000  C
  C1922    1.0000 0.59078  0.59078  0.55785  Biso   1.000  C
  C1923    1.0000 0.15922  0.15922  0.55785  Biso   1.000  C
  C1924    1.0000 0.15922  0.65922  0.05785  Biso   1.000  C
  C1925    1.0000 0.65922  0.15922  0.05785  Biso   1.000  C
  C1926    1.0000 0.65922  0.65922  0.55785  Biso   1.000  C
  C1927    1.0000 0.65922  0.59078  0.69215  Biso   1.000  C
  C1928    1.0000 0.15922  0.59078  0.19215  Biso   1.000  C
  C1929    1.0000 0.09078  0.65922  0.19215  Biso   1.000  C
  C1930    1.0000 0.09078  0.15922  0.69215  Biso   1.000  C
  C1931    1.0000 0.05785  0.59078  0.09078  Biso   1.000  C
  C1932    1.0000 0.55785  0.59078  0.59078  Biso   1.000  C
  C1933    1.0000 0.55785  0.15922  0.15922  Biso   1.000  C
  C1934    1.0000 0.55785  0.65922  0.65922  Biso   1.000  C
  C1935    1.0000 0.05785  0.15922  0.65922  Biso   1.000  C
  C1936    1.0000 0.05785  0.65922  0.15922  Biso   1.000  C
  C1937    1.0000 0.69215  0.65922  0.59078  Biso   1.000  C
  C1938    1.0000 0.69215  0.15922  0.09078  Biso   1.000  C
  C1939    1.0000 0.19215  0.09078  0.65922  Biso   1.000  C
  C1940    1.0000 0.19215  0.59078  0.15922  Biso   1.000  C
  C1941    1.0000 0.09078  0.05785  0.59078  Biso   1.000  C
  C1942    1.0000 0.09078  0.55785  0.09078  Biso   1.000  C
  C1943    1.0000 0.15922  0.55785  0.15922  Biso   1.000  C
  C1944    1.0000 0.15922  0.05785  0.65922  Biso   1.000  C
  C1945    1.0000 0.65922  0.55785  0.65922  Biso   1.000  C
  C1946    1.0000 0.65922  0.05785  0.15922  Biso   1.000  C
  C1947    1.0000 0.59078  0.69215  0.65922  Biso   1.000  C
  C1948    1.0000 0.59078  0.19215  0.15922  Biso   1.000  C
  C1949    1.0000 0.65922  0.19215  0.09078  Biso   1.000  C
  C1950    1.0000 0.15922  0.19215  0.59078  Biso   1.000  C
  C1951    1.0000 0.84078  0.84078  0.44215  Biso   1.000  C
  C1952    1.0000 0.84078  0.34078  0.94215  Biso   1.000  C
  C1953    1.0000 0.34078  0.84078  0.94215  Biso   1.000  C
  C1954    1.0000 0.34078  0.34078  0.44215  Biso   1.000  C
  C1955    1.0000 0.90922  0.40922  0.94215  Biso   1.000  C
  C1956    1.0000 0.90922  0.90922  0.44215  Biso   1.000  C
  C1957    1.0000 0.34078  0.90922  0.80785  Biso   1.000  C
  C1958    1.0000 0.84078  0.90922  0.30785  Biso   1.000  C
  C1959    1.0000 0.40922  0.34078  0.30785  Biso   1.000  C
  C1960    1.0000 0.40922  0.84078  0.80785  Biso   1.000  C
  C1961    1.0000 0.34078  0.30785  0.40922  Biso   1.000  C
  C1962    1.0000 0.84078  0.30785  0.90922  Biso   1.000  C
  C1963    1.0000 0.90922  0.80785  0.34078  Biso   1.000  C
  C1964    1.0000 0.90922  0.30785  0.84078  Biso   1.000  C
  C1965    1.0000 0.40922  0.94215  0.90922  Biso   1.000  C
  C1966    1.0000 0.40922  0.44215  0.40922  Biso   1.000  C
  C1967    1.0000 0.84078  0.44215  0.84078  Biso   1.000  C
  C1968    1.0000 0.84078  0.94215  0.34078  Biso   1.000  C
  C1969    1.0000 0.34078  0.44215  0.34078  Biso   1.000  C
  C1970    1.0000 0.34078  0.94215  0.84078  Biso   1.000  C
  C1971    1.0000 0.80785  0.34078  0.90922  Biso   1.000  C
  C1972    1.0000 0.80785  0.84078  0.40922  Biso   1.000  C
  C1973    1.0000 0.30785  0.40922  0.34078  Biso   1.000  C
  C1974    1.0000 0.30785  0.90922  0.84078  Biso   1.000  C
  C1975    1.0000 0.44215  0.84078  0.84078  Biso   1.000  C
  C1976    1.0000 0.44215  0.34078  0.34078  Biso   1.000  C
  C1977    1.0000 0.94215  0.84078  0.34078  Biso   1.000  C
  C1978    1.0000 0.94215  0.34078  0.84078  Biso   1.000  C
  C1979    1.0000 0.94215  0.90922  0.40922  Biso   1.000  C
  C1980    1.0000 0.44215  0.90922  0.90922  Biso   1.000  C
  C1981    1.0000 0.40922  0.90922  0.94215  Biso   1.000  C
  C1982    1.0000 0.40922  0.40922  0.44215  Biso   1.000  C
  C1983    1.0000 0.34078  0.40922  0.30785  Biso   1.000  C
  C1984    1.0000 0.84078  0.40922  0.80785  Biso   1.000  C
  C1985    1.0000 0.90922  0.34078  0.80785  Biso   1.000  C
  C1986    1.0000 0.90922  0.84078  0.30785  Biso   1.000  C
  C1987    1.0000 0.94215  0.40922  0.90922  Biso   1.000  C
  C1988    1.0000 0.44215  0.40922  0.40922  Biso   1.000  C
  C1989    1.0000 0.30785  0.34078  0.40922  Biso   1.000  C
  C1990    1.0000 0.30785  0.84078  0.90922  Biso   1.000  C
  C1991    1.0000 0.80785  0.90922  0.34078  Biso   1.000  C
  C1992    1.0000 0.80785  0.40922  0.84078  Biso   1.000  C
  C1993    1.0000 0.90922  0.94215  0.40922  Biso   1.000  C
  C1994    1.0000 0.90922  0.44215  0.90922  Biso   1.000  C
  C1995    1.0000 0.40922  0.30785  0.34078  Biso   1.000  C
  C1996    1.0000 0.40922  0.80785  0.84078  Biso   1.000  C
  C1997    1.0000 0.34078  0.80785  0.90922  Biso   1.000  C
  C1998    1.0000 0.84078  0.80785  0.40922  Biso   1.000  C
  C1999    1.0000 0.09078  0.59078  0.05785  Biso   1.000  C
  C2000    1.0000 0.09078  0.09078  0.55785  Biso   1.000  C
  C2001    1.0000 0.65922  0.09078  0.19215  Biso   1.000  C
  C2002    1.0000 0.15922  0.09078  0.69215  Biso   1.000  C
  C2003    1.0000 0.59078  0.65922  0.69215  Biso   1.000  C
  C2004    1.0000 0.59078  0.15922  0.19215  Biso   1.000  C
  C2005    1.0000 0.65922  0.69215  0.59078  Biso   1.000  C
  C2006    1.0000 0.15922  0.69215  0.09078  Biso   1.000  C
  C2007    1.0000 0.09078  0.19215  0.65922  Biso   1.000  C
  C2008    1.0000 0.09078  0.69215  0.15922  Biso   1.000  C
  C2009    1.0000 0.59078  0.05785  0.09078  Biso   1.000  C
  C2010    1.0000 0.59078  0.55785  0.59078  Biso   1.000  C
  C2011    1.0000 0.19215  0.65922  0.09078  Biso   1.000  C
  C2012    1.0000 0.19215  0.15922  0.59078  Biso   1.000  C
  C2013    1.0000 0.69215  0.59078  0.65922  Biso   1.000  C
  C2014    1.0000 0.69215  0.09078  0.15922  Biso   1.000  C
  C2015    1.0000 0.05785  0.09078  0.59078  Biso   1.000  C
  C2016    1.0000 0.55785  0.09078  0.09078  Biso   1.000  C
