data_image0
_cell_length_a       13.6907
_cell_length_b       22.2234
_cell_length_c       22.1776
_cell_angle_alpha    90
_cell_angle_beta     90
_cell_angle_gamma    90

_symmetry_space_group_name_H-M    "P 1"
_symmetry_int_tables_number       1

loop_
  _symmetry_equiv_pos_as_xyz
  'x, y, z'

loop_
  _atom_site_label
  _atom_site_occupancy
  _atom_site_fract_x
  _atom_site_fract_y
  _atom_site_fract_z
  _atom_site_thermal_displace_type
  _atom_site_B_iso_or_equiv
  _atom_site_type_symbol
  N1       1.0000 0.24180  0.49353  0.34130  Biso   1.000  N
  C1       1.0000 0.31700  0.30900  0.21640  Biso   1.000  C
  H1       1.0000 0.36330  0.28940  0.19280  Biso   1.000  H
  C2       1.0000 0.31460  0.37100  0.21800  Biso   1.000  C
  H2       1.0000 0.36070  0.39200  0.19560  Biso   1.000  H
  C3       1.0000 0.23750  0.49840  0.46570  Biso   1.000  C
  C4       1.0000 0.16560  0.52500  0.43270  Biso   1.000  C
  H3       1.0000 0.11420  0.54480  0.45160  Biso   1.000  H
  C5       1.0000 0.31150  0.46870  0.43610  Biso   1.000  C
  H4       1.0000 0.36180  0.45070  0.45770  Biso   1.000  H
  C6       1.0000 0.31510  0.17630  0.21630  Biso   1.000  C
  H5       1.0000 0.36110  0.19620  0.19270  Biso   1.000  H
  C7       1.0000 0.31030  0.46610  0.37320  Biso   1.000  C
  H6       1.0000 0.35870  0.44450  0.35330  Biso   1.000  H
  C8       1.0000 0.17070  0.52190  0.37030  Biso   1.000  C
  H7       1.0000 0.12200  0.54060  0.34780  Biso   1.000  H
  C9       1.0000 0.31300  0.11470  0.21680  Biso   1.000  C
  H8       1.0000 0.35750  0.09380  0.19300  Biso   1.000  H
  N2       1.0000 0.25820  0.50647  0.84130  Biso   1.000  N
  C10      1.0000 0.18300  0.69100  0.71640  Biso   1.000  C
  H9       1.0000 0.13670  0.71060  0.69280  Biso   1.000  H
  C11      1.0000 0.18540  0.62900  0.71800  Biso   1.000  C
  H10      1.0000 0.13930  0.60800  0.69560  Biso   1.000  H
  C12      1.0000 0.26250  0.50160  0.96570  Biso   1.000  C
  C13      1.0000 0.33440  0.47500  0.93270  Biso   1.000  C
  H11      1.0000 0.38580  0.45520  0.95160  Biso   1.000  H
  C14      1.0000 0.18850  0.53130  0.93610  Biso   1.000  C
  H12      1.0000 0.13820  0.54930  0.95770  Biso   1.000  H
  C15      1.0000 0.18490  0.82370  0.71630  Biso   1.000  C
  H13      1.0000 0.13890  0.80380  0.69270  Biso   1.000  H
  C16      1.0000 0.18970  0.53390  0.87320  Biso   1.000  C
  H14      1.0000 0.14130  0.55550  0.85330  Biso   1.000  H
  C17      1.0000 0.32930  0.47810  0.87030  Biso   1.000  C
  H15      1.0000 0.37800  0.45940  0.84780  Biso   1.000  H
  C18      1.0000 0.18700  0.88530  0.71680  Biso   1.000  C
  H16      1.0000 0.14250  0.90620  0.69300  Biso   1.000  H
  N3       1.0000 0.25820  0.49353  0.15870  Biso   1.000  N
  C19      1.0000 0.18300  0.30900  0.28360  Biso   1.000  C
  H17      1.0000 0.13670  0.28940  0.30720  Biso   1.000  H
  C20      1.0000 0.18540  0.37100  0.28200  Biso   1.000  C
  H18      1.0000 0.13930  0.39200  0.30440  Biso   1.000  H
  C21      1.0000 0.26250  0.49840  0.03430  Biso   1.000  C
  C22      1.0000 0.33440  0.52500  0.06730  Biso   1.000  C
  H19      1.0000 0.38580  0.54480  0.04840  Biso   1.000  H
  C23      1.0000 0.18850  0.46870  0.06390  Biso   1.000  C
  H20      1.0000 0.13820  0.45070  0.04230  Biso   1.000  H
  C24      1.0000 0.18490  0.17630  0.28370  Biso   1.000  C
  H21      1.0000 0.13890  0.19620  0.30730  Biso   1.000  H
  C25      1.0000 0.18970  0.46610  0.12680  Biso   1.000  C
  H22      1.0000 0.14130  0.44450  0.14670  Biso   1.000  H
  C26      1.0000 0.32930  0.52190  0.12970  Biso   1.000  C
  H23      1.0000 0.37800  0.54060  0.15220  Biso   1.000  H
  C27      1.0000 0.18700  0.11470  0.28320  Biso   1.000  C
  H24      1.0000 0.14250  0.09380  0.30700  Biso   1.000  H
  N4       1.0000 0.24180  0.50647  0.65870  Biso   1.000  N
  C28      1.0000 0.31700  0.69100  0.78360  Biso   1.000  C
  H25      1.0000 0.36330  0.71060  0.80720  Biso   1.000  H
  C29      1.0000 0.31460  0.62900  0.78200  Biso   1.000  C
  H26      1.0000 0.36070  0.60800  0.80440  Biso   1.000  H
  C30      1.0000 0.23750  0.50160  0.53430  Biso   1.000  C
  C31      1.0000 0.16560  0.47500  0.56730  Biso   1.000  C
  H27      1.0000 0.11420  0.45520  0.54840  Biso   1.000  H
  C32      1.0000 0.31150  0.53130  0.56390  Biso   1.000  C
  H28      1.0000 0.36180  0.54930  0.54230  Biso   1.000  H
  C33      1.0000 0.31510  0.82370  0.78370  Biso   1.000  C
  H29      1.0000 0.36110  0.80380  0.80730  Biso   1.000  H
  C34      1.0000 0.31030  0.53390  0.62680  Biso   1.000  C
  H30      1.0000 0.35870  0.55550  0.64670  Biso   1.000  H
  C35      1.0000 0.17070  0.47810  0.62970  Biso   1.000  C
  H31      1.0000 0.12200  0.45940  0.65220  Biso   1.000  H
  C36      1.0000 0.31300  0.88530  0.78320  Biso   1.000  C
  H32      1.0000 0.35750  0.90620  0.80700  Biso   1.000  H
  N5       1.0000 0.25820  0.00647  0.65870  Biso   1.000  N
  C37      1.0000 0.18300  0.19100  0.78360  Biso   1.000  C
  H33      1.0000 0.13670  0.21060  0.80720  Biso   1.000  H
  C38      1.0000 0.18540  0.12900  0.78200  Biso   1.000  C
  H34      1.0000 0.13930  0.10800  0.80440  Biso   1.000  H
  C39      1.0000 0.26250  0.00160  0.53430  Biso   1.000  C
  C40      1.0000 0.33440  0.97500  0.56730  Biso   1.000  C
  H35      1.0000 0.38580  0.95520  0.54840  Biso   1.000  H
  C41      1.0000 0.18850  0.03130  0.56390  Biso   1.000  C
  H36      1.0000 0.13820  0.04930  0.54230  Biso   1.000  H
  C42      1.0000 0.18490  0.32370  0.78370  Biso   1.000  C
  H37      1.0000 0.13890  0.30380  0.80730  Biso   1.000  H
  C43      1.0000 0.18970  0.03390  0.62680  Biso   1.000  C
  H38      1.0000 0.14130  0.05550  0.64670  Biso   1.000  H
  C44      1.0000 0.32930  0.97810  0.62970  Biso   1.000  C
  H39      1.0000 0.37800  0.95940  0.65220  Biso   1.000  H
  C45      1.0000 0.18700  0.38530  0.78320  Biso   1.000  C
  H40      1.0000 0.14250  0.40620  0.80700  Biso   1.000  H
  N6       1.0000 0.24180  0.99353  0.15870  Biso   1.000  N
  C46      1.0000 0.31700  0.80900  0.28360  Biso   1.000  C
  H41      1.0000 0.36330  0.78940  0.30720  Biso   1.000  H
  C47      1.0000 0.31460  0.87100  0.28200  Biso   1.000  C
  H42      1.0000 0.36070  0.89200  0.30440  Biso   1.000  H
  C48      1.0000 0.23750  0.99840  0.03430  Biso   1.000  C
  C49      1.0000 0.16560  0.02500  0.06730  Biso   1.000  C
  H43      1.0000 0.11420  0.04480  0.04840  Biso   1.000  H
  C50      1.0000 0.31150  0.96870  0.06390  Biso   1.000  C
  H44      1.0000 0.36180  0.95070  0.04230  Biso   1.000  H
  C51      1.0000 0.31510  0.67630  0.28370  Biso   1.000  C
  H45      1.0000 0.36110  0.69620  0.30730  Biso   1.000  H
  C52      1.0000 0.31030  0.96610  0.12680  Biso   1.000  C
  H46      1.0000 0.35870  0.94450  0.14670  Biso   1.000  H
  C53      1.0000 0.17070  0.02190  0.12970  Biso   1.000  C
  H47      1.0000 0.12200  0.04060  0.15220  Biso   1.000  H
  C54      1.0000 0.31300  0.61470  0.28320  Biso   1.000  C
  H48      1.0000 0.35750  0.59380  0.30700  Biso   1.000  H
  N7       1.0000 0.24180  0.00647  0.84130  Biso   1.000  N
  C55      1.0000 0.31700  0.19100  0.71640  Biso   1.000  C
  H49      1.0000 0.36330  0.21060  0.69280  Biso   1.000  H
  C56      1.0000 0.31460  0.12900  0.71800  Biso   1.000  C
  H50      1.0000 0.36070  0.10800  0.69560  Biso   1.000  H
  C57      1.0000 0.23750  0.00160  0.96570  Biso   1.000  C
  C58      1.0000 0.16560  0.97500  0.93270  Biso   1.000  C
  H51      1.0000 0.11420  0.95520  0.95160  Biso   1.000  H
  C59      1.0000 0.31150  0.03130  0.93610  Biso   1.000  C
  H52      1.0000 0.36180  0.04930  0.95770  Biso   1.000  H
  C60      1.0000 0.31510  0.32370  0.71630  Biso   1.000  C
  H53      1.0000 0.36110  0.30380  0.69270  Biso   1.000  H
  C61      1.0000 0.31030  0.03390  0.87320  Biso   1.000  C
  H54      1.0000 0.35870  0.05550  0.85330  Biso   1.000  H
  C62      1.0000 0.17070  0.97810  0.87030  Biso   1.000  C
  H55      1.0000 0.12200  0.95940  0.84780  Biso   1.000  H
  C63      1.0000 0.31300  0.38530  0.71680  Biso   1.000  C
  H56      1.0000 0.35750  0.40620  0.69300  Biso   1.000  H
  N8       1.0000 0.25820  0.99353  0.34130  Biso   1.000  N
  C64      1.0000 0.18300  0.80900  0.21640  Biso   1.000  C
  H57      1.0000 0.13670  0.78940  0.19280  Biso   1.000  H
  C65      1.0000 0.18540  0.87100  0.21800  Biso   1.000  C
  H58      1.0000 0.13930  0.89200  0.19560  Biso   1.000  H
  C66      1.0000 0.26250  0.99840  0.46570  Biso   1.000  C
  C67      1.0000 0.33440  0.02500  0.43270  Biso   1.000  C
  H59      1.0000 0.38580  0.04480  0.45160  Biso   1.000  H
  C68      1.0000 0.18850  0.96870  0.43610  Biso   1.000  C
  H60      1.0000 0.13820  0.95070  0.45770  Biso   1.000  H
  C69      1.0000 0.18490  0.67630  0.21630  Biso   1.000  C
  H61      1.0000 0.13890  0.69620  0.19270  Biso   1.000  H
  C70      1.0000 0.18970  0.96610  0.37320  Biso   1.000  C
  H62      1.0000 0.14130  0.94450  0.35330  Biso   1.000  H
  C71      1.0000 0.32930  0.02190  0.37030  Biso   1.000  C
  H63      1.0000 0.37800  0.04060  0.34780  Biso   1.000  H
  C72      1.0000 0.18700  0.61470  0.21680  Biso   1.000  C
  H64      1.0000 0.14250  0.59380  0.19300  Biso   1.000  H
  Cu1      1.0000 0.25000  0.49254  0.25000  Biso   1.000  Cu
  N9       1.0000 0.25000  0.40250  0.25000  Biso   1.000  N
  C73      1.0000 0.25000  0.27520  0.25000  Biso   1.000  C
  C74      1.0000 0.25000  0.20890  0.25000  Biso   1.000  C
  N10      1.0000 0.25000  0.08340  0.25000  Biso   1.000  N
  Cu2      1.0000 0.25000  0.50746  0.75000  Biso   1.000  Cu
  N11      1.0000 0.25000  0.59750  0.75000  Biso   1.000  N
  C75      1.0000 0.25000  0.72480  0.75000  Biso   1.000  C
  C76      1.0000 0.25000  0.79110  0.75000  Biso   1.000  C
  N12      1.0000 0.25000  0.91660  0.75000  Biso   1.000  N
  Cu3      1.0000 0.25000  0.99254  0.25000  Biso   1.000  Cu
  N13      1.0000 0.25000  0.90250  0.25000  Biso   1.000  N
  C77      1.0000 0.25000  0.77520  0.25000  Biso   1.000  C
  C78      1.0000 0.25000  0.70890  0.25000  Biso   1.000  C
  N14      1.0000 0.25000  0.58340  0.25000  Biso   1.000  N
  Cu4      1.0000 0.25000  0.00746  0.75000  Biso   1.000  Cu
  N15      1.0000 0.25000  0.09750  0.75000  Biso   1.000  N
  C79      1.0000 0.25000  0.22480  0.75000  Biso   1.000  C
  C80      1.0000 0.25000  0.29110  0.75000  Biso   1.000  C
  N16      1.0000 0.25000  0.41660  0.75000  Biso   1.000  N
  N17      1.0000 0.74180  0.99353  0.34130  Biso   1.000  N
  C81      1.0000 0.81700  0.80900  0.21640  Biso   1.000  C
  H65      1.0000 0.86330  0.78940  0.19280  Biso   1.000  H
  C82      1.0000 0.81460  0.87100  0.21800  Biso   1.000  C
  H66      1.0000 0.86070  0.89200  0.19560  Biso   1.000  H
  C83      1.0000 0.73750  0.99840  0.46570  Biso   1.000  C
  C84      1.0000 0.66560  0.02500  0.43270  Biso   1.000  C
  H67      1.0000 0.61420  0.04480  0.45160  Biso   1.000  H
  C85      1.0000 0.81150  0.96870  0.43610  Biso   1.000  C
  H68      1.0000 0.86180  0.95070  0.45770  Biso   1.000  H
  C86      1.0000 0.81510  0.67630  0.21630  Biso   1.000  C
  H69      1.0000 0.86110  0.69620  0.19270  Biso   1.000  H
  C87      1.0000 0.81030  0.96610  0.37320  Biso   1.000  C
  H70      1.0000 0.85870  0.94450  0.35330  Biso   1.000  H
  C88      1.0000 0.67070  0.02190  0.37030  Biso   1.000  C
  H71      1.0000 0.62200  0.04060  0.34780  Biso   1.000  H
  C89      1.0000 0.81300  0.61470  0.21680  Biso   1.000  C
  H72      1.0000 0.85750  0.59380  0.19300  Biso   1.000  H
  N18      1.0000 0.75820  0.00647  0.84130  Biso   1.000  N
  C90      1.0000 0.68300  0.19100  0.71640  Biso   1.000  C
  H73      1.0000 0.63670  0.21060  0.69280  Biso   1.000  H
  C91      1.0000 0.68540  0.12900  0.71800  Biso   1.000  C
  H74      1.0000 0.63930  0.10800  0.69560  Biso   1.000  H
  C92      1.0000 0.76250  0.00160  0.96570  Biso   1.000  C
  C93      1.0000 0.83440  0.97500  0.93270  Biso   1.000  C
  H75      1.0000 0.88580  0.95520  0.95160  Biso   1.000  H
  C94      1.0000 0.68850  0.03130  0.93610  Biso   1.000  C
  H76      1.0000 0.63820  0.04930  0.95770  Biso   1.000  H
  C95      1.0000 0.68490  0.32370  0.71630  Biso   1.000  C
  H77      1.0000 0.63890  0.30380  0.69270  Biso   1.000  H
  C96      1.0000 0.68970  0.03390  0.87320  Biso   1.000  C
  H78      1.0000 0.64130  0.05550  0.85330  Biso   1.000  H
  C97      1.0000 0.82930  0.97810  0.87030  Biso   1.000  C
  H79      1.0000 0.87800  0.95940  0.84780  Biso   1.000  H
  C98      1.0000 0.68700  0.38530  0.71680  Biso   1.000  C
  H80      1.0000 0.64250  0.40620  0.69300  Biso   1.000  H
  N19      1.0000 0.75820  0.99353  0.15870  Biso   1.000  N
  C99      1.0000 0.68300  0.80900  0.28360  Biso   1.000  C
  H81      1.0000 0.63670  0.78940  0.30720  Biso   1.000  H
  C100     1.0000 0.68540  0.87100  0.28200  Biso   1.000  C
  H82      1.0000 0.63930  0.89200  0.30440  Biso   1.000  H
  C101     1.0000 0.76250  0.99840  0.03430  Biso   1.000  C
  C102     1.0000 0.83440  0.02500  0.06730  Biso   1.000  C
  H83      1.0000 0.88580  0.04480  0.04840  Biso   1.000  H
  C103     1.0000 0.68850  0.96870  0.06390  Biso   1.000  C
  H84      1.0000 0.63820  0.95070  0.04230  Biso   1.000  H
  C104     1.0000 0.68490  0.67630  0.28370  Biso   1.000  C
  H85      1.0000 0.63890  0.69620  0.30730  Biso   1.000  H
  C105     1.0000 0.68970  0.96610  0.12680  Biso   1.000  C
  H86      1.0000 0.64130  0.94450  0.14670  Biso   1.000  H
  C106     1.0000 0.82930  0.02190  0.12970  Biso   1.000  C
  H87      1.0000 0.87800  0.04060  0.15220  Biso   1.000  H
  C107     1.0000 0.68700  0.61470  0.28320  Biso   1.000  C
  H88      1.0000 0.64250  0.59380  0.30700  Biso   1.000  H
  N20      1.0000 0.74180  0.00647  0.65870  Biso   1.000  N
  C108     1.0000 0.81700  0.19100  0.78360  Biso   1.000  C
  H89      1.0000 0.86330  0.21060  0.80720  Biso   1.000  H
  C109     1.0000 0.81460  0.12900  0.78200  Biso   1.000  C
  H90      1.0000 0.86070  0.10800  0.80440  Biso   1.000  H
  C110     1.0000 0.73750  0.00160  0.53430  Biso   1.000  C
  C111     1.0000 0.66560  0.97500  0.56730  Biso   1.000  C
  H91      1.0000 0.61420  0.95520  0.54840  Biso   1.000  H
  C112     1.0000 0.81150  0.03130  0.56390  Biso   1.000  C
  H92      1.0000 0.86180  0.04930  0.54230  Biso   1.000  H
  C113     1.0000 0.81510  0.32370  0.78370  Biso   1.000  C
  H93      1.0000 0.86110  0.30380  0.80730  Biso   1.000  H
  C114     1.0000 0.81030  0.03390  0.62680  Biso   1.000  C
  H94      1.0000 0.85870  0.05550  0.64670  Biso   1.000  H
  C115     1.0000 0.67070  0.97810  0.62970  Biso   1.000  C
  H95      1.0000 0.62200  0.95940  0.65220  Biso   1.000  H
  C116     1.0000 0.81300  0.38530  0.78320  Biso   1.000  C
  H96      1.0000 0.85750  0.40620  0.80700  Biso   1.000  H
  N21      1.0000 0.75820  0.50647  0.65870  Biso   1.000  N
  C117     1.0000 0.68300  0.69100  0.78360  Biso   1.000  C
  H97      1.0000 0.63670  0.71060  0.80720  Biso   1.000  H
  C118     1.0000 0.68540  0.62900  0.78200  Biso   1.000  C
  H98      1.0000 0.63930  0.60800  0.80440  Biso   1.000  H
  C119     1.0000 0.76250  0.50160  0.53430  Biso   1.000  C
  C120     1.0000 0.83440  0.47500  0.56730  Biso   1.000  C
  H99      1.0000 0.88580  0.45520  0.54840  Biso   1.000  H
  C121     1.0000 0.68850  0.53130  0.56390  Biso   1.000  C
  H100     1.0000 0.63820  0.54930  0.54230  Biso   1.000  H
  C122     1.0000 0.68490  0.82370  0.78370  Biso   1.000  C
  H101     1.0000 0.63890  0.80380  0.80730  Biso   1.000  H
  C123     1.0000 0.68970  0.53390  0.62680  Biso   1.000  C
  H102     1.0000 0.64130  0.55550  0.64670  Biso   1.000  H
  C124     1.0000 0.82930  0.47810  0.62970  Biso   1.000  C
  H103     1.0000 0.87800  0.45940  0.65220  Biso   1.000  H
  C125     1.0000 0.68700  0.88530  0.78320  Biso   1.000  C
  H104     1.0000 0.64250  0.90620  0.80700  Biso   1.000  H
  N22      1.0000 0.74180  0.49353  0.15870  Biso   1.000  N
  C126     1.0000 0.81700  0.30900  0.28360  Biso   1.000  C
  H105     1.0000 0.86330  0.28940  0.30720  Biso   1.000  H
  C127     1.0000 0.81460  0.37100  0.28200  Biso   1.000  C
  H106     1.0000 0.86070  0.39200  0.30440  Biso   1.000  H
  C128     1.0000 0.73750  0.49840  0.03430  Biso   1.000  C
  C129     1.0000 0.66560  0.52500  0.06730  Biso   1.000  C
  H107     1.0000 0.61420  0.54480  0.04840  Biso   1.000  H
  C130     1.0000 0.81150  0.46870  0.06390  Biso   1.000  C
  H108     1.0000 0.86180  0.45070  0.04230  Biso   1.000  H
  C131     1.0000 0.81510  0.17630  0.28370  Biso   1.000  C
  H109     1.0000 0.86110  0.19620  0.30730  Biso   1.000  H
  C132     1.0000 0.81030  0.46610  0.12680  Biso   1.000  C
  H110     1.0000 0.85870  0.44450  0.14670  Biso   1.000  H
  C133     1.0000 0.67070  0.52190  0.12970  Biso   1.000  C
  H111     1.0000 0.62200  0.54060  0.15220  Biso   1.000  H
  C134     1.0000 0.81300  0.11470  0.28320  Biso   1.000  C
  H112     1.0000 0.85750  0.09380  0.30700  Biso   1.000  H
  N23      1.0000 0.74180  0.50647  0.84130  Biso   1.000  N
  C135     1.0000 0.81700  0.69100  0.71640  Biso   1.000  C
  H113     1.0000 0.86330  0.71060  0.69280  Biso   1.000  H
  C136     1.0000 0.81460  0.62900  0.71800  Biso   1.000  C
  H114     1.0000 0.86070  0.60800  0.69560  Biso   1.000  H
  C137     1.0000 0.73750  0.50160  0.96570  Biso   1.000  C
  C138     1.0000 0.66560  0.47500  0.93270  Biso   1.000  C
  H115     1.0000 0.61420  0.45520  0.95160  Biso   1.000  H
  C139     1.0000 0.81150  0.53130  0.93610  Biso   1.000  C
  H116     1.0000 0.86180  0.54930  0.95770  Biso   1.000  H
  C140     1.0000 0.81510  0.82370  0.71630  Biso   1.000  C
  H117     1.0000 0.86110  0.80380  0.69270  Biso   1.000  H
  C141     1.0000 0.81030  0.53390  0.87320  Biso   1.000  C
  H118     1.0000 0.85870  0.55550  0.85330  Biso   1.000  H
  C142     1.0000 0.67070  0.47810  0.87030  Biso   1.000  C
  H119     1.0000 0.62200  0.45940  0.84780  Biso   1.000  H
  C143     1.0000 0.81300  0.88530  0.71680  Biso   1.000  C
  H120     1.0000 0.85750  0.90620  0.69300  Biso   1.000  H
  N24      1.0000 0.75820  0.49353  0.34130  Biso   1.000  N
  C144     1.0000 0.68300  0.30900  0.21640  Biso   1.000  C
  H121     1.0000 0.63670  0.28940  0.19280  Biso   1.000  H
  C145     1.0000 0.68540  0.37100  0.21800  Biso   1.000  C
  H122     1.0000 0.63930  0.39200  0.19560  Biso   1.000  H
  C146     1.0000 0.76250  0.49840  0.46570  Biso   1.000  C
  C147     1.0000 0.83440  0.52500  0.43270  Biso   1.000  C
  H123     1.0000 0.88580  0.54480  0.45160  Biso   1.000  H
  C148     1.0000 0.68850  0.46870  0.43610  Biso   1.000  C
  H124     1.0000 0.63820  0.45070  0.45770  Biso   1.000  H
  C149     1.0000 0.68490  0.17630  0.21630  Biso   1.000  C
  H125     1.0000 0.63890  0.19620  0.19270  Biso   1.000  H
  C150     1.0000 0.68970  0.46610  0.37320  Biso   1.000  C
  H126     1.0000 0.64130  0.44450  0.35330  Biso   1.000  H
  C151     1.0000 0.82930  0.52190  0.37030  Biso   1.000  C
  H127     1.0000 0.87800  0.54060  0.34780  Biso   1.000  H
  C152     1.0000 0.68700  0.11470  0.21680  Biso   1.000  C
  H128     1.0000 0.64250  0.09380  0.19300  Biso   1.000  H
  Cu5      1.0000 0.75000  0.00746  0.75000  Biso   1.000  Cu
  N25      1.0000 0.75000  0.09750  0.75000  Biso   1.000  N
  C153     1.0000 0.75000  0.22480  0.75000  Biso   1.000  C
  C154     1.0000 0.75000  0.29110  0.75000  Biso   1.000  C
  N26      1.0000 0.75000  0.41660  0.75000  Biso   1.000  N
  Cu6      1.0000 0.75000  0.99254  0.25000  Biso   1.000  Cu
  N27      1.0000 0.75000  0.90250  0.25000  Biso   1.000  N
  C155     1.0000 0.75000  0.77520  0.25000  Biso   1.000  C
  C156     1.0000 0.75000  0.70890  0.25000  Biso   1.000  C
  N28      1.0000 0.75000  0.58340  0.25000  Biso   1.000  N
  Cu7      1.0000 0.75000  0.50746  0.75000  Biso   1.000  Cu
  N29      1.0000 0.75000  0.59750  0.75000  Biso   1.000  N
  C157     1.0000 0.75000  0.72480  0.75000  Biso   1.000  C
  C158     1.0000 0.75000  0.79110  0.75000  Biso   1.000  C
  N30      1.0000 0.75000  0.91660  0.75000  Biso   1.000  N
  Cu8      1.0000 0.75000  0.49254  0.25000  Biso   1.000  Cu
  N31      1.0000 0.75000  0.40250  0.25000  Biso   1.000  N
  C159     1.0000 0.75000  0.27520  0.25000  Biso   1.000  C
  C160     1.0000 0.75000  0.20890  0.25000  Biso   1.000  C
  N32      1.0000 0.75000  0.08340  0.25000  Biso   1.000  N
  O1       1.0000 0.70800  0.70600  0.05360  Biso   1.000  O
  N33      1.0000 0.59100  0.73890  0.11640  Biso   1.000  N
  C161     1.0000 0.66600  0.74590  0.08040  Biso   1.000  C
  H129     1.0000 0.68900  0.78480  0.07480  Biso   1.000  H
  C162     1.0000 0.55300  0.68050  0.12800  Biso   1.000  C
  H130     1.0000 0.53170  0.66230  0.09140  Biso   1.000  H
  H131     1.0000 0.60270  0.65600  0.14660  Biso   1.000  H
  C163     1.0000 0.54400  0.78940  0.14600  Biso   1.000  C
  H132     1.0000 0.49110  0.77510  0.17050  Biso   1.000  H
  H133     1.0000 0.59100  0.80950  0.17150  Biso   1.000  H
  H134     1.0000 0.52000  0.81700  0.11650  Biso   1.000  H
  O2       1.0000 0.78000  0.69900  0.95400  Biso   1.000  O
  N34      1.0000 0.72900  0.76600  0.02400  Biso   1.000  N
  C164     1.0000 0.74200  0.71100  0.00200  Biso   1.000  C
  H135     1.0000 0.72020  0.67950  0.02570  Biso   1.000  H
  C165     1.0000 0.75900  0.81700  0.99000  Biso   1.000  C
  H136     1.0000 0.74400  0.85310  0.01260  Biso   1.000  H
  H137     1.0000 0.82760  0.81530  0.98250  Biso   1.000  H
  H138     1.0000 0.72410  0.81810  0.95250  Biso   1.000  H
  C166     1.0000 0.68400  0.77600  0.08200  Biso   1.000  C
  H139     1.0000 0.68150  0.81880  0.08980  Biso   1.000  H
  H140     1.0000 0.61900  0.76020  0.08200  Biso   1.000  H
  H141     1.0000 0.72180  0.75700  0.11300  Biso   1.000  H
  O3       1.0000 0.20800  0.79400  0.94640  Biso   1.000  O
  N35      1.0000 0.09100  0.76110  0.88360  Biso   1.000  N
  C167     1.0000 0.16600  0.75410  0.91960  Biso   1.000  C
  H142     1.0000 0.18900  0.71520  0.92520  Biso   1.000  H
  C168     1.0000 0.05300  0.81950  0.87200  Biso   1.000  C
  H143     1.0000 0.03170  0.83770  0.90860  Biso   1.000  H
  H144     1.0000 0.10270  0.84400  0.85340  Biso   1.000  H
  C169     1.0000 0.04400  0.71060  0.85400  Biso   1.000  C
  H145     1.0000 0.99110  0.72490  0.82950  Biso   1.000  H
  H146     1.0000 0.09100  0.69050  0.82850  Biso   1.000  H
  H147     1.0000 0.02000  0.68300  0.88350  Biso   1.000  H
  O4       1.0000 0.28000  0.80100  0.04600  Biso   1.000  O
  N36      1.0000 0.22900  0.73400  0.97600  Biso   1.000  N
  C170     1.0000 0.24200  0.78900  0.99800  Biso   1.000  C
  H148     1.0000 0.22020  0.82050  0.97430  Biso   1.000  H
  C171     1.0000 0.25900  0.68300  0.01000  Biso   1.000  C
  H149     1.0000 0.24400  0.64690  0.98740  Biso   1.000  H
  H150     1.0000 0.32760  0.68470  0.01750  Biso   1.000  H
  H151     1.0000 0.22410  0.68190  0.04750  Biso   1.000  H
  C172     1.0000 0.18400  0.72400  0.91800  Biso   1.000  C
  H152     1.0000 0.18150  0.68120  0.91020  Biso   1.000  H
  H153     1.0000 0.11900  0.73980  0.91800  Biso   1.000  H
  H154     1.0000 0.22180  0.74300  0.88700  Biso   1.000  H
  O5       1.0000 0.79200  0.79400  0.94640  Biso   1.000  O
  N37      1.0000 0.90900  0.76110  0.88360  Biso   1.000  N
  C173     1.0000 0.83400  0.75410  0.91960  Biso   1.000  C
  H155     1.0000 0.81100  0.71520  0.92520  Biso   1.000  H
  C174     1.0000 0.94700  0.81950  0.87200  Biso   1.000  C
  H156     1.0000 0.96830  0.83770  0.90860  Biso   1.000  H
  H157     1.0000 0.89730  0.84400  0.85340  Biso   1.000  H
  C175     1.0000 0.95600  0.71060  0.85400  Biso   1.000  C
  H158     1.0000 0.00890  0.72490  0.82950  Biso   1.000  H
  H159     1.0000 0.90900  0.69050  0.82850  Biso   1.000  H
  H160     1.0000 0.98000  0.68300  0.88350  Biso   1.000  H
  O6       1.0000 0.72000  0.80100  0.04600  Biso   1.000  O
  N38      1.0000 0.77100  0.73400  0.97600  Biso   1.000  N
  C176     1.0000 0.75800  0.78900  0.99800  Biso   1.000  C
  H161     1.0000 0.77980  0.82050  0.97430  Biso   1.000  H
  C177     1.0000 0.74100  0.68300  0.01000  Biso   1.000  C
  H162     1.0000 0.75600  0.64690  0.98740  Biso   1.000  H
  H163     1.0000 0.67240  0.68470  0.01750  Biso   1.000  H
  H164     1.0000 0.77590  0.68190  0.04750  Biso   1.000  H
  C178     1.0000 0.81600  0.72400  0.91800  Biso   1.000  C
  H165     1.0000 0.81850  0.68120  0.91020  Biso   1.000  H
  H166     1.0000 0.88100  0.73980  0.91800  Biso   1.000  H
  H167     1.0000 0.77820  0.74300  0.88700  Biso   1.000  H
  O7       1.0000 0.29200  0.70600  0.05360  Biso   1.000  O
  N39      1.0000 0.40900  0.73890  0.11640  Biso   1.000  N
  C179     1.0000 0.33400  0.74590  0.08040  Biso   1.000  C
  H168     1.0000 0.31100  0.78480  0.07480  Biso   1.000  H
  C180     1.0000 0.44700  0.68050  0.12800  Biso   1.000  C
  H169     1.0000 0.46830  0.66230  0.09140  Biso   1.000  H
  H170     1.0000 0.39730  0.65600  0.14660  Biso   1.000  H
  C181     1.0000 0.45600  0.78940  0.14600  Biso   1.000  C
  H171     1.0000 0.50890  0.77510  0.17050  Biso   1.000  H
  H172     1.0000 0.40900  0.80950  0.17150  Biso   1.000  H
  H173     1.0000 0.48000  0.81700  0.11650  Biso   1.000  H
  O8       1.0000 0.22000  0.69900  0.95400  Biso   1.000  O
  N40      1.0000 0.27100  0.76600  0.02400  Biso   1.000  N
  C182     1.0000 0.25800  0.71100  0.00200  Biso   1.000  C
  H174     1.0000 0.27980  0.67950  0.02570  Biso   1.000  H
  C183     1.0000 0.24100  0.81700  0.99000  Biso   1.000  C
  H175     1.0000 0.25600  0.85310  0.01260  Biso   1.000  H
  H176     1.0000 0.17240  0.81530  0.98250  Biso   1.000  H
  H177     1.0000 0.27590  0.81810  0.95250  Biso   1.000  H
  C184     1.0000 0.31600  0.77600  0.08200  Biso   1.000  C
  H178     1.0000 0.31850  0.81880  0.08980  Biso   1.000  H
  H179     1.0000 0.38100  0.76020  0.08200  Biso   1.000  H
  H180     1.0000 0.27820  0.75700  0.11300  Biso   1.000  H
  H181     1.0000 0.50000  0.68370  0.15560  Biso   1.000  H
  O9       1.0000 0.50000  0.73300  0.16800  Biso   1.000  O
  O10      1.0000 0.50000  0.63200  0.13850  Biso   1.000  O
  H182     1.0000 0.00000  0.81630  0.84440  Biso   1.000  H
  O11      1.0000 0.00000  0.76700  0.83200  Biso   1.000  O
  O12      1.0000 0.00000  0.86800  0.86150  Biso   1.000  O
  O13      1.0000 0.20800  0.20600  0.05360  Biso   1.000  O
  N41      1.0000 0.09100  0.23890  0.11640  Biso   1.000  N
  C185     1.0000 0.16600  0.24590  0.08040  Biso   1.000  C
  H183     1.0000 0.18900  0.28480  0.07480  Biso   1.000  H
  C186     1.0000 0.05300  0.18050  0.12800  Biso   1.000  C
  H184     1.0000 0.03170  0.16230  0.09140  Biso   1.000  H
  H185     1.0000 0.10270  0.15600  0.14660  Biso   1.000  H
  C187     1.0000 0.04400  0.28940  0.14600  Biso   1.000  C
  H186     1.0000 0.99110  0.27510  0.17050  Biso   1.000  H
  H187     1.0000 0.09100  0.30950  0.17150  Biso   1.000  H
  H188     1.0000 0.02000  0.31700  0.11650  Biso   1.000  H
  O14      1.0000 0.28000  0.19900  0.95400  Biso   1.000  O
  N42      1.0000 0.22900  0.26600  0.02400  Biso   1.000  N
  C188     1.0000 0.24200  0.21100  0.00200  Biso   1.000  C
  H189     1.0000 0.22020  0.17950  0.02570  Biso   1.000  H
  C189     1.0000 0.25900  0.31700  0.99000  Biso   1.000  C
  H190     1.0000 0.24400  0.35310  0.01260  Biso   1.000  H
  H191     1.0000 0.32760  0.31530  0.98250  Biso   1.000  H
  H192     1.0000 0.22410  0.31810  0.95250  Biso   1.000  H
  C190     1.0000 0.18400  0.27600  0.08200  Biso   1.000  C
  H193     1.0000 0.18150  0.31880  0.08980  Biso   1.000  H
  H194     1.0000 0.11900  0.26020  0.08200  Biso   1.000  H
  H195     1.0000 0.22180  0.25700  0.11300  Biso   1.000  H
  O15      1.0000 0.70800  0.29400  0.94640  Biso   1.000  O
  N43      1.0000 0.59100  0.26110  0.88360  Biso   1.000  N
  C191     1.0000 0.66600  0.25410  0.91960  Biso   1.000  C
  H196     1.0000 0.68900  0.21520  0.92520  Biso   1.000  H
  C192     1.0000 0.55300  0.31950  0.87200  Biso   1.000  C
  H197     1.0000 0.53170  0.33770  0.90860  Biso   1.000  H
  H198     1.0000 0.60270  0.34400  0.85340  Biso   1.000  H
  C193     1.0000 0.54400  0.21060  0.85400  Biso   1.000  C
  H199     1.0000 0.49110  0.22490  0.82950  Biso   1.000  H
  H200     1.0000 0.59100  0.19050  0.82850  Biso   1.000  H
  H201     1.0000 0.52000  0.18300  0.88350  Biso   1.000  H
  O16      1.0000 0.78000  0.30100  0.04600  Biso   1.000  O
  N44      1.0000 0.72900  0.23400  0.97600  Biso   1.000  N
  C194     1.0000 0.74200  0.28900  0.99800  Biso   1.000  C
  H202     1.0000 0.72020  0.32050  0.97430  Biso   1.000  H
  C195     1.0000 0.75900  0.18300  0.01000  Biso   1.000  C
  H203     1.0000 0.74400  0.14690  0.98740  Biso   1.000  H
  H204     1.0000 0.82760  0.18470  0.01750  Biso   1.000  H
  H205     1.0000 0.72410  0.18190  0.04750  Biso   1.000  H
  C196     1.0000 0.68400  0.22400  0.91800  Biso   1.000  C
  H206     1.0000 0.68150  0.18120  0.91020  Biso   1.000  H
  H207     1.0000 0.61900  0.23980  0.91800  Biso   1.000  H
  H208     1.0000 0.72180  0.24300  0.88700  Biso   1.000  H
  O17      1.0000 0.29200  0.29400  0.94640  Biso   1.000  O
  N45      1.0000 0.40900  0.26110  0.88360  Biso   1.000  N
  C197     1.0000 0.33400  0.25410  0.91960  Biso   1.000  C
  H209     1.0000 0.31100  0.21520  0.92520  Biso   1.000  H
  C198     1.0000 0.44700  0.31950  0.87200  Biso   1.000  C
  H210     1.0000 0.46830  0.33770  0.90860  Biso   1.000  H
  H211     1.0000 0.39730  0.34400  0.85340  Biso   1.000  H
  C199     1.0000 0.45600  0.21060  0.85400  Biso   1.000  C
  H212     1.0000 0.50890  0.22490  0.82950  Biso   1.000  H
  H213     1.0000 0.40900  0.19050  0.82850  Biso   1.000  H
  H214     1.0000 0.48000  0.18300  0.88350  Biso   1.000  H
  O18      1.0000 0.22000  0.30100  0.04600  Biso   1.000  O
  N46      1.0000 0.27100  0.23400  0.97600  Biso   1.000  N
  C200     1.0000 0.25800  0.28900  0.99800  Biso   1.000  C
  H215     1.0000 0.27980  0.32050  0.97430  Biso   1.000  H
  C201     1.0000 0.24100  0.18300  0.01000  Biso   1.000  C
  H216     1.0000 0.25600  0.14690  0.98740  Biso   1.000  H
  H217     1.0000 0.17240  0.18470  0.01750  Biso   1.000  H
  H218     1.0000 0.27590  0.18190  0.04750  Biso   1.000  H
  C202     1.0000 0.31600  0.22400  0.91800  Biso   1.000  C
  H219     1.0000 0.31850  0.18120  0.91020  Biso   1.000  H
  H220     1.0000 0.38100  0.23980  0.91800  Biso   1.000  H
  H221     1.0000 0.27820  0.24300  0.88700  Biso   1.000  H
  O19      1.0000 0.79200  0.20600  0.05360  Biso   1.000  O
  N47      1.0000 0.90900  0.23890  0.11640  Biso   1.000  N
  C203     1.0000 0.83400  0.24590  0.08040  Biso   1.000  C
  H222     1.0000 0.81100  0.28480  0.07480  Biso   1.000  H
  C204     1.0000 0.94700  0.18050  0.12800  Biso   1.000  C
  H223     1.0000 0.96830  0.16230  0.09140  Biso   1.000  H
  H224     1.0000 0.89730  0.15600  0.14660  Biso   1.000  H
  C205     1.0000 0.95600  0.28940  0.14600  Biso   1.000  C
  H225     1.0000 0.00890  0.27510  0.17050  Biso   1.000  H
  H226     1.0000 0.90900  0.30950  0.17150  Biso   1.000  H
  H227     1.0000 0.98000  0.31700  0.11650  Biso   1.000  H
  O20      1.0000 0.72000  0.19900  0.95400  Biso   1.000  O
  N48      1.0000 0.77100  0.26600  0.02400  Biso   1.000  N
  C206     1.0000 0.75800  0.21100  0.00200  Biso   1.000  C
  H228     1.0000 0.77980  0.17950  0.02570  Biso   1.000  H
  C207     1.0000 0.74100  0.31700  0.99000  Biso   1.000  C
  H229     1.0000 0.75600  0.35310  0.01260  Biso   1.000  H
  H230     1.0000 0.67240  0.31530  0.98250  Biso   1.000  H
  H231     1.0000 0.77590  0.31810  0.95250  Biso   1.000  H
  C208     1.0000 0.81600  0.27600  0.08200  Biso   1.000  C
  H232     1.0000 0.81850  0.31880  0.08980  Biso   1.000  H
  H233     1.0000 0.88100  0.26020  0.08200  Biso   1.000  H
  H234     1.0000 0.77820  0.25700  0.11300  Biso   1.000  H
  H235     1.0000 0.00000  0.18370  0.15560  Biso   1.000  H
  O21      1.0000 0.00000  0.23300  0.16800  Biso   1.000  O
  O22      1.0000 0.00000  0.13200  0.13850  Biso   1.000  O
  H236     1.0000 0.50000  0.31630  0.84440  Biso   1.000  H
  O23      1.0000 0.50000  0.26700  0.83200  Biso   1.000  O
  O24      1.0000 0.50000  0.36800  0.86150  Biso   1.000  O
  O25      1.0000 0.29200  0.79400  0.55360  Biso   1.000  O
  N49      1.0000 0.40900  0.76110  0.61640  Biso   1.000  N
  C209     1.0000 0.33400  0.75410  0.58040  Biso   1.000  C
  H237     1.0000 0.31100  0.71520  0.57480  Biso   1.000  H
  C210     1.0000 0.44700  0.81950  0.62800  Biso   1.000  C
  H238     1.0000 0.46830  0.83770  0.59140  Biso   1.000  H
  H239     1.0000 0.39730  0.84400  0.64660  Biso   1.000  H
  C211     1.0000 0.45600  0.71060  0.64600  Biso   1.000  C
  H240     1.0000 0.50890  0.72490  0.67050  Biso   1.000  H
  H241     1.0000 0.40900  0.69050  0.67150  Biso   1.000  H
  H242     1.0000 0.48000  0.68300  0.61650  Biso   1.000  H
  O26      1.0000 0.22000  0.80100  0.45400  Biso   1.000  O
  N50      1.0000 0.27100  0.73400  0.52400  Biso   1.000  N
  C212     1.0000 0.25800  0.78900  0.50200  Biso   1.000  C
  H243     1.0000 0.27980  0.82050  0.52570  Biso   1.000  H
  C213     1.0000 0.24100  0.68300  0.49000  Biso   1.000  C
  H244     1.0000 0.25600  0.64690  0.51260  Biso   1.000  H
  H245     1.0000 0.17240  0.68470  0.48250  Biso   1.000  H
  H246     1.0000 0.27590  0.68190  0.45250  Biso   1.000  H
  C214     1.0000 0.31600  0.72400  0.58200  Biso   1.000  C
  H247     1.0000 0.31850  0.68120  0.58980  Biso   1.000  H
  H248     1.0000 0.38100  0.73980  0.58200  Biso   1.000  H
  H249     1.0000 0.27820  0.74300  0.61300  Biso   1.000  H
  O27      1.0000 0.79200  0.70600  0.44640  Biso   1.000  O
  N51      1.0000 0.90900  0.73890  0.38360  Biso   1.000  N
  C215     1.0000 0.83400  0.74590  0.41960  Biso   1.000  C
  H250     1.0000 0.81100  0.78480  0.42520  Biso   1.000  H
  C216     1.0000 0.94700  0.68050  0.37200  Biso   1.000  C
  H251     1.0000 0.96830  0.66230  0.40860  Biso   1.000  H
  H252     1.0000 0.89730  0.65600  0.35340  Biso   1.000  H
  C217     1.0000 0.95600  0.78940  0.35400  Biso   1.000  C
  H253     1.0000 0.00890  0.77510  0.32950  Biso   1.000  H
  H254     1.0000 0.90900  0.80950  0.32850  Biso   1.000  H
  H255     1.0000 0.98000  0.81700  0.38350  Biso   1.000  H
  O28      1.0000 0.72000  0.69900  0.54600  Biso   1.000  O
  N52      1.0000 0.77100  0.76600  0.47600  Biso   1.000  N
  C218     1.0000 0.75800  0.71100  0.49800  Biso   1.000  C
  H256     1.0000 0.77980  0.67950  0.47430  Biso   1.000  H
  C219     1.0000 0.74100  0.81700  0.51000  Biso   1.000  C
  H257     1.0000 0.75600  0.85310  0.48740  Biso   1.000  H
  H258     1.0000 0.67240  0.81530  0.51750  Biso   1.000  H
  H259     1.0000 0.77590  0.81810  0.54750  Biso   1.000  H
  C220     1.0000 0.81600  0.77600  0.41800  Biso   1.000  C
  H260     1.0000 0.81850  0.81880  0.41020  Biso   1.000  H
  H261     1.0000 0.88100  0.76020  0.41800  Biso   1.000  H
  H262     1.0000 0.77820  0.75700  0.38700  Biso   1.000  H
  O29      1.0000 0.20800  0.70600  0.44640  Biso   1.000  O
  N53      1.0000 0.09100  0.73890  0.38360  Biso   1.000  N
  C221     1.0000 0.16600  0.74590  0.41960  Biso   1.000  C
  H263     1.0000 0.18900  0.78480  0.42520  Biso   1.000  H
  C222     1.0000 0.05300  0.68050  0.37200  Biso   1.000  C
  H264     1.0000 0.03170  0.66230  0.40860  Biso   1.000  H
  H265     1.0000 0.10270  0.65600  0.35340  Biso   1.000  H
  C223     1.0000 0.04400  0.78940  0.35400  Biso   1.000  C
  H266     1.0000 0.99110  0.77510  0.32950  Biso   1.000  H
  H267     1.0000 0.09100  0.80950  0.32850  Biso   1.000  H
  H268     1.0000 0.02000  0.81700  0.38350  Biso   1.000  H
  O30      1.0000 0.28000  0.69900  0.54600  Biso   1.000  O
  N54      1.0000 0.22900  0.76600  0.47600  Biso   1.000  N
  C224     1.0000 0.24200  0.71100  0.49800  Biso   1.000  C
  H269     1.0000 0.22020  0.67950  0.47430  Biso   1.000  H
  C225     1.0000 0.25900  0.81700  0.51000  Biso   1.000  C
  H270     1.0000 0.24400  0.85310  0.48740  Biso   1.000  H
  H271     1.0000 0.32760  0.81530  0.51750  Biso   1.000  H
  H272     1.0000 0.22410  0.81810  0.54750  Biso   1.000  H
  C226     1.0000 0.18400  0.77600  0.41800  Biso   1.000  C
  H273     1.0000 0.18150  0.81880  0.41020  Biso   1.000  H
  H274     1.0000 0.11900  0.76020  0.41800  Biso   1.000  H
  H275     1.0000 0.22180  0.75700  0.38700  Biso   1.000  H
  O31      1.0000 0.70800  0.79400  0.55360  Biso   1.000  O
  N55      1.0000 0.59100  0.76110  0.61640  Biso   1.000  N
  C227     1.0000 0.66600  0.75410  0.58040  Biso   1.000  C
  H276     1.0000 0.68900  0.71520  0.57480  Biso   1.000  H
  C228     1.0000 0.55300  0.81950  0.62800  Biso   1.000  C
  H277     1.0000 0.53170  0.83770  0.59140  Biso   1.000  H
  H278     1.0000 0.60270  0.84400  0.64660  Biso   1.000  H
  C229     1.0000 0.54400  0.71060  0.64600  Biso   1.000  C
  H279     1.0000 0.49110  0.72490  0.67050  Biso   1.000  H
  H280     1.0000 0.59100  0.69050  0.67150  Biso   1.000  H
  H281     1.0000 0.52000  0.68300  0.61650  Biso   1.000  H
  O32      1.0000 0.78000  0.80100  0.45400  Biso   1.000  O
  N56      1.0000 0.72900  0.73400  0.52400  Biso   1.000  N
  C230     1.0000 0.74200  0.78900  0.50200  Biso   1.000  C
  H282     1.0000 0.72020  0.82050  0.52570  Biso   1.000  H
  C231     1.0000 0.75900  0.68300  0.49000  Biso   1.000  C
  H283     1.0000 0.74400  0.64690  0.51260  Biso   1.000  H
  H284     1.0000 0.82760  0.68470  0.48250  Biso   1.000  H
  H285     1.0000 0.72410  0.68190  0.45250  Biso   1.000  H
  C232     1.0000 0.68400  0.72400  0.58200  Biso   1.000  C
  H286     1.0000 0.68150  0.68120  0.58980  Biso   1.000  H
  H287     1.0000 0.61900  0.73980  0.58200  Biso   1.000  H
  H288     1.0000 0.72180  0.74300  0.61300  Biso   1.000  H
  H289     1.0000 0.50000  0.81630  0.65560  Biso   1.000  H
  O33      1.0000 0.50000  0.76700  0.66800  Biso   1.000  O
  O34      1.0000 0.50000  0.86800  0.63850  Biso   1.000  O
  H290     1.0000 0.00000  0.68370  0.34440  Biso   1.000  H
  O35      1.0000 0.00000  0.73300  0.33200  Biso   1.000  O
  O36      1.0000 0.00000  0.63200  0.36150  Biso   1.000  O
  O37      1.0000 0.79200  0.29400  0.55360  Biso   1.000  O
  N57      1.0000 0.90900  0.26110  0.61640  Biso   1.000  N
  C233     1.0000 0.83400  0.25410  0.58040  Biso   1.000  C
  H291     1.0000 0.81100  0.21520  0.57480  Biso   1.000  H
  C234     1.0000 0.94700  0.31950  0.62800  Biso   1.000  C
  H292     1.0000 0.96830  0.33770  0.59140  Biso   1.000  H
  H293     1.0000 0.89730  0.34400  0.64660  Biso   1.000  H
  C235     1.0000 0.95600  0.21060  0.64600  Biso   1.000  C
  H294     1.0000 0.00890  0.22490  0.67050  Biso   1.000  H
  H295     1.0000 0.90900  0.19050  0.67150  Biso   1.000  H
  H296     1.0000 0.98000  0.18300  0.61650  Biso   1.000  H
  O38      1.0000 0.72000  0.30100  0.45400  Biso   1.000  O
  N58      1.0000 0.77100  0.23400  0.52400  Biso   1.000  N
  C236     1.0000 0.75800  0.28900  0.50200  Biso   1.000  C
  H297     1.0000 0.77980  0.32050  0.52570  Biso   1.000  H
  C237     1.0000 0.74100  0.18300  0.49000  Biso   1.000  C
  H298     1.0000 0.75600  0.14690  0.51260  Biso   1.000  H
  H299     1.0000 0.67240  0.18470  0.48250  Biso   1.000  H
  H300     1.0000 0.77590  0.18190  0.45250  Biso   1.000  H
  C238     1.0000 0.81600  0.22400  0.58200  Biso   1.000  C
  H301     1.0000 0.81850  0.18120  0.58980  Biso   1.000  H
  H302     1.0000 0.88100  0.23980  0.58200  Biso   1.000  H
  H303     1.0000 0.77820  0.24300  0.61300  Biso   1.000  H
  O39      1.0000 0.29200  0.20600  0.44640  Biso   1.000  O
  N59      1.0000 0.40900  0.23890  0.38360  Biso   1.000  N
  C239     1.0000 0.33400  0.24590  0.41960  Biso   1.000  C
  H304     1.0000 0.31100  0.28480  0.42520  Biso   1.000  H
  C240     1.0000 0.44700  0.18050  0.37200  Biso   1.000  C
  H305     1.0000 0.46830  0.16230  0.40860  Biso   1.000  H
  H306     1.0000 0.39730  0.15600  0.35340  Biso   1.000  H
  C241     1.0000 0.45600  0.28940  0.35400  Biso   1.000  C
  H307     1.0000 0.50890  0.27510  0.32950  Biso   1.000  H
  H308     1.0000 0.40900  0.30950  0.32850  Biso   1.000  H
  H309     1.0000 0.48000  0.31700  0.38350  Biso   1.000  H
  O40      1.0000 0.22000  0.19900  0.54600  Biso   1.000  O
  N60      1.0000 0.27100  0.26600  0.47600  Biso   1.000  N
  C242     1.0000 0.25800  0.21100  0.49800  Biso   1.000  C
  H310     1.0000 0.27980  0.17950  0.47430  Biso   1.000  H
  C243     1.0000 0.24100  0.31700  0.51000  Biso   1.000  C
  H311     1.0000 0.25600  0.35310  0.48740  Biso   1.000  H
  H312     1.0000 0.17240  0.31530  0.51750  Biso   1.000  H
  H313     1.0000 0.27590  0.31810  0.54750  Biso   1.000  H
  C244     1.0000 0.31600  0.27600  0.41800  Biso   1.000  C
  H314     1.0000 0.31850  0.31880  0.41020  Biso   1.000  H
  H315     1.0000 0.38100  0.26020  0.41800  Biso   1.000  H
  H316     1.0000 0.27820  0.25700  0.38700  Biso   1.000  H
  O41      1.0000 0.70800  0.20600  0.44640  Biso   1.000  O
  N61      1.0000 0.59100  0.23890  0.38360  Biso   1.000  N
  C245     1.0000 0.66600  0.24590  0.41960  Biso   1.000  C
  H317     1.0000 0.68900  0.28480  0.42520  Biso   1.000  H
  C246     1.0000 0.55300  0.18050  0.37200  Biso   1.000  C
  H318     1.0000 0.53170  0.16230  0.40860  Biso   1.000  H
  H319     1.0000 0.60270  0.15600  0.35340  Biso   1.000  H
  C247     1.0000 0.54400  0.28940  0.35400  Biso   1.000  C
  H320     1.0000 0.49110  0.27510  0.32950  Biso   1.000  H
  H321     1.0000 0.59100  0.30950  0.32850  Biso   1.000  H
  H322     1.0000 0.52000  0.31700  0.38350  Biso   1.000  H
  O42      1.0000 0.78000  0.19900  0.54600  Biso   1.000  O
  N62      1.0000 0.72900  0.26600  0.47600  Biso   1.000  N
  C248     1.0000 0.74200  0.21100  0.49800  Biso   1.000  C
  H323     1.0000 0.72020  0.17950  0.47430  Biso   1.000  H
  C249     1.0000 0.75900  0.31700  0.51000  Biso   1.000  C
  H324     1.0000 0.74400  0.35310  0.48740  Biso   1.000  H
  H325     1.0000 0.82760  0.31530  0.51750  Biso   1.000  H
  H326     1.0000 0.72410  0.31810  0.54750  Biso   1.000  H
  C250     1.0000 0.68400  0.27600  0.41800  Biso   1.000  C
  H327     1.0000 0.68150  0.31880  0.41020  Biso   1.000  H
  H328     1.0000 0.61900  0.26020  0.41800  Biso   1.000  H
  H329     1.0000 0.72180  0.25700  0.38700  Biso   1.000  H
  O43      1.0000 0.20800  0.29400  0.55360  Biso   1.000  O
  N63      1.0000 0.09100  0.26110  0.61640  Biso   1.000  N
  C251     1.0000 0.16600  0.25410  0.58040  Biso   1.000  C
  H330     1.0000 0.18900  0.21520  0.57480  Biso   1.000  H
  C252     1.0000 0.05300  0.31950  0.62800  Biso   1.000  C
  H331     1.0000 0.03170  0.33770  0.59140  Biso   1.000  H
  H332     1.0000 0.10270  0.34400  0.64660  Biso   1.000  H
  C253     1.0000 0.04400  0.21060  0.64600  Biso   1.000  C
  H333     1.0000 0.99110  0.22490  0.67050  Biso   1.000  H
  H334     1.0000 0.09100  0.19050  0.67150  Biso   1.000  H
  H335     1.0000 0.02000  0.18300  0.61650  Biso   1.000  H
  O44      1.0000 0.28000  0.30100  0.45400  Biso   1.000  O
  N64      1.0000 0.22900  0.23400  0.52400  Biso   1.000  N
  C254     1.0000 0.24200  0.28900  0.50200  Biso   1.000  C
  H336     1.0000 0.22020  0.32050  0.52570  Biso   1.000  H
  C255     1.0000 0.25900  0.18300  0.49000  Biso   1.000  C
  H337     1.0000 0.24400  0.14690  0.51260  Biso   1.000  H
  H338     1.0000 0.32760  0.18470  0.48250  Biso   1.000  H
  H339     1.0000 0.22410  0.18190  0.45250  Biso   1.000  H
  C256     1.0000 0.18400  0.22400  0.58200  Biso   1.000  C
  H340     1.0000 0.18150  0.18120  0.58980  Biso   1.000  H
  H341     1.0000 0.11900  0.23980  0.58200  Biso   1.000  H
  H342     1.0000 0.22180  0.24300  0.61300  Biso   1.000  H
  H343     1.0000 0.00000  0.31630  0.65560  Biso   1.000  H
  O45      1.0000 0.00000  0.26700  0.66800  Biso   1.000  O
  O46      1.0000 0.00000  0.36800  0.63850  Biso   1.000  O
  H344     1.0000 0.50000  0.18370  0.34440  Biso   1.000  H
  O47      1.0000 0.50000  0.23300  0.33200  Biso   1.000  O
  O48      1.0000 0.50000  0.13200  0.36150  Biso   1.000  O
