data_image0
_cell_length_a       37.241
_cell_length_b       19.217
_cell_length_c       25.547
_cell_angle_alpha    90
_cell_angle_beta     132.41
_cell_angle_gamma    90

_symmetry_space_group_name_H-M    "P 1"
_symmetry_int_tables_number       1

loop_
  _symmetry_equiv_pos_as_xyz
  'x, y, z'

loop_
  _atom_site_label
  _atom_site_occupancy
  _atom_site_fract_x
  _atom_site_fract_y
  _atom_site_fract_z
  _atom_site_thermal_displace_type
  _atom_site_B_iso_or_equiv
  _atom_site_type_symbol
  Zn1      1.0000 0.65848  0.25298  0.54768  Biso   1.000  Zn
  Zn2      1.0000 0.34697  0.43461  0.45702  Biso   1.000  Zn
  Zn3      1.0000 0.67584  0.25137  0.79848  Biso   1.000  Zn
  Zn4      1.0000 0.67144  0.56307  0.79495  Biso   1.000  Zn
  N1       1.0000 0.65260  0.22460  0.61560  Biso   1.000  N
  N2       1.0000 0.32210  0.64840  0.44000  Biso   1.000  N
  N3       1.0000 0.32580  0.53230  0.44520  Biso   1.000  N
  N4       1.0000 0.41110  0.41970  0.55430  Biso   1.000  N
  N5       1.0000 0.46804  0.37930  0.66380  Biso   1.000  N
  N6       1.0000 0.29550  0.37450  0.43830  Biso   1.000  N
  N7       1.0000 0.22950  0.30870  0.37660  Biso   1.000  N
  N8       1.0000 0.61760  0.23920  0.78470  Biso   1.000  N
  N9       1.0000 0.69600  0.34930  0.82420  Biso   1.000  N
  N10      1.0000 0.69500  0.46630  0.82300  Biso   1.000  N
  N11      1.0000 0.77580  0.12650  0.62890  Biso   1.000  N
  N12      1.0000 0.71130  0.19570  0.56850  Biso   1.000  N
  N13      1.0000 0.34400  0.40720  0.29220  Biso   1.000  N
  N14      1.0000 0.35060  0.40760  0.38510  Biso   1.000  N
  N15      1.0000 0.61640  0.56770  0.79090  Biso   1.000  N
  N16      1.0000 0.55150  0.60390  0.77190  Biso   1.000  N
  N17      1.0000 0.53450  0.27690  0.33590  Biso   1.000  N
  C1       1.0000 0.34320  0.59070  0.44380  Biso   1.000  C
  H1       1.0000 0.36890  0.59160  0.44540  Biso   1.000  H
  C2       1.0000 0.28740  0.62300  0.43800  Biso   1.000  C
  H2       1.0000 0.26510  0.65000  0.43430  Biso   1.000  H
  C3       1.0000 0.28960  0.55230  0.44200  Biso   1.000  C
  H3       1.0000 0.26980  0.52320  0.44250  Biso   1.000  H
  C4       1.0000 0.42250  0.37630  0.60430  Biso   1.000  C
  H4       1.0000 0.40010  0.34630  0.59750  Biso   1.000  H
  C5       1.0000 0.45290  0.45200  0.58440  Biso   1.000  C
  H5       1.0000 0.45730  0.48580  0.56310  Biso   1.000  H
  C6       1.0000 0.48820  0.42700  0.65190  Biso   1.000  C
  H6       1.0000 0.52070  0.44060  0.68400  Biso   1.000  H
  C7       1.0000 0.26200  0.34010  0.37970  Biso   1.000  C
  H7       1.0000 0.26130  0.33820  0.34270  Biso   1.000  H
  C8       1.0000 0.28290  0.36440  0.47710  Biso   1.000  C
  H8       1.0000 0.29940  0.38210  0.52220  Biso   1.000  H
  C9       1.0000 0.24320  0.32520  0.43990  Biso   1.000  C
  H9       1.0000 0.22730  0.31110  0.45460  Biso   1.000  H
  C10      1.0000 0.67450  0.40730  0.78650  Biso   1.000  C
  H10      1.0000 0.64720  0.40670  0.73820  Biso   1.000  H
  C11      1.0000 0.73310  0.44330  0.89090  Biso   1.000  C
  H11      1.0000 0.75490  0.47130  0.93050  Biso   1.000  H
  C12      1.0000 0.73320  0.37300  0.89020  Biso   1.000  C
  H12      1.0000 0.75570  0.34500  0.92950  Biso   1.000  H
  C13      1.0000 0.74290  0.15730  0.62580  Biso   1.000  C
  H13      1.0000 0.74190  0.15250  0.66100  Biso   1.000  H
  C14      1.0000 0.76470  0.14920  0.56870  Biso   1.000  C
  H14      1.0000 0.78170  0.13700  0.55520  Biso   1.000  H
  C15      1.0000 0.72710  0.19020  0.53310  Biso   1.000  C
  H15      1.0000 0.71310  0.21220  0.49060  Biso   1.000  H
  C16      1.0000 0.34450  0.44410  0.33630  Biso   1.000  C
  H16      1.0000 0.34090  0.49230  0.33300  Biso   1.000  H
  C17      1.0000 0.34930  0.34130  0.31330  Biso   1.000  C
  H17      1.0000 0.35000  0.30260  0.29210  Biso   1.000  H
  C18      1.0000 0.35350  0.33970  0.37010  Biso   1.000  C
  H18      1.0000 0.35750  0.30010  0.39460  Biso   1.000  H
  C19      1.0000 0.58170  0.61260  0.76100  Biso   1.000  C
  H19      1.0000 0.57790  0.64890  0.73360  Biso   1.000  H
  C20      1.0000 0.60860  0.52470  0.82360  Biso   1.000  C
  H20      1.0000 0.62770  0.48620  0.85060  Biso   1.000  H
  C21      1.0000 0.56950  0.54520  0.81160  Biso   1.000  C
  H21      1.0000 0.55650  0.52280  0.82790  Biso   1.000  H
  N18      1.0000 0.66100  0.22320  0.71110  Biso   1.000  N
  N19      1.0000 0.55140  0.26420  0.76720  Biso   1.000  N
  N20      1.0000 0.59540  0.24510  0.44900  Biso   1.000  N
  C22      1.0000 0.66720  0.25810  0.67210  Biso   1.000  C
  H22      1.0000 0.68070  0.30240  0.68410  Biso   1.000  H
  C23      1.0000 0.57840  0.29250  0.39830  Biso   1.000  C
  H23      1.0000 0.59550  0.33240  0.40590  Biso   1.000  H
  C24      1.0000 0.59000  0.28740  0.77930  Biso   1.000  C
  H24      1.0000 0.59710  0.33460  0.78360  Biso   1.000  H
  C25      1.0000 0.63160  0.16900  0.66780  Biso   1.000  C
  H25      1.0000 0.61790  0.13630  0.67690  Biso   1.000  H
  C26      1.0000 0.62590  0.17090  0.60950  Biso   1.000  C
  H26      1.0000 0.60680  0.14050  0.57120  Biso   1.000  H
  C27      1.0000 0.60620  0.18180  0.80270  Biso   1.000  C
  H27      1.0000 0.62230  0.13930  0.81780  Biso   1.000  H
  C28      1.0000 0.56700  0.19790  0.79460  Biso   1.000  C
  H28      1.0000 0.55300  0.16880  0.80570  Biso   1.000  H
  C29      1.0000 0.52880  0.20890  0.34500  Biso   1.000  C
  H29      1.0000 0.50250  0.18110  0.30980  Biso   1.000  H
  C30      1.0000 0.56690  0.18720  0.41270  Biso   1.000  C
  H30      1.0000 0.57240  0.14250  0.43070  Biso   1.000  H
  C31      1.0000 0.34660  0.84350  0.31330  Biso   1.000  C
  H31      1.0000 0.34700  0.88310  0.29280  Biso   1.000  H
  C32      1.0000 0.35320  0.84190  0.37240  Biso   1.000  C
  H32      1.0000 0.36070  0.88020  0.40050  Biso   1.000  H
  C33      1.0000 0.08770  0.31810  0.25590  Biso   1.000  C
  H33      1.0000 0.09380  0.36030  0.24540  Biso   1.000  H
  C34      1.0000 0.04740  0.30270  0.24540  Biso   1.000  C
  H34      1.0000 0.02150  0.33260  0.22650  Biso   1.000  H
  C35      1.0000 0.01620  0.72750  0.35110  Biso   1.000  C
  H35      1.0000 0.98430  0.71130  0.32090  Biso   1.000  H
  C36      1.0000 0.05420  0.70670  0.41970  Biso   1.000  C
  H36      1.0000 0.05240  0.67170  0.44310  Biso   1.000  H
  Zn5      1.0000 0.15848  0.75298  0.54768  Biso   1.000  Zn
  Zn6      1.0000 0.84697  0.93461  0.45702  Biso   1.000  Zn
  Zn7      1.0000 0.17584  0.75137  0.79848  Biso   1.000  Zn
  Zn8      1.0000 0.17144  0.06307  0.79495  Biso   1.000  Zn
  N21      1.0000 0.15260  0.72460  0.61560  Biso   1.000  N
  N22      1.0000 0.82210  0.14840  0.44000  Biso   1.000  N
  N23      1.0000 0.82580  0.03230  0.44520  Biso   1.000  N
  N24      1.0000 0.91110  0.91970  0.55430  Biso   1.000  N
  N25      1.0000 0.96804  0.87930  0.66380  Biso   1.000  N
  N26      1.0000 0.79550  0.87450  0.43830  Biso   1.000  N
  N27      1.0000 0.72950  0.80870  0.37660  Biso   1.000  N
  N28      1.0000 0.11760  0.73920  0.78470  Biso   1.000  N
  N29      1.0000 0.19600  0.84930  0.82420  Biso   1.000  N
  N30      1.0000 0.19500  0.96630  0.82300  Biso   1.000  N
  N31      1.0000 0.27580  0.62650  0.62890  Biso   1.000  N
  N32      1.0000 0.21130  0.69570  0.56850  Biso   1.000  N
  N33      1.0000 0.84400  0.90720  0.29220  Biso   1.000  N
  N34      1.0000 0.85060  0.90760  0.38510  Biso   1.000  N
  N35      1.0000 0.11640  0.06770  0.79090  Biso   1.000  N
  N36      1.0000 0.05150  0.10390  0.77190  Biso   1.000  N
  N37      1.0000 0.03450  0.77690  0.33590  Biso   1.000  N
  C37      1.0000 0.84320  0.09070  0.44380  Biso   1.000  C
  H37      1.0000 0.86890  0.09160  0.44540  Biso   1.000  H
  C38      1.0000 0.78740  0.12300  0.43800  Biso   1.000  C
  H38      1.0000 0.76510  0.15000  0.43430  Biso   1.000  H
  C39      1.0000 0.78960  0.05230  0.44200  Biso   1.000  C
  H39      1.0000 0.76980  0.02320  0.44250  Biso   1.000  H
  C40      1.0000 0.92250  0.87630  0.60430  Biso   1.000  C
  H40      1.0000 0.90010  0.84630  0.59750  Biso   1.000  H
  C41      1.0000 0.95290  0.95200  0.58440  Biso   1.000  C
  H41      1.0000 0.95730  0.98580  0.56310  Biso   1.000  H
  C42      1.0000 0.98820  0.92700  0.65190  Biso   1.000  C
  H42      1.0000 0.02070  0.94060  0.68400  Biso   1.000  H
  C43      1.0000 0.76200  0.84010  0.37970  Biso   1.000  C
  H43      1.0000 0.76130  0.83820  0.34270  Biso   1.000  H
  C44      1.0000 0.78290  0.86440  0.47710  Biso   1.000  C
  H44      1.0000 0.79940  0.88210  0.52220  Biso   1.000  H
  C45      1.0000 0.74320  0.82520  0.43990  Biso   1.000  C
  H45      1.0000 0.72730  0.81110  0.45460  Biso   1.000  H
  C46      1.0000 0.17450  0.90730  0.78650  Biso   1.000  C
  H46      1.0000 0.14720  0.90670  0.73820  Biso   1.000  H
  C47      1.0000 0.23310  0.94330  0.89090  Biso   1.000  C
  H47      1.0000 0.25490  0.97130  0.93050  Biso   1.000  H
  C48      1.0000 0.23320  0.87300  0.89020  Biso   1.000  C
  H48      1.0000 0.25570  0.84500  0.92950  Biso   1.000  H
  C49      1.0000 0.24290  0.65730  0.62580  Biso   1.000  C
  H49      1.0000 0.24190  0.65250  0.66100  Biso   1.000  H
  C50      1.0000 0.26470  0.64920  0.56870  Biso   1.000  C
  H50      1.0000 0.28170  0.63700  0.55520  Biso   1.000  H
  C51      1.0000 0.22710  0.69020  0.53310  Biso   1.000  C
  H51      1.0000 0.21310  0.71220  0.49060  Biso   1.000  H
  C52      1.0000 0.84450  0.94410  0.33630  Biso   1.000  C
  H52      1.0000 0.84090  0.99230  0.33300  Biso   1.000  H
  C53      1.0000 0.84930  0.84130  0.31330  Biso   1.000  C
  H53      1.0000 0.85000  0.80260  0.29210  Biso   1.000  H
  C54      1.0000 0.85350  0.83970  0.37010  Biso   1.000  C
  H54      1.0000 0.85750  0.80010  0.39460  Biso   1.000  H
  C55      1.0000 0.08170  0.11260  0.76100  Biso   1.000  C
  H55      1.0000 0.07790  0.14890  0.73360  Biso   1.000  H
  C56      1.0000 0.10860  0.02470  0.82360  Biso   1.000  C
  H56      1.0000 0.12770  0.98620  0.85060  Biso   1.000  H
  C57      1.0000 0.06950  0.04520  0.81160  Biso   1.000  C
  H57      1.0000 0.05650  0.02280  0.82790  Biso   1.000  H
  N38      1.0000 0.16100  0.72320  0.71110  Biso   1.000  N
  N39      1.0000 0.05140  0.76420  0.76720  Biso   1.000  N
  N40      1.0000 0.09540  0.74510  0.44900  Biso   1.000  N
  C58      1.0000 0.16720  0.75810  0.67210  Biso   1.000  C
  H58      1.0000 0.18070  0.80240  0.68410  Biso   1.000  H
  C59      1.0000 0.07840  0.79250  0.39830  Biso   1.000  C
  H59      1.0000 0.09550  0.83240  0.40590  Biso   1.000  H
  C60      1.0000 0.09000  0.78740  0.77930  Biso   1.000  C
  H60      1.0000 0.09710  0.83460  0.78360  Biso   1.000  H
  C61      1.0000 0.13160  0.66900  0.66780  Biso   1.000  C
  H61      1.0000 0.11790  0.63630  0.67690  Biso   1.000  H
  C62      1.0000 0.12590  0.67090  0.60950  Biso   1.000  C
  H62      1.0000 0.10680  0.64050  0.57120  Biso   1.000  H
  C63      1.0000 0.10620  0.68180  0.80270  Biso   1.000  C
  H63      1.0000 0.12230  0.63930  0.81780  Biso   1.000  H
  C64      1.0000 0.06700  0.69790  0.79460  Biso   1.000  C
  H64      1.0000 0.05300  0.66880  0.80570  Biso   1.000  H
  C65      1.0000 0.02880  0.70890  0.34500  Biso   1.000  C
  H65      1.0000 0.00250  0.68110  0.30980  Biso   1.000  H
  C66      1.0000 0.06690  0.68720  0.41270  Biso   1.000  C
  H66      1.0000 0.07240  0.64250  0.43070  Biso   1.000  H
  C67      1.0000 0.84660  0.34350  0.31330  Biso   1.000  C
  H67      1.0000 0.84700  0.38310  0.29280  Biso   1.000  H
  C68      1.0000 0.85320  0.34190  0.37240  Biso   1.000  C
  H68      1.0000 0.86070  0.38020  0.40050  Biso   1.000  H
  C69      1.0000 0.58770  0.81810  0.25590  Biso   1.000  C
  H69      1.0000 0.59380  0.86030  0.24540  Biso   1.000  H
  C70      1.0000 0.54740  0.80270  0.24540  Biso   1.000  C
  H70      1.0000 0.52150  0.83260  0.22650  Biso   1.000  H
  C71      1.0000 0.51620  0.22750  0.35110  Biso   1.000  C
  H71      1.0000 0.48430  0.21130  0.32090  Biso   1.000  H
  C72      1.0000 0.55420  0.20670  0.41970  Biso   1.000  C
  H72      1.0000 0.55240  0.17170  0.44310  Biso   1.000  H
  Zn9      1.0000 0.34152  0.25298  0.95232  Biso   1.000  Zn
  Zn10     1.0000 0.65303  0.43461  0.04298  Biso   1.000  Zn
  Zn11     1.0000 0.32416  0.25137  0.70152  Biso   1.000  Zn
  Zn12     1.0000 0.32856  0.56307  0.70505  Biso   1.000  Zn
  N41      1.0000 0.34740  0.22460  0.88440  Biso   1.000  N
  N42      1.0000 0.67790  0.64840  0.06000  Biso   1.000  N
  N43      1.0000 0.67420  0.53230  0.05480  Biso   1.000  N
  N44      1.0000 0.58890  0.41970  0.94570  Biso   1.000  N
  N45      1.0000 0.53196  0.37930  0.83620  Biso   1.000  N
  N46      1.0000 0.70450  0.37450  0.06170  Biso   1.000  N
  N47      1.0000 0.77050  0.30870  0.12340  Biso   1.000  N
  N48      1.0000 0.38240  0.23920  0.71530  Biso   1.000  N
  N49      1.0000 0.30400  0.34930  0.67580  Biso   1.000  N
  N50      1.0000 0.30500  0.46630  0.67700  Biso   1.000  N
  N51      1.0000 0.22420  0.12650  0.87110  Biso   1.000  N
  N52      1.0000 0.28870  0.19570  0.93150  Biso   1.000  N
  N53      1.0000 0.65600  0.40720  0.20780  Biso   1.000  N
  N54      1.0000 0.64940  0.40760  0.11490  Biso   1.000  N
  N55      1.0000 0.38360  0.56770  0.70910  Biso   1.000  N
  N56      1.0000 0.44850  0.60390  0.72810  Biso   1.000  N
  N57      1.0000 0.46550  0.27690  0.16410  Biso   1.000  N
  C73      1.0000 0.65680  0.59070  0.05620  Biso   1.000  C
  H73      1.0000 0.63110  0.59160  0.05460  Biso   1.000  H
  C74      1.0000 0.71260  0.62300  0.06200  Biso   1.000  C
  H74      1.0000 0.73490  0.65000  0.06570  Biso   1.000  H
  C75      1.0000 0.71040  0.55230  0.05800  Biso   1.000  C
  H75      1.0000 0.73020  0.52320  0.05750  Biso   1.000  H
  C76      1.0000 0.57750  0.37630  0.89570  Biso   1.000  C
  H76      1.0000 0.59990  0.34630  0.90250  Biso   1.000  H
  C77      1.0000 0.54710  0.45200  0.91560  Biso   1.000  C
  H77      1.0000 0.54270  0.48580  0.93690  Biso   1.000  H
  C78      1.0000 0.51180  0.42700  0.84810  Biso   1.000  C
  H78      1.0000 0.47930  0.44060  0.81600  Biso   1.000  H
  C79      1.0000 0.73800  0.34010  0.12030  Biso   1.000  C
  H79      1.0000 0.73870  0.33820  0.15730  Biso   1.000  H
  C80      1.0000 0.71710  0.36440  0.02290  Biso   1.000  C
  H80      1.0000 0.70060  0.38210  0.97780  Biso   1.000  H
  C81      1.0000 0.75680  0.32520  0.06010  Biso   1.000  C
  H81      1.0000 0.77270  0.31110  0.04540  Biso   1.000  H
  C82      1.0000 0.32550  0.40730  0.71350  Biso   1.000  C
  H82      1.0000 0.35280  0.40670  0.76180  Biso   1.000  H
  C83      1.0000 0.26690  0.44330  0.60910  Biso   1.000  C
  H83      1.0000 0.24510  0.47130  0.56950  Biso   1.000  H
  C84      1.0000 0.26680  0.37300  0.60980  Biso   1.000  C
  H84      1.0000 0.24430  0.34500  0.57050  Biso   1.000  H
  C85      1.0000 0.25710  0.15730  0.87420  Biso   1.000  C
  H85      1.0000 0.25810  0.15250  0.83900  Biso   1.000  H
  C86      1.0000 0.23530  0.14920  0.93130  Biso   1.000  C
  H86      1.0000 0.21830  0.13700  0.94480  Biso   1.000  H
  C87      1.0000 0.27290  0.19020  0.96690  Biso   1.000  C
  H87      1.0000 0.28690  0.21220  0.00940  Biso   1.000  H
  C88      1.0000 0.65550  0.44410  0.16370  Biso   1.000  C
  H88      1.0000 0.65910  0.49230  0.16700  Biso   1.000  H
  C89      1.0000 0.65070  0.34130  0.18670  Biso   1.000  C
  H89      1.0000 0.65000  0.30260  0.20790  Biso   1.000  H
  C90      1.0000 0.64650  0.33970  0.12990  Biso   1.000  C
  H90      1.0000 0.64250  0.30010  0.10540  Biso   1.000  H
  C91      1.0000 0.41830  0.61260  0.73900  Biso   1.000  C
  H91      1.0000 0.42210  0.64890  0.76640  Biso   1.000  H
  C92      1.0000 0.39140  0.52470  0.67640  Biso   1.000  C
  H92      1.0000 0.37230  0.48620  0.64940  Biso   1.000  H
  C93      1.0000 0.43050  0.54520  0.68840  Biso   1.000  C
  H93      1.0000 0.44350  0.52280  0.67210  Biso   1.000  H
  N58      1.0000 0.33900  0.22320  0.78890  Biso   1.000  N
  N59      1.0000 0.44860  0.26420  0.73280  Biso   1.000  N
  N60      1.0000 0.40460  0.24510  0.05100  Biso   1.000  N
  C94      1.0000 0.33280  0.25810  0.82790  Biso   1.000  C
  H94      1.0000 0.31930  0.30240  0.81590  Biso   1.000  H
  C95      1.0000 0.42160  0.29250  0.10170  Biso   1.000  C
  H95      1.0000 0.40450  0.33240  0.09410  Biso   1.000  H
  C96      1.0000 0.41000  0.28740  0.72070  Biso   1.000  C
  H96      1.0000 0.40290  0.33460  0.71640  Biso   1.000  H
  C97      1.0000 0.36840  0.16900  0.83220  Biso   1.000  C
  H97      1.0000 0.38210  0.13630  0.82310  Biso   1.000  H
  C98      1.0000 0.37410  0.17090  0.89050  Biso   1.000  C
  H98      1.0000 0.39320  0.14050  0.92880  Biso   1.000  H
  C99      1.0000 0.39380  0.18180  0.69730  Biso   1.000  C
  H99      1.0000 0.37770  0.13930  0.68220  Biso   1.000  H
  C100     1.0000 0.43300  0.19790  0.70540  Biso   1.000  C
  H100     1.0000 0.44700  0.16880  0.69430  Biso   1.000  H
  C101     1.0000 0.47120  0.20890  0.15500  Biso   1.000  C
  H101     1.0000 0.49750  0.18110  0.19020  Biso   1.000  H
  C102     1.0000 0.43310  0.18720  0.08730  Biso   1.000  C
  H102     1.0000 0.42760  0.14250  0.06930  Biso   1.000  H
  C103     1.0000 0.65340  0.84350  0.18670  Biso   1.000  C
  H103     1.0000 0.65300  0.88310  0.20720  Biso   1.000  H
  C104     1.0000 0.64680  0.84190  0.12760  Biso   1.000  C
  H104     1.0000 0.63930  0.88020  0.09950  Biso   1.000  H
  C105     1.0000 0.91230  0.31810  0.24410  Biso   1.000  C
  H105     1.0000 0.90620  0.36030  0.25460  Biso   1.000  H
  C106     1.0000 0.95260  0.30270  0.25460  Biso   1.000  C
  H106     1.0000 0.97850  0.33260  0.27350  Biso   1.000  H
  C107     1.0000 0.98380  0.72750  0.14890  Biso   1.000  C
  H107     1.0000 0.01570  0.71130  0.17910  Biso   1.000  H
  C108     1.0000 0.94580  0.70670  0.08030  Biso   1.000  C
  H108     1.0000 0.94760  0.67170  0.05690  Biso   1.000  H
  Zn13     1.0000 0.84152  0.75298  0.95232  Biso   1.000  Zn
  Zn14     1.0000 0.15303  0.93461  0.04298  Biso   1.000  Zn
  Zn15     1.0000 0.82416  0.75137  0.70152  Biso   1.000  Zn
  Zn16     1.0000 0.82856  0.06307  0.70505  Biso   1.000  Zn
  N61      1.0000 0.84740  0.72460  0.88440  Biso   1.000  N
  N62      1.0000 0.17790  0.14840  0.06000  Biso   1.000  N
  N63      1.0000 0.17420  0.03230  0.05480  Biso   1.000  N
  N64      1.0000 0.08890  0.91970  0.94570  Biso   1.000  N
  N65      1.0000 0.03196  0.87930  0.83620  Biso   1.000  N
  N66      1.0000 0.20450  0.87450  0.06170  Biso   1.000  N
  N67      1.0000 0.27050  0.80870  0.12340  Biso   1.000  N
  N68      1.0000 0.88240  0.73920  0.71530  Biso   1.000  N
  N69      1.0000 0.80400  0.84930  0.67580  Biso   1.000  N
  N70      1.0000 0.80500  0.96630  0.67700  Biso   1.000  N
  N71      1.0000 0.72420  0.62650  0.87110  Biso   1.000  N
  N72      1.0000 0.78870  0.69570  0.93150  Biso   1.000  N
  N73      1.0000 0.15600  0.90720  0.20780  Biso   1.000  N
  N74      1.0000 0.14940  0.90760  0.11490  Biso   1.000  N
  N75      1.0000 0.88360  0.06770  0.70910  Biso   1.000  N
  N76      1.0000 0.94850  0.10390  0.72810  Biso   1.000  N
  N77      1.0000 0.96550  0.77690  0.16410  Biso   1.000  N
  C109     1.0000 0.15680  0.09070  0.05620  Biso   1.000  C
  H109     1.0000 0.13110  0.09160  0.05460  Biso   1.000  H
  C110     1.0000 0.21260  0.12300  0.06200  Biso   1.000  C
  H110     1.0000 0.23490  0.15000  0.06570  Biso   1.000  H
  C111     1.0000 0.21040  0.05230  0.05800  Biso   1.000  C
  H111     1.0000 0.23020  0.02320  0.05750  Biso   1.000  H
  C112     1.0000 0.07750  0.87630  0.89570  Biso   1.000  C
  H112     1.0000 0.09990  0.84630  0.90250  Biso   1.000  H
  C113     1.0000 0.04710  0.95200  0.91560  Biso   1.000  C
  H113     1.0000 0.04270  0.98580  0.93690  Biso   1.000  H
  C114     1.0000 0.01180  0.92700  0.84810  Biso   1.000  C
  H114     1.0000 0.97930  0.94060  0.81600  Biso   1.000  H
  C115     1.0000 0.23800  0.84010  0.12030  Biso   1.000  C
  H115     1.0000 0.23870  0.83820  0.15730  Biso   1.000  H
  C116     1.0000 0.21710  0.86440  0.02290  Biso   1.000  C
  H116     1.0000 0.20060  0.88210  0.97780  Biso   1.000  H
  C117     1.0000 0.25680  0.82520  0.06010  Biso   1.000  C
  H117     1.0000 0.27270  0.81110  0.04540  Biso   1.000  H
  C118     1.0000 0.82550  0.90730  0.71350  Biso   1.000  C
  H118     1.0000 0.85280  0.90670  0.76180  Biso   1.000  H
  C119     1.0000 0.76690  0.94330  0.60910  Biso   1.000  C
  H119     1.0000 0.74510  0.97130  0.56950  Biso   1.000  H
  C120     1.0000 0.76680  0.87300  0.60980  Biso   1.000  C
  H120     1.0000 0.74430  0.84500  0.57050  Biso   1.000  H
  C121     1.0000 0.75710  0.65730  0.87420  Biso   1.000  C
  H121     1.0000 0.75810  0.65250  0.83900  Biso   1.000  H
  C122     1.0000 0.73530  0.64920  0.93130  Biso   1.000  C
  H122     1.0000 0.71830  0.63700  0.94480  Biso   1.000  H
  C123     1.0000 0.77290  0.69020  0.96690  Biso   1.000  C
  H123     1.0000 0.78690  0.71220  0.00940  Biso   1.000  H
  C124     1.0000 0.15550  0.94410  0.16370  Biso   1.000  C
  H124     1.0000 0.15910  0.99230  0.16700  Biso   1.000  H
  C125     1.0000 0.15070  0.84130  0.18670  Biso   1.000  C
  H125     1.0000 0.15000  0.80260  0.20790  Biso   1.000  H
  C126     1.0000 0.14650  0.83970  0.12990  Biso   1.000  C
  H126     1.0000 0.14250  0.80010  0.10540  Biso   1.000  H
  C127     1.0000 0.91830  0.11260  0.73900  Biso   1.000  C
  H127     1.0000 0.92210  0.14890  0.76640  Biso   1.000  H
  C128     1.0000 0.89140  0.02470  0.67640  Biso   1.000  C
  H128     1.0000 0.87230  0.98620  0.64940  Biso   1.000  H
  C129     1.0000 0.93050  0.04520  0.68840  Biso   1.000  C
  H129     1.0000 0.94350  0.02280  0.67210  Biso   1.000  H
  N78      1.0000 0.83900  0.72320  0.78890  Biso   1.000  N
  N79      1.0000 0.94860  0.76420  0.73280  Biso   1.000  N
  N80      1.0000 0.90460  0.74510  0.05100  Biso   1.000  N
  C130     1.0000 0.83280  0.75810  0.82790  Biso   1.000  C
  H130     1.0000 0.81930  0.80240  0.81590  Biso   1.000  H
  C131     1.0000 0.92160  0.79250  0.10170  Biso   1.000  C
  H131     1.0000 0.90450  0.83240  0.09410  Biso   1.000  H
  C132     1.0000 0.91000  0.78740  0.72070  Biso   1.000  C
  H132     1.0000 0.90290  0.83460  0.71640  Biso   1.000  H
  C133     1.0000 0.86840  0.66900  0.83220  Biso   1.000  C
  H133     1.0000 0.88210  0.63630  0.82310  Biso   1.000  H
  C134     1.0000 0.87410  0.67090  0.89050  Biso   1.000  C
  H134     1.0000 0.89320  0.64050  0.92880  Biso   1.000  H
  C135     1.0000 0.89380  0.68180  0.69730  Biso   1.000  C
  H135     1.0000 0.87770  0.63930  0.68220  Biso   1.000  H
  C136     1.0000 0.93300  0.69790  0.70540  Biso   1.000  C
  H136     1.0000 0.94700  0.66880  0.69430  Biso   1.000  H
  C137     1.0000 0.97120  0.70890  0.15500  Biso   1.000  C
  H137     1.0000 0.99750  0.68110  0.19020  Biso   1.000  H
  C138     1.0000 0.93310  0.68720  0.08730  Biso   1.000  C
  H138     1.0000 0.92760  0.64250  0.06930  Biso   1.000  H
  C139     1.0000 0.15340  0.34350  0.18670  Biso   1.000  C
  H139     1.0000 0.15300  0.38310  0.20720  Biso   1.000  H
  C140     1.0000 0.14680  0.34190  0.12760  Biso   1.000  C
  H140     1.0000 0.13930  0.38020  0.09950  Biso   1.000  H
  C141     1.0000 0.41230  0.81810  0.24410  Biso   1.000  C
  H141     1.0000 0.40620  0.86030  0.25460  Biso   1.000  H
  C142     1.0000 0.45260  0.80270  0.25460  Biso   1.000  C
  H142     1.0000 0.47850  0.83260  0.27350  Biso   1.000  H
  C143     1.0000 0.48380  0.22750  0.14890  Biso   1.000  C
  H143     1.0000 0.51570  0.21130  0.17910  Biso   1.000  H
  C144     1.0000 0.44580  0.20670  0.08030  Biso   1.000  C
  H144     1.0000 0.44760  0.17170  0.05690  Biso   1.000  H
  Zn17     1.0000 0.34152  0.74702  0.45232  Biso   1.000  Zn
  Zn18     1.0000 0.65303  0.56539  0.54298  Biso   1.000  Zn
  Zn19     1.0000 0.32416  0.74863  0.20152  Biso   1.000  Zn
  Zn20     1.0000 0.32856  0.43693  0.20505  Biso   1.000  Zn
  N81      1.0000 0.34740  0.77540  0.38440  Biso   1.000  N
  N82      1.0000 0.67790  0.35160  0.56000  Biso   1.000  N
  N83      1.0000 0.67420  0.46770  0.55480  Biso   1.000  N
  N84      1.0000 0.58890  0.58030  0.44570  Biso   1.000  N
  N85      1.0000 0.53196  0.62070  0.33620  Biso   1.000  N
  N86      1.0000 0.70450  0.62550  0.56170  Biso   1.000  N
  N87      1.0000 0.77050  0.69130  0.62340  Biso   1.000  N
  N88      1.0000 0.38240  0.76080  0.21530  Biso   1.000  N
  N89      1.0000 0.30400  0.65070  0.17580  Biso   1.000  N
  N90      1.0000 0.30500  0.53370  0.17700  Biso   1.000  N
  N91      1.0000 0.22420  0.87350  0.37110  Biso   1.000  N
  N92      1.0000 0.28870  0.80430  0.43150  Biso   1.000  N
  N93      1.0000 0.65600  0.59280  0.70780  Biso   1.000  N
  N94      1.0000 0.64940  0.59240  0.61490  Biso   1.000  N
  N95      1.0000 0.38360  0.43230  0.20910  Biso   1.000  N
  N96      1.0000 0.44850  0.39610  0.22810  Biso   1.000  N
  N97      1.0000 0.46550  0.72310  0.66410  Biso   1.000  N
  C145     1.0000 0.65680  0.40930  0.55620  Biso   1.000  C
  H145     1.0000 0.63110  0.40840  0.55460  Biso   1.000  H
  C146     1.0000 0.71260  0.37700  0.56200  Biso   1.000  C
  H146     1.0000 0.73490  0.35000  0.56570  Biso   1.000  H
  C147     1.0000 0.71040  0.44770  0.55800  Biso   1.000  C
  H147     1.0000 0.73020  0.47680  0.55750  Biso   1.000  H
  C148     1.0000 0.57750  0.62370  0.39570  Biso   1.000  C
  H148     1.0000 0.59990  0.65370  0.40250  Biso   1.000  H
  C149     1.0000 0.54710  0.54800  0.41560  Biso   1.000  C
  H149     1.0000 0.54270  0.51420  0.43690  Biso   1.000  H
  C150     1.0000 0.51180  0.57300  0.34810  Biso   1.000  C
  H150     1.0000 0.47930  0.55940  0.31600  Biso   1.000  H
  C151     1.0000 0.73800  0.65990  0.62030  Biso   1.000  C
  H151     1.0000 0.73870  0.66180  0.65730  Biso   1.000  H
  C152     1.0000 0.71710  0.63560  0.52290  Biso   1.000  C
  H152     1.0000 0.70060  0.61790  0.47780  Biso   1.000  H
  C153     1.0000 0.75680  0.67480  0.56010  Biso   1.000  C
  H153     1.0000 0.77270  0.68890  0.54540  Biso   1.000  H
  C154     1.0000 0.32550  0.59270  0.21350  Biso   1.000  C
  H154     1.0000 0.35280  0.59330  0.26180  Biso   1.000  H
  C155     1.0000 0.26690  0.55670  0.10910  Biso   1.000  C
  H155     1.0000 0.24510  0.52870  0.06950  Biso   1.000  H
  C156     1.0000 0.26680  0.62700  0.10980  Biso   1.000  C
  H156     1.0000 0.24430  0.65500  0.07050  Biso   1.000  H
  C157     1.0000 0.25710  0.84270  0.37420  Biso   1.000  C
  H157     1.0000 0.25810  0.84750  0.33900  Biso   1.000  H
  C158     1.0000 0.23530  0.85080  0.43130  Biso   1.000  C
  H158     1.0000 0.21830  0.86300  0.44480  Biso   1.000  H
  C159     1.0000 0.27290  0.80980  0.46690  Biso   1.000  C
  H159     1.0000 0.28690  0.78780  0.50940  Biso   1.000  H
  C160     1.0000 0.65550  0.55590  0.66370  Biso   1.000  C
  H160     1.0000 0.65910  0.50770  0.66700  Biso   1.000  H
  C161     1.0000 0.65070  0.65870  0.68670  Biso   1.000  C
  H161     1.0000 0.65000  0.69740  0.70790  Biso   1.000  H
  C162     1.0000 0.64650  0.66030  0.62990  Biso   1.000  C
  H162     1.0000 0.64250  0.69990  0.60540  Biso   1.000  H
  C163     1.0000 0.41830  0.38740  0.23900  Biso   1.000  C
  H163     1.0000 0.42210  0.35110  0.26640  Biso   1.000  H
  C164     1.0000 0.39140  0.47530  0.17640  Biso   1.000  C
  H164     1.0000 0.37230  0.51380  0.14940  Biso   1.000  H
  C165     1.0000 0.43050  0.45480  0.18840  Biso   1.000  C
  H165     1.0000 0.44350  0.47720  0.17210  Biso   1.000  H
  N98      1.0000 0.33900  0.77680  0.28890  Biso   1.000  N
  N99      1.0000 0.44860  0.73580  0.23280  Biso   1.000  N
  N100     1.0000 0.40460  0.75490  0.55100  Biso   1.000  N
  C166     1.0000 0.33280  0.74190  0.32790  Biso   1.000  C
  H166     1.0000 0.31930  0.69760  0.31590  Biso   1.000  H
  C167     1.0000 0.42160  0.70750  0.60170  Biso   1.000  C
  H167     1.0000 0.40450  0.66760  0.59410  Biso   1.000  H
  C168     1.0000 0.41000  0.71260  0.22070  Biso   1.000  C
  H168     1.0000 0.40290  0.66540  0.21640  Biso   1.000  H
  C169     1.0000 0.36840  0.83100  0.33220  Biso   1.000  C
  H169     1.0000 0.38210  0.86370  0.32310  Biso   1.000  H
  C170     1.0000 0.37410  0.82910  0.39050  Biso   1.000  C
  H170     1.0000 0.39320  0.85950  0.42880  Biso   1.000  H
  C171     1.0000 0.39380  0.81820  0.19730  Biso   1.000  C
  H171     1.0000 0.37770  0.86070  0.18220  Biso   1.000  H
  C172     1.0000 0.43300  0.80210  0.20540  Biso   1.000  C
  H172     1.0000 0.44700  0.83120  0.19430  Biso   1.000  H
  C173     1.0000 0.47120  0.79110  0.65500  Biso   1.000  C
  H173     1.0000 0.49750  0.81890  0.69020  Biso   1.000  H
  C174     1.0000 0.43310  0.81280  0.58730  Biso   1.000  C
  H174     1.0000 0.42760  0.85750  0.56930  Biso   1.000  H
  C175     1.0000 0.65340  0.15650  0.68670  Biso   1.000  C
  H175     1.0000 0.65300  0.11690  0.70720  Biso   1.000  H
  C176     1.0000 0.64680  0.15810  0.62760  Biso   1.000  C
  H176     1.0000 0.63930  0.11980  0.59950  Biso   1.000  H
  C177     1.0000 0.91230  0.68190  0.74410  Biso   1.000  C
  H177     1.0000 0.90620  0.63970  0.75460  Biso   1.000  H
  C178     1.0000 0.95260  0.69730  0.75460  Biso   1.000  C
  H178     1.0000 0.97850  0.66740  0.77350  Biso   1.000  H
  C179     1.0000 0.98380  0.27250  0.64890  Biso   1.000  C
  H179     1.0000 0.01570  0.28870  0.67910  Biso   1.000  H
  C180     1.0000 0.94580  0.29330  0.58030  Biso   1.000  C
  H180     1.0000 0.94760  0.32830  0.55690  Biso   1.000  H
  Zn21     1.0000 0.84152  0.24702  0.45232  Biso   1.000  Zn
  Zn22     1.0000 0.15303  0.06539  0.54298  Biso   1.000  Zn
  Zn23     1.0000 0.82416  0.24863  0.20152  Biso   1.000  Zn
  Zn24     1.0000 0.82856  0.93693  0.20505  Biso   1.000  Zn
  N101     1.0000 0.84740  0.27540  0.38440  Biso   1.000  N
  N102     1.0000 0.17790  0.85160  0.56000  Biso   1.000  N
  N103     1.0000 0.17420  0.96770  0.55480  Biso   1.000  N
  N104     1.0000 0.08890  0.08030  0.44570  Biso   1.000  N
  N105     1.0000 0.03196  0.12070  0.33620  Biso   1.000  N
  N106     1.0000 0.20450  0.12550  0.56170  Biso   1.000  N
  N107     1.0000 0.27050  0.19130  0.62340  Biso   1.000  N
  N108     1.0000 0.88240  0.26080  0.21530  Biso   1.000  N
  N109     1.0000 0.80400  0.15070  0.17580  Biso   1.000  N
  N110     1.0000 0.80500  0.03370  0.17700  Biso   1.000  N
  N111     1.0000 0.72420  0.37350  0.37110  Biso   1.000  N
  N112     1.0000 0.78870  0.30430  0.43150  Biso   1.000  N
  N113     1.0000 0.15600  0.09280  0.70780  Biso   1.000  N
  N114     1.0000 0.14940  0.09240  0.61490  Biso   1.000  N
  N115     1.0000 0.88360  0.93230  0.20910  Biso   1.000  N
  N116     1.0000 0.94850  0.89610  0.22810  Biso   1.000  N
  N117     1.0000 0.96550  0.22310  0.66410  Biso   1.000  N
  C181     1.0000 0.15680  0.90930  0.55620  Biso   1.000  C
  H181     1.0000 0.13110  0.90840  0.55460  Biso   1.000  H
  C182     1.0000 0.21260  0.87700  0.56200  Biso   1.000  C
  H182     1.0000 0.23490  0.85000  0.56570  Biso   1.000  H
  C183     1.0000 0.21040  0.94770  0.55800  Biso   1.000  C
  H183     1.0000 0.23020  0.97680  0.55750  Biso   1.000  H
  C184     1.0000 0.07750  0.12370  0.39570  Biso   1.000  C
  H184     1.0000 0.09990  0.15370  0.40250  Biso   1.000  H
  C185     1.0000 0.04710  0.04800  0.41560  Biso   1.000  C
  H185     1.0000 0.04270  0.01420  0.43690  Biso   1.000  H
  C186     1.0000 0.01180  0.07300  0.34810  Biso   1.000  C
  H186     1.0000 0.97930  0.05940  0.31600  Biso   1.000  H
  C187     1.0000 0.23800  0.15990  0.62030  Biso   1.000  C
  H187     1.0000 0.23870  0.16180  0.65730  Biso   1.000  H
  C188     1.0000 0.21710  0.13560  0.52290  Biso   1.000  C
  H188     1.0000 0.20060  0.11790  0.47780  Biso   1.000  H
  C189     1.0000 0.25680  0.17480  0.56010  Biso   1.000  C
  H189     1.0000 0.27270  0.18890  0.54540  Biso   1.000  H
  C190     1.0000 0.82550  0.09270  0.21350  Biso   1.000  C
  H190     1.0000 0.85280  0.09330  0.26180  Biso   1.000  H
  C191     1.0000 0.76690  0.05670  0.10910  Biso   1.000  C
  H191     1.0000 0.74510  0.02870  0.06950  Biso   1.000  H
  C192     1.0000 0.76680  0.12700  0.10980  Biso   1.000  C
  H192     1.0000 0.74430  0.15500  0.07050  Biso   1.000  H
  C193     1.0000 0.75710  0.34270  0.37420  Biso   1.000  C
  H193     1.0000 0.75810  0.34750  0.33900  Biso   1.000  H
  C194     1.0000 0.73530  0.35080  0.43130  Biso   1.000  C
  H194     1.0000 0.71830  0.36300  0.44480  Biso   1.000  H
  C195     1.0000 0.77290  0.30980  0.46690  Biso   1.000  C
  H195     1.0000 0.78690  0.28780  0.50940  Biso   1.000  H
  C196     1.0000 0.15550  0.05590  0.66370  Biso   1.000  C
  H196     1.0000 0.15910  0.00770  0.66700  Biso   1.000  H
  C197     1.0000 0.15070  0.15870  0.68670  Biso   1.000  C
  H197     1.0000 0.15000  0.19740  0.70790  Biso   1.000  H
  C198     1.0000 0.14650  0.16030  0.62990  Biso   1.000  C
  H198     1.0000 0.14250  0.19990  0.60540  Biso   1.000  H
  C199     1.0000 0.91830  0.88740  0.23900  Biso   1.000  C
  H199     1.0000 0.92210  0.85110  0.26640  Biso   1.000  H
  C200     1.0000 0.89140  0.97530  0.17640  Biso   1.000  C
  H200     1.0000 0.87230  0.01380  0.14940  Biso   1.000  H
  C201     1.0000 0.93050  0.95480  0.18840  Biso   1.000  C
  H201     1.0000 0.94350  0.97720  0.17210  Biso   1.000  H
  N118     1.0000 0.83900  0.27680  0.28890  Biso   1.000  N
  N119     1.0000 0.94860  0.23580  0.23280  Biso   1.000  N
  N120     1.0000 0.90460  0.25490  0.55100  Biso   1.000  N
  C202     1.0000 0.83280  0.24190  0.32790  Biso   1.000  C
  H202     1.0000 0.81930  0.19760  0.31590  Biso   1.000  H
  C203     1.0000 0.92160  0.20750  0.60170  Biso   1.000  C
  H203     1.0000 0.90450  0.16760  0.59410  Biso   1.000  H
  C204     1.0000 0.91000  0.21260  0.22070  Biso   1.000  C
  H204     1.0000 0.90290  0.16540  0.21640  Biso   1.000  H
  C205     1.0000 0.86840  0.33100  0.33220  Biso   1.000  C
  H205     1.0000 0.88210  0.36370  0.32310  Biso   1.000  H
  C206     1.0000 0.87410  0.32910  0.39050  Biso   1.000  C
  H206     1.0000 0.89320  0.35950  0.42880  Biso   1.000  H
  C207     1.0000 0.89380  0.31820  0.19730  Biso   1.000  C
  H207     1.0000 0.87770  0.36070  0.18220  Biso   1.000  H
  C208     1.0000 0.93300  0.30210  0.20540  Biso   1.000  C
  H208     1.0000 0.94700  0.33120  0.19430  Biso   1.000  H
  C209     1.0000 0.97120  0.29110  0.65500  Biso   1.000  C
  H209     1.0000 0.99750  0.31890  0.69020  Biso   1.000  H
  C210     1.0000 0.93310  0.31280  0.58730  Biso   1.000  C
  H210     1.0000 0.92760  0.35750  0.56930  Biso   1.000  H
  C211     1.0000 0.15340  0.65650  0.68670  Biso   1.000  C
  H211     1.0000 0.15300  0.61690  0.70720  Biso   1.000  H
  C212     1.0000 0.14680  0.65810  0.62760  Biso   1.000  C
  H212     1.0000 0.13930  0.61980  0.59950  Biso   1.000  H
  C213     1.0000 0.41230  0.18190  0.74410  Biso   1.000  C
  H213     1.0000 0.40620  0.13970  0.75460  Biso   1.000  H
  C214     1.0000 0.45260  0.19730  0.75460  Biso   1.000  C
  H214     1.0000 0.47850  0.16740  0.77350  Biso   1.000  H
  C215     1.0000 0.48380  0.77250  0.64890  Biso   1.000  C
  H215     1.0000 0.51570  0.78870  0.67910  Biso   1.000  H
  C216     1.0000 0.44580  0.79330  0.58030  Biso   1.000  C
  H216     1.0000 0.44760  0.82830  0.55690  Biso   1.000  H
  Zn25     1.0000 0.65848  0.74702  0.04768  Biso   1.000  Zn
  Zn26     1.0000 0.34697  0.56539  0.95702  Biso   1.000  Zn
  Zn27     1.0000 0.67584  0.74863  0.29848  Biso   1.000  Zn
  Zn28     1.0000 0.67144  0.43693  0.29495  Biso   1.000  Zn
  N121     1.0000 0.65260  0.77540  0.11560  Biso   1.000  N
  N122     1.0000 0.32210  0.35160  0.94000  Biso   1.000  N
  N123     1.0000 0.32580  0.46770  0.94520  Biso   1.000  N
  N124     1.0000 0.41110  0.58030  0.05430  Biso   1.000  N
  N125     1.0000 0.46804  0.62070  0.16380  Biso   1.000  N
  N126     1.0000 0.29550  0.62550  0.93830  Biso   1.000  N
  N127     1.0000 0.22950  0.69130  0.87660  Biso   1.000  N
  N128     1.0000 0.61760  0.76080  0.28470  Biso   1.000  N
  N129     1.0000 0.69600  0.65070  0.32420  Biso   1.000  N
  N130     1.0000 0.69500  0.53370  0.32300  Biso   1.000  N
  N131     1.0000 0.77580  0.87350  0.12890  Biso   1.000  N
  N132     1.0000 0.71130  0.80430  0.06850  Biso   1.000  N
  N133     1.0000 0.34400  0.59280  0.79220  Biso   1.000  N
  N134     1.0000 0.35060  0.59240  0.88510  Biso   1.000  N
  N135     1.0000 0.61640  0.43230  0.29090  Biso   1.000  N
  N136     1.0000 0.55150  0.39610  0.27190  Biso   1.000  N
  N137     1.0000 0.53450  0.72310  0.83590  Biso   1.000  N
  C217     1.0000 0.34320  0.40930  0.94380  Biso   1.000  C
  H217     1.0000 0.36890  0.40840  0.94540  Biso   1.000  H
  C218     1.0000 0.28740  0.37700  0.93800  Biso   1.000  C
  H218     1.0000 0.26510  0.35000  0.93430  Biso   1.000  H
  C219     1.0000 0.28960  0.44770  0.94200  Biso   1.000  C
  H219     1.0000 0.26980  0.47680  0.94250  Biso   1.000  H
  C220     1.0000 0.42250  0.62370  0.10430  Biso   1.000  C
  H220     1.0000 0.40010  0.65370  0.09750  Biso   1.000  H
  C221     1.0000 0.45290  0.54800  0.08440  Biso   1.000  C
  H221     1.0000 0.45730  0.51420  0.06310  Biso   1.000  H
  C222     1.0000 0.48820  0.57300  0.15190  Biso   1.000  C
  H222     1.0000 0.52070  0.55940  0.18400  Biso   1.000  H
  C223     1.0000 0.26200  0.65990  0.87970  Biso   1.000  C
  H223     1.0000 0.26130  0.66180  0.84270  Biso   1.000  H
  C224     1.0000 0.28290  0.63560  0.97710  Biso   1.000  C
  H224     1.0000 0.29940  0.61790  0.02220  Biso   1.000  H
  C225     1.0000 0.24320  0.67480  0.93990  Biso   1.000  C
  H225     1.0000 0.22730  0.68890  0.95460  Biso   1.000  H
  C226     1.0000 0.67450  0.59270  0.28650  Biso   1.000  C
  H226     1.0000 0.64720  0.59330  0.23820  Biso   1.000  H
  C227     1.0000 0.73310  0.55670  0.39090  Biso   1.000  C
  H227     1.0000 0.75490  0.52870  0.43050  Biso   1.000  H
  C228     1.0000 0.73320  0.62700  0.39020  Biso   1.000  C
  H228     1.0000 0.75570  0.65500  0.42950  Biso   1.000  H
  C229     1.0000 0.74290  0.84270  0.12580  Biso   1.000  C
  H229     1.0000 0.74190  0.84750  0.16100  Biso   1.000  H
  C230     1.0000 0.76470  0.85080  0.06870  Biso   1.000  C
  H230     1.0000 0.78170  0.86300  0.05520  Biso   1.000  H
  C231     1.0000 0.72710  0.80980  0.03310  Biso   1.000  C
  H231     1.0000 0.71310  0.78780  0.99060  Biso   1.000  H
  C232     1.0000 0.34450  0.55590  0.83630  Biso   1.000  C
  H232     1.0000 0.34090  0.50770  0.83300  Biso   1.000  H
  C233     1.0000 0.34930  0.65870  0.81330  Biso   1.000  C
  H233     1.0000 0.35000  0.69740  0.79210  Biso   1.000  H
  C234     1.0000 0.35350  0.66030  0.87010  Biso   1.000  C
  H234     1.0000 0.35750  0.69990  0.89460  Biso   1.000  H
  C235     1.0000 0.58170  0.38740  0.26100  Biso   1.000  C
  H235     1.0000 0.57790  0.35110  0.23360  Biso   1.000  H
  C236     1.0000 0.60860  0.47530  0.32360  Biso   1.000  C
  H236     1.0000 0.62770  0.51380  0.35060  Biso   1.000  H
  C237     1.0000 0.56950  0.45480  0.31160  Biso   1.000  C
  H237     1.0000 0.55650  0.47720  0.32790  Biso   1.000  H
  N138     1.0000 0.66100  0.77680  0.21110  Biso   1.000  N
  N139     1.0000 0.55140  0.73580  0.26720  Biso   1.000  N
  N140     1.0000 0.59540  0.75490  0.94900  Biso   1.000  N
  C238     1.0000 0.66720  0.74190  0.17210  Biso   1.000  C
  H238     1.0000 0.68070  0.69760  0.18410  Biso   1.000  H
  C239     1.0000 0.57840  0.70750  0.89830  Biso   1.000  C
  H239     1.0000 0.59550  0.66760  0.90590  Biso   1.000  H
  C240     1.0000 0.59000  0.71260  0.27930  Biso   1.000  C
  H240     1.0000 0.59710  0.66540  0.28360  Biso   1.000  H
  C241     1.0000 0.63160  0.83100  0.16780  Biso   1.000  C
  H241     1.0000 0.61790  0.86370  0.17690  Biso   1.000  H
  C242     1.0000 0.62590  0.82910  0.10950  Biso   1.000  C
  H242     1.0000 0.60680  0.85950  0.07120  Biso   1.000  H
  C243     1.0000 0.60620  0.81820  0.30270  Biso   1.000  C
  H243     1.0000 0.62230  0.86070  0.31780  Biso   1.000  H
  C244     1.0000 0.56700  0.80210  0.29460  Biso   1.000  C
  H244     1.0000 0.55300  0.83120  0.30570  Biso   1.000  H
  C245     1.0000 0.52880  0.79110  0.84500  Biso   1.000  C
  H245     1.0000 0.50250  0.81890  0.80980  Biso   1.000  H
  C246     1.0000 0.56690  0.81280  0.91270  Biso   1.000  C
  H246     1.0000 0.57240  0.85750  0.93070  Biso   1.000  H
  C247     1.0000 0.34660  0.15650  0.81330  Biso   1.000  C
  H247     1.0000 0.34700  0.11690  0.79280  Biso   1.000  H
  C248     1.0000 0.35320  0.15810  0.87240  Biso   1.000  C
  H248     1.0000 0.36070  0.11980  0.90050  Biso   1.000  H
  C249     1.0000 0.08770  0.68190  0.75590  Biso   1.000  C
  H249     1.0000 0.09380  0.63970  0.74540  Biso   1.000  H
  C250     1.0000 0.04740  0.69730  0.74540  Biso   1.000  C
  H250     1.0000 0.02150  0.66740  0.72650  Biso   1.000  H
  C251     1.0000 0.01620  0.27250  0.85110  Biso   1.000  C
  H251     1.0000 0.98430  0.28870  0.82090  Biso   1.000  H
  C252     1.0000 0.05420  0.29330  0.91970  Biso   1.000  C
  H252     1.0000 0.05240  0.32830  0.94310  Biso   1.000  H
  Zn29     1.0000 0.15848  0.24702  0.04768  Biso   1.000  Zn
  Zn30     1.0000 0.84697  0.06539  0.95702  Biso   1.000  Zn
  Zn31     1.0000 0.17584  0.24863  0.29848  Biso   1.000  Zn
  Zn32     1.0000 0.17144  0.93693  0.29495  Biso   1.000  Zn
  N141     1.0000 0.15260  0.27540  0.11560  Biso   1.000  N
  N142     1.0000 0.82210  0.85160  0.94000  Biso   1.000  N
  N143     1.0000 0.82580  0.96770  0.94520  Biso   1.000  N
  N144     1.0000 0.91110  0.08030  0.05430  Biso   1.000  N
  N145     1.0000 0.96804  0.12070  0.16380  Biso   1.000  N
  N146     1.0000 0.79550  0.12550  0.93830  Biso   1.000  N
  N147     1.0000 0.72950  0.19130  0.87660  Biso   1.000  N
  N148     1.0000 0.11760  0.26080  0.28470  Biso   1.000  N
  N149     1.0000 0.19600  0.15070  0.32420  Biso   1.000  N
  N150     1.0000 0.19500  0.03370  0.32300  Biso   1.000  N
  N151     1.0000 0.27580  0.37350  0.12890  Biso   1.000  N
  N152     1.0000 0.21130  0.30430  0.06850  Biso   1.000  N
  N153     1.0000 0.84400  0.09280  0.79220  Biso   1.000  N
  N154     1.0000 0.85060  0.09240  0.88510  Biso   1.000  N
  N155     1.0000 0.11640  0.93230  0.29090  Biso   1.000  N
  N156     1.0000 0.05150  0.89610  0.27190  Biso   1.000  N
  N157     1.0000 0.03450  0.22310  0.83590  Biso   1.000  N
  C253     1.0000 0.84320  0.90930  0.94380  Biso   1.000  C
  H253     1.0000 0.86890  0.90840  0.94540  Biso   1.000  H
  C254     1.0000 0.78740  0.87700  0.93800  Biso   1.000  C
  H254     1.0000 0.76510  0.85000  0.93430  Biso   1.000  H
  C255     1.0000 0.78960  0.94770  0.94200  Biso   1.000  C
  H255     1.0000 0.76980  0.97680  0.94250  Biso   1.000  H
  C256     1.0000 0.92250  0.12370  0.10430  Biso   1.000  C
  H256     1.0000 0.90010  0.15370  0.09750  Biso   1.000  H
  C257     1.0000 0.95290  0.04800  0.08440  Biso   1.000  C
  H257     1.0000 0.95730  0.01420  0.06310  Biso   1.000  H
  C258     1.0000 0.98820  0.07300  0.15190  Biso   1.000  C
  H258     1.0000 0.02070  0.05940  0.18400  Biso   1.000  H
  C259     1.0000 0.76200  0.15990  0.87970  Biso   1.000  C
  H259     1.0000 0.76130  0.16180  0.84270  Biso   1.000  H
  C260     1.0000 0.78290  0.13560  0.97710  Biso   1.000  C
  H260     1.0000 0.79940  0.11790  0.02220  Biso   1.000  H
  C261     1.0000 0.74320  0.17480  0.93990  Biso   1.000  C
  H261     1.0000 0.72730  0.18890  0.95460  Biso   1.000  H
  C262     1.0000 0.17450  0.09270  0.28650  Biso   1.000  C
  H262     1.0000 0.14720  0.09330  0.23820  Biso   1.000  H
  C263     1.0000 0.23310  0.05670  0.39090  Biso   1.000  C
  H263     1.0000 0.25490  0.02870  0.43050  Biso   1.000  H
  C264     1.0000 0.23320  0.12700  0.39020  Biso   1.000  C
  H264     1.0000 0.25570  0.15500  0.42950  Biso   1.000  H
  C265     1.0000 0.24290  0.34270  0.12580  Biso   1.000  C
  H265     1.0000 0.24190  0.34750  0.16100  Biso   1.000  H
  C266     1.0000 0.26470  0.35080  0.06870  Biso   1.000  C
  H266     1.0000 0.28170  0.36300  0.05520  Biso   1.000  H
  C267     1.0000 0.22710  0.30980  0.03310  Biso   1.000  C
  H267     1.0000 0.21310  0.28780  0.99060  Biso   1.000  H
  C268     1.0000 0.84450  0.05590  0.83630  Biso   1.000  C
  H268     1.0000 0.84090  0.00770  0.83300  Biso   1.000  H
  C269     1.0000 0.84930  0.15870  0.81330  Biso   1.000  C
  H269     1.0000 0.85000  0.19740  0.79210  Biso   1.000  H
  C270     1.0000 0.85350  0.16030  0.87010  Biso   1.000  C
  H270     1.0000 0.85750  0.19990  0.89460  Biso   1.000  H
  C271     1.0000 0.08170  0.88740  0.26100  Biso   1.000  C
  H271     1.0000 0.07790  0.85110  0.23360  Biso   1.000  H
  C272     1.0000 0.10860  0.97530  0.32360  Biso   1.000  C
  H272     1.0000 0.12770  0.01380  0.35060  Biso   1.000  H
  C273     1.0000 0.06950  0.95480  0.31160  Biso   1.000  C
  H273     1.0000 0.05650  0.97720  0.32790  Biso   1.000  H
  N158     1.0000 0.16100  0.27680  0.21110  Biso   1.000  N
  N159     1.0000 0.05140  0.23580  0.26720  Biso   1.000  N
  N160     1.0000 0.09540  0.25490  0.94900  Biso   1.000  N
  C274     1.0000 0.16720  0.24190  0.17210  Biso   1.000  C
  H274     1.0000 0.18070  0.19760  0.18410  Biso   1.000  H
  C275     1.0000 0.07840  0.20750  0.89830  Biso   1.000  C
  H275     1.0000 0.09550  0.16760  0.90590  Biso   1.000  H
  C276     1.0000 0.09000  0.21260  0.27930  Biso   1.000  C
  H276     1.0000 0.09710  0.16540  0.28360  Biso   1.000  H
  C277     1.0000 0.13160  0.33100  0.16780  Biso   1.000  C
  H277     1.0000 0.11790  0.36370  0.17690  Biso   1.000  H
  C278     1.0000 0.12590  0.32910  0.10950  Biso   1.000  C
  H278     1.0000 0.10680  0.35950  0.07120  Biso   1.000  H
  C279     1.0000 0.10620  0.31820  0.30270  Biso   1.000  C
  H279     1.0000 0.12230  0.36070  0.31780  Biso   1.000  H
  C280     1.0000 0.06700  0.30210  0.29460  Biso   1.000  C
  H280     1.0000 0.05300  0.33120  0.30570  Biso   1.000  H
  C281     1.0000 0.02880  0.29110  0.84500  Biso   1.000  C
  H281     1.0000 0.00250  0.31890  0.80980  Biso   1.000  H
  C282     1.0000 0.06690  0.31280  0.91270  Biso   1.000  C
  H282     1.0000 0.07240  0.35750  0.93070  Biso   1.000  H
  C283     1.0000 0.84660  0.65650  0.81330  Biso   1.000  C
  H283     1.0000 0.84700  0.61690  0.79280  Biso   1.000  H
  C284     1.0000 0.85320  0.65810  0.87240  Biso   1.000  C
  H284     1.0000 0.86070  0.61980  0.90050  Biso   1.000  H
  C285     1.0000 0.58770  0.18190  0.75590  Biso   1.000  C
  H285     1.0000 0.59380  0.13970  0.74540  Biso   1.000  H
  C286     1.0000 0.54740  0.19730  0.74540  Biso   1.000  C
  H286     1.0000 0.52150  0.16740  0.72650  Biso   1.000  H
  C287     1.0000 0.51620  0.77250  0.85110  Biso   1.000  C
  H287     1.0000 0.48430  0.78870  0.82090  Biso   1.000  H
  C288     1.0000 0.55420  0.79330  0.91970  Biso   1.000  C
  H288     1.0000 0.55240  0.82830  0.94310  Biso   1.000  H
  Zn33     1.0000 0.50000  0.32190  0.75000  Biso   1.000  Zn
  Zn34     1.0000 0.50000  0.66493  0.75000  Biso   1.000  Zn
  Zn35     1.0000 0.00000  0.82190  0.75000  Biso   1.000  Zn
  Zn36     1.0000 0.00000  0.16493  0.75000  Biso   1.000  Zn
  Zn37     1.0000 0.50000  0.67810  0.25000  Biso   1.000  Zn
  Zn38     1.0000 0.50000  0.33507  0.25000  Biso   1.000  Zn
  Zn39     1.0000 0.00000  0.17810  0.25000  Biso   1.000  Zn
  Zn40     1.0000 0.00000  0.83507  0.25000  Biso   1.000  Zn
