data_image0
_cell_length_a       33.9418
_cell_length_b       33.9418
_cell_length_c       14.2185
_cell_angle_alpha    90
_cell_angle_beta     90
_cell_angle_gamma    120

_symmetry_space_group_name_H-M    "P 1"
_symmetry_int_tables_number       1

loop_
  _symmetry_equiv_pos_as_xyz
  'x, y, z'

loop_
  _atom_site_label
  _atom_site_occupancy
  _atom_site_fract_x
  _atom_site_fract_y
  _atom_site_fract_z
  _atom_site_thermal_displace_type
  _atom_site_B_iso_or_equiv
  _atom_site_type_symbol
  Zn1      1.0000 0.34026  0.07965  0.62148  Biso   1.000  Zn
  O1       1.0000 0.32122  0.12296  0.57839  Biso   1.000  O
  O2       1.0000 0.29731  0.01927  0.57878  Biso   1.000  O
  O3       1.0000 0.40331  0.10776  0.57848  Biso   1.000  O
  O4       1.0000 0.62474  0.27262  0.42188  Biso   1.000  O
  O5       1.0000 0.33526  0.08823  0.75496  Biso   1.000  O
  O6       1.0000 0.36732  0.04584  0.76078  Biso   1.000  O
  O7       1.0000 0.67733  0.30655  0.25080  Biso   1.000  O
  O8       1.0000 0.65317  0.35623  0.25220  Biso   1.000  O
  C1       1.0000 0.32807  0.24987  0.58570  Biso   1.000  C
  C2       1.0000 0.34650  0.28346  0.65470  Biso   1.000  C
  H1       1.0000 0.34070  0.30810  0.65390  Biso   1.000  H
  C3       1.0000 0.37353  0.28040  0.72499  Biso   1.000  C
  H2       1.0000 0.38610  0.30290  0.77290  Biso   1.000  H
  C4       1.0000 0.38214  0.24452  0.72500  Biso   1.000  C
  H3       1.0000 0.40040  0.24250  0.77320  Biso   1.000  H
  C5       1.0000 0.36443  0.21182  0.65565  Biso   1.000  C
  H4       1.0000 0.37100  0.18770  0.65570  Biso   1.000  H
  C6       1.0000 0.33689  0.21404  0.58518  Biso   1.000  C
  C7       1.0000 0.54701  0.18111  0.41601  Biso   1.000  C
  C8       1.0000 0.57699  0.18006  0.35090  Biso   1.000  C
  H5       1.0000 0.60800  0.20350  0.35020  Biso   1.000  H
  C9       1.0000 0.56103  0.14407  0.28640  Biso   1.000  C
  H6       1.0000 0.58110  0.14300  0.24140  Biso   1.000  H
  C10      1.0000 0.51565  0.10991  0.28870  Biso   1.000  C
  H7       1.0000 0.50520  0.08520  0.24600  Biso   1.000  H
  C11      1.0000 0.48558  0.11131  0.35170  Biso   1.000  C
  H8       1.0000 0.45450  0.08820  0.35120  Biso   1.000  H
  C12      1.0000 0.50108  0.14691  0.41630  Biso   1.000  C
  C13      1.0000 0.35692  0.07445  0.90750  Biso   1.000  C
  C14      1.0000 0.35353  0.11480  0.95108  Biso   1.000  C
  C15      1.0000 0.35374  0.15047  0.90310  Biso   1.000  C
  H9       1.0000 0.35350  0.15040  0.83620  Biso   1.000  H
  C16      1.0000 0.35428  0.18630  0.95170  Biso   1.000  C
  H10      1.0000 0.35430  0.20810  0.90850  Biso   1.000  H
  C17      1.0000 0.40037  0.07953  0.95043  Biso   1.000  C
  C18      1.0000 0.43897  0.08706  0.90250  Biso   1.000  C
  H11      1.0000 0.43930  0.08780  0.83570  Biso   1.000  H
  C19      1.0000 0.47684  0.09350  0.95050  Biso   1.000  C
  H12      1.0000 0.50040  0.09770  0.90730  Biso   1.000  H
  C20      1.0000 0.31721  0.03234  0.95132  Biso   1.000  C
  C21      1.0000 0.28282  0.99579  0.90210  Biso   1.000  C
  H13      1.0000 0.28260  0.99570  0.83530  Biso   1.000  H
  C22      1.0000 0.24929  0.95996  0.95130  Biso   1.000  C
  H14      1.0000 0.22810  0.93730  0.90870  Biso   1.000  H
  C23      1.0000 0.35393  0.06960  0.79963  Biso   1.000  C
  C24      1.0000 0.63875  0.28679  0.04710  Biso   1.000  C
  C25      1.0000 0.61123  0.24485  0.09830  Biso   1.000  C
  H15      1.0000 0.60960  0.24490  0.16500  Biso   1.000  H
  C26      1.0000 0.58727  0.20453  0.04820  Biso   1.000  C
  H16      1.0000 0.57130  0.17970  0.09110  Biso   1.000  H
  Zn2      1.0000 0.92035  0.26060  0.62148  Biso   1.000  Zn
  O9       1.0000 0.87704  0.19826  0.57839  Biso   1.000  O
  O10      1.0000 0.98073  0.27804  0.57878  Biso   1.000  O
  O11      1.0000 0.89224  0.29555  0.57848  Biso   1.000  O
  O12      1.0000 0.72738  0.35212  0.42188  Biso   1.000  O
  O13      1.0000 0.91177  0.24703  0.75496  Biso   1.000  O
  O14      1.0000 0.95416  0.32148  0.76078  Biso   1.000  O
  O15      1.0000 0.69345  0.37078  0.25080  Biso   1.000  O
  O16      1.0000 0.64377  0.29694  0.25220  Biso   1.000  O
  C27      1.0000 0.75013  0.07820  0.58570  Biso   1.000  C
  C28      1.0000 0.71654  0.06304  0.65470  Biso   1.000  C
  H17      1.0000 0.69190  0.03260  0.65390  Biso   1.000  H
  C29      1.0000 0.71960  0.09313  0.72499  Biso   1.000  C
  H18      1.0000 0.69710  0.08320  0.77290  Biso   1.000  H
  C30      1.0000 0.75548  0.13762  0.72500  Biso   1.000  C
  H19      1.0000 0.75750  0.15790  0.77320  Biso   1.000  H
  C31      1.0000 0.78818  0.15261  0.65565  Biso   1.000  C
  H20      1.0000 0.81230  0.18330  0.65570  Biso   1.000  H
  C32      1.0000 0.78596  0.12285  0.58518  Biso   1.000  C
  C33      1.0000 0.81889  0.36590  0.41601  Biso   1.000  C
  C34      1.0000 0.81994  0.39693  0.35090  Biso   1.000  C
  H21      1.0000 0.79650  0.40450  0.35020  Biso   1.000  H
  C35      1.0000 0.85593  0.41696  0.28640  Biso   1.000  C
  H22      1.0000 0.85700  0.43810  0.24140  Biso   1.000  H
  C36      1.0000 0.89009  0.40574  0.28870  Biso   1.000  C
  H23      1.0000 0.91480  0.42000  0.24600  Biso   1.000  H
  C37      1.0000 0.88869  0.37427  0.35170  Biso   1.000  C
  H24      1.0000 0.91180  0.36630  0.35120  Biso   1.000  H
  C38      1.0000 0.85309  0.35417  0.41630  Biso   1.000  C
  C39      1.0000 0.92555  0.28247  0.90750  Biso   1.000  C
  C40      1.0000 0.88520  0.23873  0.95108  Biso   1.000  C
  C41      1.0000 0.84953  0.20327  0.90310  Biso   1.000  C
  H25      1.0000 0.84960  0.20310  0.83620  Biso   1.000  H
  C42      1.0000 0.81370  0.16798  0.95170  Biso   1.000  C
  H26      1.0000 0.79190  0.14620  0.90850  Biso   1.000  H
  C43      1.0000 0.92047  0.32084  0.95043  Biso   1.000  C
  C44      1.0000 0.91294  0.35191  0.90250  Biso   1.000  C
  H27      1.0000 0.91220  0.35150  0.83570  Biso   1.000  H
  C45      1.0000 0.90650  0.38334  0.95050  Biso   1.000  C
  H28      1.0000 0.90230  0.40270  0.90730  Biso   1.000  H
  C46      1.0000 0.96766  0.28487  0.95132  Biso   1.000  C
  C47      1.0000 0.00421  0.28703  0.90210  Biso   1.000  C
  H29      1.0000 0.00430  0.28690  0.83530  Biso   1.000  H
  C48      1.0000 0.04004  0.28933  0.95130  Biso   1.000  C
  H30      1.0000 0.06270  0.29080  0.90870  Biso   1.000  H
  C49      1.0000 0.93040  0.28433  0.79963  Biso   1.000  C
  C50      1.0000 0.71321  0.35196  0.04710  Biso   1.000  C
  C51      1.0000 0.75515  0.36638  0.09830  Biso   1.000  C
  H31      1.0000 0.75510  0.36470  0.16500  Biso   1.000  H
  C52      1.0000 0.79547  0.38274  0.04820  Biso   1.000  C
  H32      1.0000 0.82030  0.39160  0.09110  Biso   1.000  H
  Zn3      1.0000 0.73940  0.65974  0.62148  Biso   1.000  Zn
  O17      1.0000 0.80174  0.67878  0.57839  Biso   1.000  O
  O18      1.0000 0.72196  0.70269  0.57878  Biso   1.000  O
  O19      1.0000 0.70445  0.59669  0.57848  Biso   1.000  O
  O20      1.0000 0.64788  0.37526  0.42188  Biso   1.000  O
  O21      1.0000 0.75297  0.66474  0.75496  Biso   1.000  O
  O22      1.0000 0.67852  0.63268  0.76078  Biso   1.000  O
  O23      1.0000 0.62922  0.32267  0.25080  Biso   1.000  O
  O24      1.0000 0.70306  0.34683  0.25220  Biso   1.000  O
  C53      1.0000 0.92180  0.67193  0.58570  Biso   1.000  C
  C54      1.0000 0.93696  0.65350  0.65470  Biso   1.000  C
  H33      1.0000 0.96740  0.65930  0.65390  Biso   1.000  H
  C55      1.0000 0.90687  0.62647  0.72499  Biso   1.000  C
  H34      1.0000 0.91680  0.61390  0.77290  Biso   1.000  H
  C56      1.0000 0.86238  0.61786  0.72500  Biso   1.000  C
  H35      1.0000 0.84210  0.59960  0.77320  Biso   1.000  H
  C57      1.0000 0.84739  0.63557  0.65565  Biso   1.000  C
  H36      1.0000 0.81670  0.62900  0.65570  Biso   1.000  H
  C58      1.0000 0.87715  0.66311  0.58518  Biso   1.000  C
  C59      1.0000 0.63410  0.45299  0.41601  Biso   1.000  C
  C60      1.0000 0.60307  0.42301  0.35090  Biso   1.000  C
  H37      1.0000 0.59550  0.39200  0.35020  Biso   1.000  H
  C61      1.0000 0.58304  0.43897  0.28640  Biso   1.000  C
  H38      1.0000 0.56190  0.41890  0.24140  Biso   1.000  H
  C62      1.0000 0.59426  0.48435  0.28870  Biso   1.000  C
  H39      1.0000 0.58000  0.49480  0.24600  Biso   1.000  H
  C63      1.0000 0.62573  0.51442  0.35170  Biso   1.000  C
  H40      1.0000 0.63370  0.54550  0.35120  Biso   1.000  H
  C64      1.0000 0.64583  0.49892  0.41630  Biso   1.000  C
  C65      1.0000 0.71753  0.64308  0.90750  Biso   1.000  C
  C66      1.0000 0.76127  0.64647  0.95108  Biso   1.000  C
  C67      1.0000 0.79673  0.64626  0.90310  Biso   1.000  C
  H41      1.0000 0.79690  0.64650  0.83620  Biso   1.000  H
  C68      1.0000 0.83202  0.64572  0.95170  Biso   1.000  C
  H42      1.0000 0.85380  0.64570  0.90850  Biso   1.000  H
  C69      1.0000 0.67916  0.59963  0.95043  Biso   1.000  C
  C70      1.0000 0.64809  0.56103  0.90250  Biso   1.000  C
  H43      1.0000 0.64850  0.56070  0.83570  Biso   1.000  H
  C71      1.0000 0.61666  0.52316  0.95050  Biso   1.000  C
  H44      1.0000 0.59730  0.49960  0.90730  Biso   1.000  H
  C72      1.0000 0.71513  0.68279  0.95132  Biso   1.000  C
  C73      1.0000 0.71297  0.71718  0.90210  Biso   1.000  C
  H45      1.0000 0.71310  0.71740  0.83530  Biso   1.000  H
  C74      1.0000 0.71067  0.75071  0.95130  Biso   1.000  C
  H46      1.0000 0.70920  0.77190  0.90870  Biso   1.000  H
  C75      1.0000 0.71567  0.64607  0.79963  Biso   1.000  C
  C76      1.0000 0.64804  0.36125  0.04710  Biso   1.000  C
  C77      1.0000 0.63362  0.38877  0.09830  Biso   1.000  C
  H47      1.0000 0.63530  0.39040  0.16500  Biso   1.000  H
  C78      1.0000 0.61726  0.41273  0.04820  Biso   1.000  C
  H48      1.0000 0.60840  0.42870  0.09110  Biso   1.000  H
  Zn4      1.0000 0.65974  0.92035  0.62148  Biso   1.000  Zn
  O25      1.0000 0.67878  0.87704  0.57839  Biso   1.000  O
  O26      1.0000 0.70269  0.98073  0.57878  Biso   1.000  O
  O27      1.0000 0.59669  0.89224  0.57848  Biso   1.000  O
  O28      1.0000 0.37526  0.72738  0.42188  Biso   1.000  O
  O29      1.0000 0.66474  0.91177  0.75496  Biso   1.000  O
  O30      1.0000 0.63268  0.95416  0.76078  Biso   1.000  O
  O31      1.0000 0.32267  0.69345  0.25080  Biso   1.000  O
  O32      1.0000 0.34683  0.64377  0.25220  Biso   1.000  O
  C79      1.0000 0.67193  0.75013  0.58570  Biso   1.000  C
  C80      1.0000 0.65350  0.71654  0.65470  Biso   1.000  C
  H49      1.0000 0.65930  0.69190  0.65390  Biso   1.000  H
  C81      1.0000 0.62647  0.71960  0.72499  Biso   1.000  C
  H50      1.0000 0.61390  0.69710  0.77290  Biso   1.000  H
  C82      1.0000 0.61786  0.75548  0.72500  Biso   1.000  C
  H51      1.0000 0.59960  0.75750  0.77320  Biso   1.000  H
  C83      1.0000 0.63557  0.78818  0.65565  Biso   1.000  C
  H52      1.0000 0.62900  0.81230  0.65570  Biso   1.000  H
  C84      1.0000 0.66311  0.78596  0.58518  Biso   1.000  C
  C85      1.0000 0.45299  0.81889  0.41601  Biso   1.000  C
  C86      1.0000 0.42301  0.81994  0.35090  Biso   1.000  C
  H53      1.0000 0.39200  0.79650  0.35020  Biso   1.000  H
  C87      1.0000 0.43897  0.85593  0.28640  Biso   1.000  C
  H54      1.0000 0.41890  0.85700  0.24140  Biso   1.000  H
  C88      1.0000 0.48435  0.89009  0.28870  Biso   1.000  C
  H55      1.0000 0.49480  0.91480  0.24600  Biso   1.000  H
  C89      1.0000 0.51442  0.88869  0.35170  Biso   1.000  C
  H56      1.0000 0.54550  0.91180  0.35120  Biso   1.000  H
  C90      1.0000 0.49892  0.85309  0.41630  Biso   1.000  C
  C91      1.0000 0.64308  0.92555  0.90750  Biso   1.000  C
  C92      1.0000 0.64647  0.88520  0.95108  Biso   1.000  C
  C93      1.0000 0.64626  0.84953  0.90310  Biso   1.000  C
  H57      1.0000 0.64650  0.84960  0.83620  Biso   1.000  H
  C94      1.0000 0.64572  0.81370  0.95170  Biso   1.000  C
  H58      1.0000 0.64570  0.79190  0.90850  Biso   1.000  H
  C95      1.0000 0.59963  0.92047  0.95043  Biso   1.000  C
  C96      1.0000 0.56103  0.91294  0.90250  Biso   1.000  C
  H59      1.0000 0.56070  0.91220  0.83570  Biso   1.000  H
  C97      1.0000 0.52316  0.90650  0.95050  Biso   1.000  C
  H60      1.0000 0.49960  0.90230  0.90730  Biso   1.000  H
  C98      1.0000 0.68279  0.96766  0.95132  Biso   1.000  C
  C99      1.0000 0.71718  0.00421  0.90210  Biso   1.000  C
  H61      1.0000 0.71740  0.00430  0.83530  Biso   1.000  H
  C100     1.0000 0.75071  0.04004  0.95130  Biso   1.000  C
  H62      1.0000 0.77190  0.06270  0.90870  Biso   1.000  H
  C101     1.0000 0.64607  0.93040  0.79963  Biso   1.000  C
  C102     1.0000 0.36125  0.71321  0.04710  Biso   1.000  C
  C103     1.0000 0.38877  0.75515  0.09830  Biso   1.000  C
  H63      1.0000 0.39040  0.75510  0.16500  Biso   1.000  H
  C104     1.0000 0.41273  0.79547  0.04820  Biso   1.000  C
  H64      1.0000 0.42870  0.82030  0.09110  Biso   1.000  H
  Zn5      1.0000 0.07965  0.73940  0.62148  Biso   1.000  Zn
  O33      1.0000 0.12296  0.80174  0.57839  Biso   1.000  O
  O34      1.0000 0.01927  0.72196  0.57878  Biso   1.000  O
  O35      1.0000 0.10776  0.70445  0.57848  Biso   1.000  O
  O36      1.0000 0.27262  0.64788  0.42188  Biso   1.000  O
  O37      1.0000 0.08823  0.75297  0.75496  Biso   1.000  O
  O38      1.0000 0.04584  0.67852  0.76078  Biso   1.000  O
  O39      1.0000 0.30655  0.62922  0.25080  Biso   1.000  O
  O40      1.0000 0.35623  0.70306  0.25220  Biso   1.000  O
  C105     1.0000 0.24987  0.92180  0.58570  Biso   1.000  C
  C106     1.0000 0.28346  0.93696  0.65470  Biso   1.000  C
  H65      1.0000 0.30810  0.96740  0.65390  Biso   1.000  H
  C107     1.0000 0.28040  0.90687  0.72499  Biso   1.000  C
  H66      1.0000 0.30290  0.91680  0.77290  Biso   1.000  H
  C108     1.0000 0.24452  0.86238  0.72500  Biso   1.000  C
  H67      1.0000 0.24250  0.84210  0.77320  Biso   1.000  H
  C109     1.0000 0.21182  0.84739  0.65565  Biso   1.000  C
  H68      1.0000 0.18770  0.81670  0.65570  Biso   1.000  H
  C110     1.0000 0.21404  0.87715  0.58518  Biso   1.000  C
  C111     1.0000 0.18111  0.63410  0.41601  Biso   1.000  C
  C112     1.0000 0.18006  0.60307  0.35090  Biso   1.000  C
  H69      1.0000 0.20350  0.59550  0.35020  Biso   1.000  H
  C113     1.0000 0.14407  0.58304  0.28640  Biso   1.000  C
  H70      1.0000 0.14300  0.56190  0.24140  Biso   1.000  H
  C114     1.0000 0.10991  0.59426  0.28870  Biso   1.000  C
  H71      1.0000 0.08520  0.58000  0.24600  Biso   1.000  H
  C115     1.0000 0.11131  0.62573  0.35170  Biso   1.000  C
  H72      1.0000 0.08820  0.63370  0.35120  Biso   1.000  H
  C116     1.0000 0.14691  0.64583  0.41630  Biso   1.000  C
  C117     1.0000 0.07445  0.71753  0.90750  Biso   1.000  C
  C118     1.0000 0.11480  0.76127  0.95108  Biso   1.000  C
  C119     1.0000 0.15047  0.79673  0.90310  Biso   1.000  C
  H73      1.0000 0.15040  0.79690  0.83620  Biso   1.000  H
  C120     1.0000 0.18630  0.83202  0.95170  Biso   1.000  C
  H74      1.0000 0.20810  0.85380  0.90850  Biso   1.000  H
  C121     1.0000 0.07953  0.67916  0.95043  Biso   1.000  C
  C122     1.0000 0.08706  0.64809  0.90250  Biso   1.000  C
  H75      1.0000 0.08780  0.64850  0.83570  Biso   1.000  H
  C123     1.0000 0.09350  0.61666  0.95050  Biso   1.000  C
  H76      1.0000 0.09770  0.59730  0.90730  Biso   1.000  H
  C124     1.0000 0.03234  0.71513  0.95132  Biso   1.000  C
  C125     1.0000 0.99579  0.71297  0.90210  Biso   1.000  C
  H77      1.0000 0.99570  0.71310  0.83530  Biso   1.000  H
  C126     1.0000 0.95996  0.71067  0.95130  Biso   1.000  C
  H78      1.0000 0.93730  0.70920  0.90870  Biso   1.000  H
  C127     1.0000 0.06960  0.71567  0.79963  Biso   1.000  C
  C128     1.0000 0.28679  0.64804  0.04710  Biso   1.000  C
  C129     1.0000 0.24485  0.63362  0.09830  Biso   1.000  C
  H79      1.0000 0.24490  0.63530  0.16500  Biso   1.000  H
  C130     1.0000 0.20453  0.61726  0.04820  Biso   1.000  C
  H80      1.0000 0.17970  0.60840  0.09110  Biso   1.000  H
  Zn6      1.0000 0.26060  0.34026  0.62148  Biso   1.000  Zn
  O41      1.0000 0.19826  0.32122  0.57839  Biso   1.000  O
  O42      1.0000 0.27804  0.29731  0.57878  Biso   1.000  O
  O43      1.0000 0.29555  0.40331  0.57848  Biso   1.000  O
  O44      1.0000 0.35212  0.62474  0.42188  Biso   1.000  O
  O45      1.0000 0.24703  0.33526  0.75496  Biso   1.000  O
  O46      1.0000 0.32148  0.36732  0.76078  Biso   1.000  O
  O47      1.0000 0.37078  0.67733  0.25080  Biso   1.000  O
  O48      1.0000 0.29694  0.65317  0.25220  Biso   1.000  O
  C131     1.0000 0.07820  0.32807  0.58570  Biso   1.000  C
  C132     1.0000 0.06304  0.34650  0.65470  Biso   1.000  C
  H81      1.0000 0.03260  0.34070  0.65390  Biso   1.000  H
  C133     1.0000 0.09313  0.37353  0.72499  Biso   1.000  C
  H82      1.0000 0.08320  0.38610  0.77290  Biso   1.000  H
  C134     1.0000 0.13762  0.38214  0.72500  Biso   1.000  C
  H83      1.0000 0.15790  0.40040  0.77320  Biso   1.000  H
  C135     1.0000 0.15261  0.36443  0.65565  Biso   1.000  C
  H84      1.0000 0.18330  0.37100  0.65570  Biso   1.000  H
  C136     1.0000 0.12285  0.33689  0.58518  Biso   1.000  C
  C137     1.0000 0.36590  0.54701  0.41601  Biso   1.000  C
  C138     1.0000 0.39693  0.57699  0.35090  Biso   1.000  C
  H85      1.0000 0.40450  0.60800  0.35020  Biso   1.000  H
  C139     1.0000 0.41696  0.56103  0.28640  Biso   1.000  C
  H86      1.0000 0.43810  0.58110  0.24140  Biso   1.000  H
  C140     1.0000 0.40574  0.51565  0.28870  Biso   1.000  C
  H87      1.0000 0.42000  0.50520  0.24600  Biso   1.000  H
  C141     1.0000 0.37427  0.48558  0.35170  Biso   1.000  C
  H88      1.0000 0.36630  0.45450  0.35120  Biso   1.000  H
  C142     1.0000 0.35417  0.50108  0.41630  Biso   1.000  C
  C143     1.0000 0.28247  0.35692  0.90750  Biso   1.000  C
  C144     1.0000 0.23873  0.35353  0.95108  Biso   1.000  C
  C145     1.0000 0.20327  0.35374  0.90310  Biso   1.000  C
  H89      1.0000 0.20310  0.35350  0.83620  Biso   1.000  H
  C146     1.0000 0.16798  0.35428  0.95170  Biso   1.000  C
  H90      1.0000 0.14620  0.35430  0.90850  Biso   1.000  H
  C147     1.0000 0.32084  0.40037  0.95043  Biso   1.000  C
  C148     1.0000 0.35191  0.43897  0.90250  Biso   1.000  C
  H91      1.0000 0.35150  0.43930  0.83570  Biso   1.000  H
  C149     1.0000 0.38334  0.47684  0.95050  Biso   1.000  C
  H92      1.0000 0.40270  0.50040  0.90730  Biso   1.000  H
  C150     1.0000 0.28487  0.31721  0.95132  Biso   1.000  C
  C151     1.0000 0.28703  0.28282  0.90210  Biso   1.000  C
  H93      1.0000 0.28690  0.28260  0.83530  Biso   1.000  H
  C152     1.0000 0.28933  0.24929  0.95130  Biso   1.000  C
  H94      1.0000 0.29080  0.22810  0.90870  Biso   1.000  H
  C153     1.0000 0.28433  0.35393  0.79963  Biso   1.000  C
  C154     1.0000 0.35196  0.63875  0.04710  Biso   1.000  C
  C155     1.0000 0.36638  0.61123  0.09830  Biso   1.000  C
  H95      1.0000 0.36470  0.60960  0.16500  Biso   1.000  H
  C156     1.0000 0.38274  0.58727  0.04820  Biso   1.000  C
  H96      1.0000 0.39160  0.57130  0.09110  Biso   1.000  H
  Zn7      1.0000 0.65974  0.92035  0.37852  Biso   1.000  Zn
  O49      1.0000 0.67878  0.87704  0.42161  Biso   1.000  O
  O50      1.0000 0.70269  0.98073  0.42122  Biso   1.000  O
  O51      1.0000 0.59669  0.89224  0.42152  Biso   1.000  O
  O52      1.0000 0.37526  0.72738  0.57812  Biso   1.000  O
  O53      1.0000 0.66474  0.91177  0.24504  Biso   1.000  O
  O54      1.0000 0.63268  0.95416  0.23922  Biso   1.000  O
  O55      1.0000 0.32267  0.69345  0.74920  Biso   1.000  O
  O56      1.0000 0.34683  0.64377  0.74780  Biso   1.000  O
  C157     1.0000 0.67193  0.75013  0.41430  Biso   1.000  C
  C158     1.0000 0.65350  0.71654  0.34530  Biso   1.000  C
  H97      1.0000 0.65930  0.69190  0.34610  Biso   1.000  H
  C159     1.0000 0.62647  0.71960  0.27501  Biso   1.000  C
  H98      1.0000 0.61390  0.69710  0.22710  Biso   1.000  H
  C160     1.0000 0.61786  0.75548  0.27500  Biso   1.000  C
  H99      1.0000 0.59960  0.75750  0.22680  Biso   1.000  H
  C161     1.0000 0.63557  0.78818  0.34435  Biso   1.000  C
  H100     1.0000 0.62900  0.81230  0.34430  Biso   1.000  H
  C162     1.0000 0.66311  0.78596  0.41482  Biso   1.000  C
  C163     1.0000 0.45299  0.81889  0.58399  Biso   1.000  C
  C164     1.0000 0.42301  0.81994  0.64910  Biso   1.000  C
  H101     1.0000 0.39200  0.79650  0.64980  Biso   1.000  H
  C165     1.0000 0.43897  0.85593  0.71360  Biso   1.000  C
  H102     1.0000 0.41890  0.85700  0.75860  Biso   1.000  H
  C166     1.0000 0.48435  0.89009  0.71130  Biso   1.000  C
  H103     1.0000 0.49480  0.91480  0.75400  Biso   1.000  H
  C167     1.0000 0.51442  0.88869  0.64830  Biso   1.000  C
  H104     1.0000 0.54550  0.91180  0.64880  Biso   1.000  H
  C168     1.0000 0.49892  0.85309  0.58370  Biso   1.000  C
  C169     1.0000 0.64308  0.92555  0.09250  Biso   1.000  C
  C170     1.0000 0.64647  0.88520  0.04892  Biso   1.000  C
  C171     1.0000 0.64626  0.84953  0.09690  Biso   1.000  C
  H105     1.0000 0.64650  0.84960  0.16380  Biso   1.000  H
  C172     1.0000 0.64572  0.81370  0.04830  Biso   1.000  C
  H106     1.0000 0.64570  0.79190  0.09150  Biso   1.000  H
  C173     1.0000 0.59963  0.92047  0.04957  Biso   1.000  C
  C174     1.0000 0.56103  0.91294  0.09750  Biso   1.000  C
  H107     1.0000 0.56070  0.91220  0.16430  Biso   1.000  H
  C175     1.0000 0.52316  0.90650  0.04950  Biso   1.000  C
  H108     1.0000 0.49960  0.90230  0.09270  Biso   1.000  H
  C176     1.0000 0.68279  0.96766  0.04868  Biso   1.000  C
  C177     1.0000 0.71718  0.00421  0.09790  Biso   1.000  C
  H109     1.0000 0.71740  0.00430  0.16470  Biso   1.000  H
  C178     1.0000 0.75071  0.04004  0.04870  Biso   1.000  C
  H110     1.0000 0.77190  0.06270  0.09130  Biso   1.000  H
  C179     1.0000 0.64607  0.93040  0.20037  Biso   1.000  C
  C180     1.0000 0.36125  0.71321  0.95290  Biso   1.000  C
  C181     1.0000 0.38877  0.75515  0.90170  Biso   1.000  C
  H111     1.0000 0.39040  0.75510  0.83500  Biso   1.000  H
  C182     1.0000 0.41273  0.79547  0.95180  Biso   1.000  C
  H112     1.0000 0.42870  0.82030  0.90890  Biso   1.000  H
  Zn8      1.0000 0.07965  0.73940  0.37852  Biso   1.000  Zn
  O57      1.0000 0.12296  0.80174  0.42161  Biso   1.000  O
  O58      1.0000 0.01927  0.72196  0.42122  Biso   1.000  O
  O59      1.0000 0.10776  0.70445  0.42152  Biso   1.000  O
  O60      1.0000 0.27262  0.64788  0.57812  Biso   1.000  O
  O61      1.0000 0.08823  0.75297  0.24504  Biso   1.000  O
  O62      1.0000 0.04584  0.67852  0.23922  Biso   1.000  O
  O63      1.0000 0.30655  0.62922  0.74920  Biso   1.000  O
  O64      1.0000 0.35623  0.70306  0.74780  Biso   1.000  O
  C183     1.0000 0.24987  0.92180  0.41430  Biso   1.000  C
  C184     1.0000 0.28346  0.93696  0.34530  Biso   1.000  C
  H113     1.0000 0.30810  0.96740  0.34610  Biso   1.000  H
  C185     1.0000 0.28040  0.90687  0.27501  Biso   1.000  C
  H114     1.0000 0.30290  0.91680  0.22710  Biso   1.000  H
  C186     1.0000 0.24452  0.86238  0.27500  Biso   1.000  C
  H115     1.0000 0.24250  0.84210  0.22680  Biso   1.000  H
  C187     1.0000 0.21182  0.84739  0.34435  Biso   1.000  C
  H116     1.0000 0.18770  0.81670  0.34430  Biso   1.000  H
  C188     1.0000 0.21404  0.87715  0.41482  Biso   1.000  C
  C189     1.0000 0.18111  0.63410  0.58399  Biso   1.000  C
  C190     1.0000 0.18006  0.60307  0.64910  Biso   1.000  C
  H117     1.0000 0.20350  0.59550  0.64980  Biso   1.000  H
  C191     1.0000 0.14407  0.58304  0.71360  Biso   1.000  C
  H118     1.0000 0.14300  0.56190  0.75860  Biso   1.000  H
  C192     1.0000 0.10991  0.59426  0.71130  Biso   1.000  C
  H119     1.0000 0.08520  0.58000  0.75400  Biso   1.000  H
  C193     1.0000 0.11131  0.62573  0.64830  Biso   1.000  C
  H120     1.0000 0.08820  0.63370  0.64880  Biso   1.000  H
  C194     1.0000 0.14691  0.64583  0.58370  Biso   1.000  C
  C195     1.0000 0.07445  0.71753  0.09250  Biso   1.000  C
  C196     1.0000 0.11480  0.76127  0.04892  Biso   1.000  C
  C197     1.0000 0.15047  0.79673  0.09690  Biso   1.000  C
  H121     1.0000 0.15040  0.79690  0.16380  Biso   1.000  H
  C198     1.0000 0.18630  0.83202  0.04830  Biso   1.000  C
  H122     1.0000 0.20810  0.85380  0.09150  Biso   1.000  H
  C199     1.0000 0.07953  0.67916  0.04957  Biso   1.000  C
  C200     1.0000 0.08706  0.64809  0.09750  Biso   1.000  C
  H123     1.0000 0.08780  0.64850  0.16430  Biso   1.000  H
  C201     1.0000 0.09350  0.61666  0.04950  Biso   1.000  C
  H124     1.0000 0.09770  0.59730  0.09270  Biso   1.000  H
  C202     1.0000 0.03234  0.71513  0.04868  Biso   1.000  C
  C203     1.0000 0.99579  0.71297  0.09790  Biso   1.000  C
  H125     1.0000 0.99570  0.71310  0.16470  Biso   1.000  H
  C204     1.0000 0.95996  0.71067  0.04870  Biso   1.000  C
  H126     1.0000 0.93730  0.70920  0.09130  Biso   1.000  H
  C205     1.0000 0.06960  0.71567  0.20037  Biso   1.000  C
  C206     1.0000 0.28679  0.64804  0.95290  Biso   1.000  C
  C207     1.0000 0.24485  0.63362  0.90170  Biso   1.000  C
  H127     1.0000 0.24490  0.63530  0.83500  Biso   1.000  H
  C208     1.0000 0.20453  0.61726  0.95180  Biso   1.000  C
  H128     1.0000 0.17970  0.60840  0.90890  Biso   1.000  H
  Zn9      1.0000 0.26060  0.34026  0.37852  Biso   1.000  Zn
  O65      1.0000 0.19826  0.32122  0.42161  Biso   1.000  O
  O66      1.0000 0.27804  0.29731  0.42122  Biso   1.000  O
  O67      1.0000 0.29555  0.40331  0.42152  Biso   1.000  O
  O68      1.0000 0.35212  0.62474  0.57812  Biso   1.000  O
  O69      1.0000 0.24703  0.33526  0.24504  Biso   1.000  O
  O70      1.0000 0.32148  0.36732  0.23922  Biso   1.000  O
  O71      1.0000 0.37078  0.67733  0.74920  Biso   1.000  O
  O72      1.0000 0.29694  0.65317  0.74780  Biso   1.000  O
  C209     1.0000 0.07820  0.32807  0.41430  Biso   1.000  C
  C210     1.0000 0.06304  0.34650  0.34530  Biso   1.000  C
  H129     1.0000 0.03260  0.34070  0.34610  Biso   1.000  H
  C211     1.0000 0.09313  0.37353  0.27501  Biso   1.000  C
  H130     1.0000 0.08320  0.38610  0.22710  Biso   1.000  H
  C212     1.0000 0.13762  0.38214  0.27500  Biso   1.000  C
  H131     1.0000 0.15790  0.40040  0.22680  Biso   1.000  H
  C213     1.0000 0.15261  0.36443  0.34435  Biso   1.000  C
  H132     1.0000 0.18330  0.37100  0.34430  Biso   1.000  H
  C214     1.0000 0.12285  0.33689  0.41482  Biso   1.000  C
  C215     1.0000 0.36590  0.54701  0.58399  Biso   1.000  C
  C216     1.0000 0.39693  0.57699  0.64910  Biso   1.000  C
  H133     1.0000 0.40450  0.60800  0.64980  Biso   1.000  H
  C217     1.0000 0.41696  0.56103  0.71360  Biso   1.000  C
  H134     1.0000 0.43810  0.58110  0.75860  Biso   1.000  H
  C218     1.0000 0.40574  0.51565  0.71130  Biso   1.000  C
  H135     1.0000 0.42000  0.50520  0.75400  Biso   1.000  H
  C219     1.0000 0.37427  0.48558  0.64830  Biso   1.000  C
  H136     1.0000 0.36630  0.45450  0.64880  Biso   1.000  H
  C220     1.0000 0.35417  0.50108  0.58370  Biso   1.000  C
  C221     1.0000 0.28247  0.35692  0.09250  Biso   1.000  C
  C222     1.0000 0.23873  0.35353  0.04892  Biso   1.000  C
  C223     1.0000 0.20327  0.35374  0.09690  Biso   1.000  C
  H137     1.0000 0.20310  0.35350  0.16380  Biso   1.000  H
  C224     1.0000 0.16798  0.35428  0.04830  Biso   1.000  C
  H138     1.0000 0.14620  0.35430  0.09150  Biso   1.000  H
  C225     1.0000 0.32084  0.40037  0.04957  Biso   1.000  C
  C226     1.0000 0.35191  0.43897  0.09750  Biso   1.000  C
  H139     1.0000 0.35150  0.43930  0.16430  Biso   1.000  H
  C227     1.0000 0.38334  0.47684  0.04950  Biso   1.000  C
  H140     1.0000 0.40270  0.50040  0.09270  Biso   1.000  H
  C228     1.0000 0.28487  0.31721  0.04868  Biso   1.000  C
  C229     1.0000 0.28703  0.28282  0.09790  Biso   1.000  C
  H141     1.0000 0.28690  0.28260  0.16470  Biso   1.000  H
  C230     1.0000 0.28933  0.24929  0.04870  Biso   1.000  C
  H142     1.0000 0.29080  0.22810  0.09130  Biso   1.000  H
  C231     1.0000 0.28433  0.35393  0.20037  Biso   1.000  C
  C232     1.0000 0.35196  0.63875  0.95290  Biso   1.000  C
  C233     1.0000 0.36638  0.61123  0.90170  Biso   1.000  C
  H143     1.0000 0.36470  0.60960  0.83500  Biso   1.000  H
  C234     1.0000 0.38274  0.58727  0.95180  Biso   1.000  C
  H144     1.0000 0.39160  0.57130  0.90890  Biso   1.000  H
  Zn10     1.0000 0.34026  0.07965  0.37852  Biso   1.000  Zn
  O73      1.0000 0.32122  0.12296  0.42161  Biso   1.000  O
  O74      1.0000 0.29731  0.01927  0.42122  Biso   1.000  O
  O75      1.0000 0.40331  0.10776  0.42152  Biso   1.000  O
  O76      1.0000 0.62474  0.27262  0.57812  Biso   1.000  O
  O77      1.0000 0.33526  0.08823  0.24504  Biso   1.000  O
  O78      1.0000 0.36732  0.04584  0.23922  Biso   1.000  O
  O79      1.0000 0.67733  0.30655  0.74920  Biso   1.000  O
  O80      1.0000 0.65317  0.35623  0.74780  Biso   1.000  O
  C235     1.0000 0.32807  0.24987  0.41430  Biso   1.000  C
  C236     1.0000 0.34650  0.28346  0.34530  Biso   1.000  C
  H145     1.0000 0.34070  0.30810  0.34610  Biso   1.000  H
  C237     1.0000 0.37353  0.28040  0.27501  Biso   1.000  C
  H146     1.0000 0.38610  0.30290  0.22710  Biso   1.000  H
  C238     1.0000 0.38214  0.24452  0.27500  Biso   1.000  C
  H147     1.0000 0.40040  0.24250  0.22680  Biso   1.000  H
  C239     1.0000 0.36443  0.21182  0.34435  Biso   1.000  C
  H148     1.0000 0.37100  0.18770  0.34430  Biso   1.000  H
  C240     1.0000 0.33689  0.21404  0.41482  Biso   1.000  C
  C241     1.0000 0.54701  0.18111  0.58399  Biso   1.000  C
  C242     1.0000 0.57699  0.18006  0.64910  Biso   1.000  C
  H149     1.0000 0.60800  0.20350  0.64980  Biso   1.000  H
  C243     1.0000 0.56103  0.14407  0.71360  Biso   1.000  C
  H150     1.0000 0.58110  0.14300  0.75860  Biso   1.000  H
  C244     1.0000 0.51565  0.10991  0.71130  Biso   1.000  C
  H151     1.0000 0.50520  0.08520  0.75400  Biso   1.000  H
  C245     1.0000 0.48558  0.11131  0.64830  Biso   1.000  C
  H152     1.0000 0.45450  0.08820  0.64880  Biso   1.000  H
  C246     1.0000 0.50108  0.14691  0.58370  Biso   1.000  C
  C247     1.0000 0.35692  0.07445  0.09250  Biso   1.000  C
  C248     1.0000 0.35353  0.11480  0.04892  Biso   1.000  C
  C249     1.0000 0.35374  0.15047  0.09690  Biso   1.000  C
  H153     1.0000 0.35350  0.15040  0.16380  Biso   1.000  H
  C250     1.0000 0.35428  0.18630  0.04830  Biso   1.000  C
  H154     1.0000 0.35430  0.20810  0.09150  Biso   1.000  H
  C251     1.0000 0.40037  0.07953  0.04957  Biso   1.000  C
  C252     1.0000 0.43897  0.08706  0.09750  Biso   1.000  C
  H155     1.0000 0.43930  0.08780  0.16430  Biso   1.000  H
  C253     1.0000 0.47684  0.09350  0.04950  Biso   1.000  C
  H156     1.0000 0.50040  0.09770  0.09270  Biso   1.000  H
  C254     1.0000 0.31721  0.03234  0.04868  Biso   1.000  C
  C255     1.0000 0.28282  0.99579  0.09790  Biso   1.000  C
  H157     1.0000 0.28260  0.99570  0.16470  Biso   1.000  H
  C256     1.0000 0.24929  0.95996  0.04870  Biso   1.000  C
  H158     1.0000 0.22810  0.93730  0.09130  Biso   1.000  H
  C257     1.0000 0.35393  0.06960  0.20037  Biso   1.000  C
  C258     1.0000 0.63875  0.28679  0.95290  Biso   1.000  C
  C259     1.0000 0.61123  0.24485  0.90170  Biso   1.000  C
  H159     1.0000 0.60960  0.24490  0.83500  Biso   1.000  H
  C260     1.0000 0.58727  0.20453  0.95180  Biso   1.000  C
  H160     1.0000 0.57130  0.17970  0.90890  Biso   1.000  H
  Zn11     1.0000 0.92035  0.26060  0.37852  Biso   1.000  Zn
  O81      1.0000 0.87704  0.19826  0.42161  Biso   1.000  O
  O82      1.0000 0.98073  0.27804  0.42122  Biso   1.000  O
  O83      1.0000 0.89224  0.29555  0.42152  Biso   1.000  O
  O84      1.0000 0.72738  0.35212  0.57812  Biso   1.000  O
  O85      1.0000 0.91177  0.24703  0.24504  Biso   1.000  O
  O86      1.0000 0.95416  0.32148  0.23922  Biso   1.000  O
  O87      1.0000 0.69345  0.37078  0.74920  Biso   1.000  O
  O88      1.0000 0.64377  0.29694  0.74780  Biso   1.000  O
  C261     1.0000 0.75013  0.07820  0.41430  Biso   1.000  C
  C262     1.0000 0.71654  0.06304  0.34530  Biso   1.000  C
  H161     1.0000 0.69190  0.03260  0.34610  Biso   1.000  H
  C263     1.0000 0.71960  0.09313  0.27501  Biso   1.000  C
  H162     1.0000 0.69710  0.08320  0.22710  Biso   1.000  H
  C264     1.0000 0.75548  0.13762  0.27500  Biso   1.000  C
  H163     1.0000 0.75750  0.15790  0.22680  Biso   1.000  H
  C265     1.0000 0.78818  0.15261  0.34435  Biso   1.000  C
  H164     1.0000 0.81230  0.18330  0.34430  Biso   1.000  H
  C266     1.0000 0.78596  0.12285  0.41482  Biso   1.000  C
  C267     1.0000 0.81889  0.36590  0.58399  Biso   1.000  C
  C268     1.0000 0.81994  0.39693  0.64910  Biso   1.000  C
  H165     1.0000 0.79650  0.40450  0.64980  Biso   1.000  H
  C269     1.0000 0.85593  0.41696  0.71360  Biso   1.000  C
  H166     1.0000 0.85700  0.43810  0.75860  Biso   1.000  H
  C270     1.0000 0.89009  0.40574  0.71130  Biso   1.000  C
  H167     1.0000 0.91480  0.42000  0.75400  Biso   1.000  H
  C271     1.0000 0.88869  0.37427  0.64830  Biso   1.000  C
  H168     1.0000 0.91180  0.36630  0.64880  Biso   1.000  H
  C272     1.0000 0.85309  0.35417  0.58370  Biso   1.000  C
  C273     1.0000 0.92555  0.28247  0.09250  Biso   1.000  C
  C274     1.0000 0.88520  0.23873  0.04892  Biso   1.000  C
  C275     1.0000 0.84953  0.20327  0.09690  Biso   1.000  C
  H169     1.0000 0.84960  0.20310  0.16380  Biso   1.000  H
  C276     1.0000 0.81370  0.16798  0.04830  Biso   1.000  C
  H170     1.0000 0.79190  0.14620  0.09150  Biso   1.000  H
  C277     1.0000 0.92047  0.32084  0.04957  Biso   1.000  C
  C278     1.0000 0.91294  0.35191  0.09750  Biso   1.000  C
  H171     1.0000 0.91220  0.35150  0.16430  Biso   1.000  H
  C279     1.0000 0.90650  0.38334  0.04950  Biso   1.000  C
  H172     1.0000 0.90230  0.40270  0.09270  Biso   1.000  H
  C280     1.0000 0.96766  0.28487  0.04868  Biso   1.000  C
  C281     1.0000 0.00421  0.28703  0.09790  Biso   1.000  C
  H173     1.0000 0.00430  0.28690  0.16470  Biso   1.000  H
  C282     1.0000 0.04004  0.28933  0.04870  Biso   1.000  C
  H174     1.0000 0.06270  0.29080  0.09130  Biso   1.000  H
  C283     1.0000 0.93040  0.28433  0.20037  Biso   1.000  C
  C284     1.0000 0.71321  0.35196  0.95290  Biso   1.000  C
  C285     1.0000 0.75515  0.36638  0.90170  Biso   1.000  C
  H175     1.0000 0.75510  0.36470  0.83500  Biso   1.000  H
  C286     1.0000 0.79547  0.38274  0.95180  Biso   1.000  C
  H176     1.0000 0.82030  0.39160  0.90890  Biso   1.000  H
  Zn12     1.0000 0.73940  0.65974  0.37852  Biso   1.000  Zn
  O89      1.0000 0.80174  0.67878  0.42161  Biso   1.000  O
  O90      1.0000 0.72196  0.70269  0.42122  Biso   1.000  O
  O91      1.0000 0.70445  0.59669  0.42152  Biso   1.000  O
  O92      1.0000 0.64788  0.37526  0.57812  Biso   1.000  O
  O93      1.0000 0.75297  0.66474  0.24504  Biso   1.000  O
  O94      1.0000 0.67852  0.63268  0.23922  Biso   1.000  O
  O95      1.0000 0.62922  0.32267  0.74920  Biso   1.000  O
  O96      1.0000 0.70306  0.34683  0.74780  Biso   1.000  O
  C287     1.0000 0.92180  0.67193  0.41430  Biso   1.000  C
  C288     1.0000 0.93696  0.65350  0.34530  Biso   1.000  C
  H177     1.0000 0.96740  0.65930  0.34610  Biso   1.000  H
  C289     1.0000 0.90687  0.62647  0.27501  Biso   1.000  C
  H178     1.0000 0.91680  0.61390  0.22710  Biso   1.000  H
  C290     1.0000 0.86238  0.61786  0.27500  Biso   1.000  C
  H179     1.0000 0.84210  0.59960  0.22680  Biso   1.000  H
  C291     1.0000 0.84739  0.63557  0.34435  Biso   1.000  C
  H180     1.0000 0.81670  0.62900  0.34430  Biso   1.000  H
  C292     1.0000 0.87715  0.66311  0.41482  Biso   1.000  C
  C293     1.0000 0.63410  0.45299  0.58399  Biso   1.000  C
  C294     1.0000 0.60307  0.42301  0.64910  Biso   1.000  C
  H181     1.0000 0.59550  0.39200  0.64980  Biso   1.000  H
  C295     1.0000 0.58304  0.43897  0.71360  Biso   1.000  C
  H182     1.0000 0.56190  0.41890  0.75860  Biso   1.000  H
  C296     1.0000 0.59426  0.48435  0.71130  Biso   1.000  C
  H183     1.0000 0.58000  0.49480  0.75400  Biso   1.000  H
  C297     1.0000 0.62573  0.51442  0.64830  Biso   1.000  C
  H184     1.0000 0.63370  0.54550  0.64880  Biso   1.000  H
  C298     1.0000 0.64583  0.49892  0.58370  Biso   1.000  C
  C299     1.0000 0.71753  0.64308  0.09250  Biso   1.000  C
  C300     1.0000 0.76127  0.64647  0.04892  Biso   1.000  C
  C301     1.0000 0.79673  0.64626  0.09690  Biso   1.000  C
  H185     1.0000 0.79690  0.64650  0.16380  Biso   1.000  H
  C302     1.0000 0.83202  0.64572  0.04830  Biso   1.000  C
  H186     1.0000 0.85380  0.64570  0.09150  Biso   1.000  H
  C303     1.0000 0.67916  0.59963  0.04957  Biso   1.000  C
  C304     1.0000 0.64809  0.56103  0.09750  Biso   1.000  C
  H187     1.0000 0.64850  0.56070  0.16430  Biso   1.000  H
  C305     1.0000 0.61666  0.52316  0.04950  Biso   1.000  C
  H188     1.0000 0.59730  0.49960  0.09270  Biso   1.000  H
  C306     1.0000 0.71513  0.68279  0.04868  Biso   1.000  C
  C307     1.0000 0.71297  0.71718  0.09790  Biso   1.000  C
  H189     1.0000 0.71310  0.71740  0.16470  Biso   1.000  H
  C308     1.0000 0.71067  0.75071  0.04870  Biso   1.000  C
  H190     1.0000 0.70920  0.77190  0.09130  Biso   1.000  H
  C309     1.0000 0.71567  0.64607  0.20037  Biso   1.000  C
  C310     1.0000 0.64804  0.36125  0.95290  Biso   1.000  C
  C311     1.0000 0.63362  0.38877  0.90170  Biso   1.000  C
  H191     1.0000 0.63530  0.39040  0.83500  Biso   1.000  H
  C312     1.0000 0.61726  0.41273  0.95180  Biso   1.000  C
  H192     1.0000 0.60840  0.42870  0.90890  Biso   1.000  H
  Zn13     1.0000 0.66667  0.33333  0.36903  Biso   1.000  Zn
  C313     1.0000 0.66667  0.33333  0.11009  Biso   1.000  C
  C314     1.0000 0.66667  0.33333  0.21440  Biso   1.000  C
  Zn14     1.0000 0.33333  0.66667  0.36903  Biso   1.000  Zn
  C315     1.0000 0.33333  0.66667  0.11009  Biso   1.000  C
  C316     1.0000 0.33333  0.66667  0.21440  Biso   1.000  C
  Zn15     1.0000 0.33333  0.66667  0.63097  Biso   1.000  Zn
  C317     1.0000 0.33333  0.66667  0.88991  Biso   1.000  C
  C318     1.0000 0.33333  0.66667  0.78560  Biso   1.000  C
  Zn16     1.0000 0.66667  0.33333  0.63097  Biso   1.000  Zn
  C319     1.0000 0.66667  0.33333  0.88991  Biso   1.000  C
  C320     1.0000 0.66667  0.33333  0.78560  Biso   1.000  C
  C321     1.0000 0.31657  0.18215  0.50000  Biso   1.000  C
  C322     1.0000 0.26522  0.16630  0.50000  Biso   1.000  C
  C323     1.0000 0.22984  0.12235  0.50000  Biso   1.000  C
  H193     1.0000 0.23570  0.09780  0.50000  Biso   1.000  H
  C324     1.0000 0.18532  0.11378  0.50000  Biso   1.000  C
  H194     1.0000 0.16070  0.08330  0.50000  Biso   1.000  H
  C325     1.0000 0.17684  0.14918  0.50000  Biso   1.000  C
  H195     1.0000 0.14630  0.14320  0.50000  Biso   1.000  H
  C326     1.0000 0.21253  0.19383  0.50000  Biso   1.000  C
  H196     1.0000 0.20640  0.21820  0.50000  Biso   1.000  H
  C327     1.0000 0.25633  0.20269  0.50000  Biso   1.000  C
  C328     1.0000 0.29959  0.24935  0.50000  Biso   1.000  C
  C329     1.0000 0.32100  0.14028  0.50000  Biso   1.000  C
  C330     1.0000 0.28473  0.00002  0.50000  Biso   1.000  C
  C331     1.0000 0.47417  0.15051  0.50000  Biso   1.000  C
  C332     1.0000 0.48123  0.19875  0.50000  Biso   1.000  C
  C333     1.0000 0.44786  0.21026  0.50000  Biso   1.000  C
  H197     1.0000 0.41670  0.18730  0.50000  Biso   1.000  H
  C334     1.0000 0.46028  0.25658  0.50000  Biso   1.000  C
  H198     1.0000 0.43740  0.26490  0.50000  Biso   1.000  H
  C335     1.0000 0.50472  0.28913  0.50000  Biso   1.000  C
  H199     1.0000 0.51270  0.32020  0.50000  Biso   1.000  H
  C336     1.0000 0.53961  0.27790  0.50000  Biso   1.000  C
  H200     1.0000 0.57080  0.30100  0.50000  Biso   1.000  H
  C337     1.0000 0.52702  0.23229  0.50000  Biso   1.000  C
  C338     1.0000 0.55979  0.21387  0.50000  Biso   1.000  C
  C339     1.0000 0.42294  0.11804  0.50000  Biso   1.000  C
  C340     1.0000 0.60790  0.25566  0.50000  Biso   1.000  C
  C341     1.0000 0.81785  0.13442  0.50000  Biso   1.000  C
  C342     1.0000 0.83370  0.09892  0.50000  Biso   1.000  C
  C343     1.0000 0.87765  0.10749  0.50000  Biso   1.000  C
  H201     1.0000 0.90220  0.13790  0.50000  Biso   1.000  H
  C344     1.0000 0.88622  0.07154  0.50000  Biso   1.000  C
  H202     1.0000 0.91670  0.07740  0.50000  Biso   1.000  H
  C345     1.0000 0.85082  0.02766  0.50000  Biso   1.000  C
  H203     1.0000 0.85680  0.00310  0.50000  Biso   1.000  H
  C346     1.0000 0.80617  0.01870  0.50000  Biso   1.000  C
  H204     1.0000 0.78180  0.98820  0.50000  Biso   1.000  H
  C347     1.0000 0.79731  0.05364  0.50000  Biso   1.000  C
  C348     1.0000 0.75065  0.05024  0.50000  Biso   1.000  C
  C349     1.0000 0.85972  0.18072  0.50000  Biso   1.000  C
  C350     1.0000 0.99998  0.28471  0.50000  Biso   1.000  C
  C351     1.0000 0.84949  0.32366  0.50000  Biso   1.000  C
  C352     1.0000 0.80125  0.28248  0.50000  Biso   1.000  C
  C353     1.0000 0.78974  0.23760  0.50000  Biso   1.000  C
  H205     1.0000 0.81270  0.22940  0.50000  Biso   1.000  H
  C354     1.0000 0.74342  0.20370  0.50000  Biso   1.000  C
  H206     1.0000 0.73510  0.17250  0.50000  Biso   1.000  H
  C355     1.0000 0.71087  0.21559  0.50000  Biso   1.000  C
  H207     1.0000 0.67980  0.19250  0.50000  Biso   1.000  H
  C356     1.0000 0.72210  0.26171  0.50000  Biso   1.000  C
  H208     1.0000 0.69900  0.26980  0.50000  Biso   1.000  H
  C357     1.0000 0.76771  0.29473  0.50000  Biso   1.000  C
  C358     1.0000 0.78613  0.34592  0.50000  Biso   1.000  C
  C359     1.0000 0.88196  0.30490  0.50000  Biso   1.000  C
  C360     1.0000 0.74434  0.35224  0.50000  Biso   1.000  C
  C361     1.0000 0.86558  0.68343  0.50000  Biso   1.000  C
  C362     1.0000 0.90108  0.73478  0.50000  Biso   1.000  C
  C363     1.0000 0.89251  0.77016  0.50000  Biso   1.000  C
  H209     1.0000 0.86210  0.76430  0.50000  Biso   1.000  H
  C364     1.0000 0.92846  0.81468  0.50000  Biso   1.000  C
  H210     1.0000 0.92260  0.83930  0.50000  Biso   1.000  H
  C365     1.0000 0.97234  0.82316  0.50000  Biso   1.000  C
  H211     1.0000 0.99690  0.85370  0.50000  Biso   1.000  H
  C366     1.0000 0.98130  0.78747  0.50000  Biso   1.000  C
  H212     1.0000 0.01180  0.79360  0.50000  Biso   1.000  H
  C367     1.0000 0.94636  0.74367  0.50000  Biso   1.000  C
  C368     1.0000 0.94976  0.70041  0.50000  Biso   1.000  C
  C369     1.0000 0.81928  0.67900  0.50000  Biso   1.000  C
  C370     1.0000 0.71529  0.71527  0.50000  Biso   1.000  C
  C371     1.0000 0.67634  0.52583  0.50000  Biso   1.000  C
  C372     1.0000 0.71752  0.51877  0.50000  Biso   1.000  C
  C373     1.0000 0.76240  0.55214  0.50000  Biso   1.000  C
  H213     1.0000 0.77060  0.58330  0.50000  Biso   1.000  H
  C374     1.0000 0.79630  0.53972  0.50000  Biso   1.000  C
  H214     1.0000 0.82750  0.56260  0.50000  Biso   1.000  H
  C375     1.0000 0.78441  0.49528  0.50000  Biso   1.000  C
  H215     1.0000 0.80750  0.48730  0.50000  Biso   1.000  H
  C376     1.0000 0.73829  0.46039  0.50000  Biso   1.000  C
  H216     1.0000 0.73020  0.42920  0.50000  Biso   1.000  H
  C377     1.0000 0.70527  0.47298  0.50000  Biso   1.000  C
  C378     1.0000 0.65408  0.44021  0.50000  Biso   1.000  C
  C379     1.0000 0.69510  0.57706  0.50000  Biso   1.000  C
  C380     1.0000 0.64776  0.39210  0.50000  Biso   1.000  C
  C381     1.0000 0.68343  0.81785  0.50000  Biso   1.000  C
  C382     1.0000 0.73478  0.83370  0.50000  Biso   1.000  C
  C383     1.0000 0.77016  0.87765  0.50000  Biso   1.000  C
  H217     1.0000 0.76430  0.90220  0.50000  Biso   1.000  H
  C384     1.0000 0.81468  0.88622  0.50000  Biso   1.000  C
  H218     1.0000 0.83930  0.91670  0.50000  Biso   1.000  H
  C385     1.0000 0.82316  0.85082  0.50000  Biso   1.000  C
  H219     1.0000 0.85370  0.85680  0.50000  Biso   1.000  H
  C386     1.0000 0.78747  0.80617  0.50000  Biso   1.000  C
  H220     1.0000 0.79360  0.78180  0.50000  Biso   1.000  H
  C387     1.0000 0.74367  0.79731  0.50000  Biso   1.000  C
  C388     1.0000 0.70041  0.75065  0.50000  Biso   1.000  C
  C389     1.0000 0.67900  0.85972  0.50000  Biso   1.000  C
  C390     1.0000 0.71527  0.99998  0.50000  Biso   1.000  C
  C391     1.0000 0.52583  0.84949  0.50000  Biso   1.000  C
  C392     1.0000 0.51877  0.80125  0.50000  Biso   1.000  C
  C393     1.0000 0.55214  0.78974  0.50000  Biso   1.000  C
  H221     1.0000 0.58330  0.81270  0.50000  Biso   1.000  H
  C394     1.0000 0.53972  0.74342  0.50000  Biso   1.000  C
  H222     1.0000 0.56260  0.73510  0.50000  Biso   1.000  H
  C395     1.0000 0.49528  0.71087  0.50000  Biso   1.000  C
  H223     1.0000 0.48730  0.67980  0.50000  Biso   1.000  H
  C396     1.0000 0.46039  0.72210  0.50000  Biso   1.000  C
  H224     1.0000 0.42920  0.69900  0.50000  Biso   1.000  H
  C397     1.0000 0.47298  0.76771  0.50000  Biso   1.000  C
  C398     1.0000 0.44021  0.78613  0.50000  Biso   1.000  C
  C399     1.0000 0.57706  0.88196  0.50000  Biso   1.000  C
  C400     1.0000 0.39210  0.74434  0.50000  Biso   1.000  C
  C401     1.0000 0.18215  0.86558  0.50000  Biso   1.000  C
  C402     1.0000 0.16630  0.90108  0.50000  Biso   1.000  C
  C403     1.0000 0.12235  0.89251  0.50000  Biso   1.000  C
  H225     1.0000 0.09780  0.86210  0.50000  Biso   1.000  H
  C404     1.0000 0.11378  0.92846  0.50000  Biso   1.000  C
  H226     1.0000 0.08330  0.92260  0.50000  Biso   1.000  H
  C405     1.0000 0.14918  0.97234  0.50000  Biso   1.000  C
  H227     1.0000 0.14320  0.99690  0.50000  Biso   1.000  H
  C406     1.0000 0.19383  0.98130  0.50000  Biso   1.000  C
  H228     1.0000 0.21820  0.01180  0.50000  Biso   1.000  H
  C407     1.0000 0.20269  0.94636  0.50000  Biso   1.000  C
  C408     1.0000 0.24935  0.94976  0.50000  Biso   1.000  C
  C409     1.0000 0.14028  0.81928  0.50000  Biso   1.000  C
  C410     1.0000 0.00002  0.71529  0.50000  Biso   1.000  C
  C411     1.0000 0.15051  0.67634  0.50000  Biso   1.000  C
  C412     1.0000 0.19875  0.71752  0.50000  Biso   1.000  C
  C413     1.0000 0.21026  0.76240  0.50000  Biso   1.000  C
  H229     1.0000 0.18730  0.77060  0.50000  Biso   1.000  H
  C414     1.0000 0.25658  0.79630  0.50000  Biso   1.000  C
  H230     1.0000 0.26490  0.82750  0.50000  Biso   1.000  H
  C415     1.0000 0.28913  0.78441  0.50000  Biso   1.000  C
  H231     1.0000 0.32020  0.80750  0.50000  Biso   1.000  H
  C416     1.0000 0.27790  0.73829  0.50000  Biso   1.000  C
  H232     1.0000 0.30100  0.73020  0.50000  Biso   1.000  H
  C417     1.0000 0.23229  0.70527  0.50000  Biso   1.000  C
  C418     1.0000 0.21387  0.65408  0.50000  Biso   1.000  C
  C419     1.0000 0.11804  0.69510  0.50000  Biso   1.000  C
  C420     1.0000 0.25566  0.64776  0.50000  Biso   1.000  C
  C421     1.0000 0.13442  0.31657  0.50000  Biso   1.000  C
  C422     1.0000 0.09892  0.26522  0.50000  Biso   1.000  C
  C423     1.0000 0.10749  0.22984  0.50000  Biso   1.000  C
  H233     1.0000 0.13790  0.23570  0.50000  Biso   1.000  H
  C424     1.0000 0.07154  0.18532  0.50000  Biso   1.000  C
  H234     1.0000 0.07740  0.16070  0.50000  Biso   1.000  H
  C425     1.0000 0.02766  0.17684  0.50000  Biso   1.000  C
  H235     1.0000 0.00310  0.14630  0.50000  Biso   1.000  H
  C426     1.0000 0.01870  0.21253  0.50000  Biso   1.000  C
  H236     1.0000 0.98820  0.20640  0.50000  Biso   1.000  H
  C427     1.0000 0.05364  0.25633  0.50000  Biso   1.000  C
  C428     1.0000 0.05024  0.29959  0.50000  Biso   1.000  C
  C429     1.0000 0.18072  0.32100  0.50000  Biso   1.000  C
  C430     1.0000 0.28471  0.28473  0.50000  Biso   1.000  C
  C431     1.0000 0.32366  0.47417  0.50000  Biso   1.000  C
  C432     1.0000 0.28248  0.48123  0.50000  Biso   1.000  C
  C433     1.0000 0.23760  0.44786  0.50000  Biso   1.000  C
  H237     1.0000 0.22940  0.41670  0.50000  Biso   1.000  H
  C434     1.0000 0.20370  0.46028  0.50000  Biso   1.000  C
  H238     1.0000 0.17250  0.43740  0.50000  Biso   1.000  H
  C435     1.0000 0.21559  0.50472  0.50000  Biso   1.000  C
  H239     1.0000 0.19250  0.51270  0.50000  Biso   1.000  H
  C436     1.0000 0.26171  0.53961  0.50000  Biso   1.000  C
  H240     1.0000 0.26980  0.57080  0.50000  Biso   1.000  H
  C437     1.0000 0.29473  0.52702  0.50000  Biso   1.000  C
  C438     1.0000 0.34592  0.55979  0.50000  Biso   1.000  C
  C439     1.0000 0.30490  0.42294  0.50000  Biso   1.000  C
  C440     1.0000 0.35224  0.60790  0.50000  Biso   1.000  C
