data_image0
_cell_length_a       17.2209
_cell_length_b       17.2209
_cell_length_c       34.229
_cell_angle_alpha    90
_cell_angle_beta     90
_cell_angle_gamma    90

_symmetry_space_group_name_H-M    "P 1"
_symmetry_int_tables_number       1

loop_
  _symmetry_equiv_pos_as_xyz
  'x, y, z'

loop_
  _atom_site_label
  _atom_site_occupancy
  _atom_site_fract_x
  _atom_site_fract_y
  _atom_site_fract_z
  _atom_site_thermal_displace_type
  _atom_site_B_iso_or_equiv
  _atom_site_type_symbol
  C1       1.0000 0.28180  0.31260  0.39680  Biso   1.000  C
  H1       1.0000 0.30130  0.35560  0.41060  Biso   1.000  H
  C2       1.0000 0.31170  0.28480  0.35720  Biso   1.000  C
  H2       1.0000 0.35220  0.31010  0.34380  Biso   1.000  H
  O1       1.0000 0.42430  0.29940  0.67320  Biso   1.000  O
  O2       1.0000 0.42530  0.19960  0.71300  Biso   1.000  O
  C3       1.0000 0.45840  0.24990  0.69230  Biso   1.000  C
  C4       1.0000 0.54400  0.25620  0.69330  Biso   1.000  C
  C5       1.0000 0.58750  0.19170  0.70420  Biso   1.000  C
  H3       1.0000 0.56230  0.14600  0.71230  Biso   1.000  H
  C6       1.0000 0.66810  0.19490  0.70310  Biso   1.000  C
  H4       1.0000 0.69750  0.15130  0.71050  Biso   1.000  H
  C7       1.0000 0.70520  0.26250  0.69110  Biso   1.000  C
  C8       1.0000 0.66180  0.32690  0.68020  Biso   1.000  C
  C9       1.0000 0.58110  0.32380  0.68130  Biso   1.000  C
  H5       1.0000 0.55170  0.36740  0.67390  Biso   1.000  H
  P1       1.0000 0.70980  0.42310  0.66170  Biso   1.000  P
  C10      1.0000 0.73800  0.40200  0.61270  Biso   1.000  C
  C11      1.0000 0.79000  0.46000  0.55410  Biso   1.000  C
  C12      1.0000 0.78000  0.46000  0.59440  Biso   1.000  C
  C13      1.0000 0.75700  0.40000  0.53200  Biso   1.000  C
  C14      1.0000 0.71400  0.34200  0.55030  Biso   1.000  C
  C15      1.0000 0.70500  0.34300  0.59060  Biso   1.000  C
  C16      1.0000 0.62060  0.49940  0.66250  Biso   1.000  C
  C17      1.0000 0.54690  0.24330  0.69320  Biso   1.000  C
  C18      1.0000 0.58510  0.18850  0.71600  Biso   1.000  C
  H6       1.0000 0.55650  0.15520  0.73230  Biso   1.000  H
  C19      1.0000 0.66560  0.18300  0.71470  Biso   1.000  C
  H7       1.0000 0.69140  0.14600  0.73010  Biso   1.000  H
  C20      1.0000 0.70790  0.23220  0.69060  Biso   1.000  C
  C21      1.0000 0.66970  0.28700  0.66770  Biso   1.000  C
  H8       1.0000 0.69830  0.32030  0.65140  Biso   1.000  H
  C22      1.0000 0.58920  0.29250  0.66900  Biso   1.000  C
  H9       1.0000 0.56340  0.32950  0.65360  Biso   1.000  H
  C23      1.0000 0.24100  0.32200  0.52240  Biso   1.000  C
  H10      1.0000 0.23360  0.36880  0.53630  Biso   1.000  H
  C24      1.0000 0.24400  0.32200  0.48180  Biso   1.000  C
  H11      1.0000 0.24270  0.36890  0.46790  Biso   1.000  H
  H12      1.0000 0.68690  0.37260  0.67210  Biso   1.000  H
  H13      1.0000 0.66090  0.46260  0.66160  Biso   1.000  H
  H14      1.0000 0.67600  0.30360  0.60290  Biso   1.000  H
  H15      1.0000 0.69180  0.30210  0.53530  Biso   1.000  H
  H16      1.0000 0.76290  0.39990  0.50470  Biso   1.000  H
  H17      1.0000 0.81820  0.49900  0.54180  Biso   1.000  H
  H18      1.0000 0.80240  0.50050  0.60940  Biso   1.000  H
  H19      1.0000 0.62420  0.52500  0.71690  Biso   1.000  H
  H20      1.0000 0.58790  0.49310  0.60990  Biso   1.000  H
  C25      1.0000 0.59960  0.53690  0.69310  Biso   1.000  C
  C26      1.0000 0.57920  0.51940  0.63360  Biso   1.000  C
  O3       1.0000 0.30930  0.23970  0.60600  Biso   1.000  O
  C27      1.0000 0.36640  0.19270  0.63310  Biso   1.000  C
  C28      1.0000 0.21820  0.18740  0.39680  Biso   1.000  C
  H21      1.0000 0.19870  0.14440  0.41060  Biso   1.000  H
  C29      1.0000 0.18830  0.21520  0.35720  Biso   1.000  C
  H22      1.0000 0.14780  0.18990  0.34380  Biso   1.000  H
  O4       1.0000 0.07570  0.20060  0.67320  Biso   1.000  O
  O5       1.0000 0.07470  0.30040  0.71300  Biso   1.000  O
  C30      1.0000 0.04160  0.25010  0.69230  Biso   1.000  C
  C31      1.0000 0.95600  0.24380  0.69330  Biso   1.000  C
  C32      1.0000 0.91250  0.30830  0.70420  Biso   1.000  C
  H23      1.0000 0.93770  0.35400  0.71230  Biso   1.000  H
  C33      1.0000 0.83190  0.30510  0.70310  Biso   1.000  C
  H24      1.0000 0.80250  0.34870  0.71050  Biso   1.000  H
  C34      1.0000 0.79480  0.23750  0.69110  Biso   1.000  C
  C35      1.0000 0.83820  0.17310  0.68020  Biso   1.000  C
  C36      1.0000 0.91890  0.17620  0.68130  Biso   1.000  C
  H25      1.0000 0.94830  0.13260  0.67390  Biso   1.000  H
  P2       1.0000 0.79020  0.07690  0.66170  Biso   1.000  P
  C37      1.0000 0.76200  0.09800  0.61270  Biso   1.000  C
  C38      1.0000 0.71000  0.04000  0.55410  Biso   1.000  C
  C39      1.0000 0.72000  0.04000  0.59440  Biso   1.000  C
  C40      1.0000 0.74300  0.10000  0.53200  Biso   1.000  C
  C41      1.0000 0.78600  0.15800  0.55030  Biso   1.000  C
  C42      1.0000 0.79500  0.15700  0.59060  Biso   1.000  C
  C43      1.0000 0.87940  0.00060  0.66250  Biso   1.000  C
  C44      1.0000 0.95310  0.25670  0.69320  Biso   1.000  C
  C45      1.0000 0.91490  0.31150  0.71600  Biso   1.000  C
  H26      1.0000 0.94350  0.34480  0.73230  Biso   1.000  H
  C46      1.0000 0.83440  0.31700  0.71470  Biso   1.000  C
  H27      1.0000 0.80860  0.35400  0.73010  Biso   1.000  H
  C47      1.0000 0.79210  0.26780  0.69060  Biso   1.000  C
  C48      1.0000 0.83030  0.21300  0.66770  Biso   1.000  C
  H28      1.0000 0.80170  0.17970  0.65140  Biso   1.000  H
  C49      1.0000 0.91080  0.20750  0.66900  Biso   1.000  C
  H29      1.0000 0.93660  0.17050  0.65360  Biso   1.000  H
  C50      1.0000 0.25900  0.17800  0.52240  Biso   1.000  C
  H30      1.0000 0.26640  0.13120  0.53630  Biso   1.000  H
  C51      1.0000 0.25600  0.17800  0.48180  Biso   1.000  C
  H31      1.0000 0.25730  0.13110  0.46790  Biso   1.000  H
  H32      1.0000 0.81310  0.12740  0.67210  Biso   1.000  H
  H33      1.0000 0.83910  0.03740  0.66160  Biso   1.000  H
  H34      1.0000 0.82400  0.19640  0.60290  Biso   1.000  H
  H35      1.0000 0.80820  0.19790  0.53530  Biso   1.000  H
  H36      1.0000 0.73710  0.10010  0.50470  Biso   1.000  H
  H37      1.0000 0.68180  0.00100  0.54180  Biso   1.000  H
  H38      1.0000 0.69760  0.99950  0.60940  Biso   1.000  H
  H39      1.0000 0.87580  0.97500  0.71690  Biso   1.000  H
  H40      1.0000 0.91210  0.00690  0.60990  Biso   1.000  H
  C52      1.0000 0.90040  0.96310  0.69310  Biso   1.000  C
  C53      1.0000 0.92080  0.98060  0.63360  Biso   1.000  C
  O6       1.0000 0.19070  0.26030  0.60600  Biso   1.000  O
  C54      1.0000 0.13360  0.30730  0.63310  Biso   1.000  C
  C55      1.0000 0.18740  0.28180  0.89680  Biso   1.000  C
  H41      1.0000 0.14440  0.30130  0.91060  Biso   1.000  H
  C56      1.0000 0.21520  0.31170  0.85720  Biso   1.000  C
  H42      1.0000 0.18990  0.35220  0.84380  Biso   1.000  H
  O7       1.0000 0.20060  0.42430  0.17320  Biso   1.000  O
  O8       1.0000 0.30040  0.42530  0.21300  Biso   1.000  O
  C57      1.0000 0.25010  0.45840  0.19230  Biso   1.000  C
  C58      1.0000 0.24380  0.54400  0.19330  Biso   1.000  C
  C59      1.0000 0.30830  0.58750  0.20420  Biso   1.000  C
  H43      1.0000 0.35400  0.56230  0.21230  Biso   1.000  H
  C60      1.0000 0.30510  0.66810  0.20310  Biso   1.000  C
  H44      1.0000 0.34870  0.69750  0.21050  Biso   1.000  H
  C61      1.0000 0.23750  0.70520  0.19110  Biso   1.000  C
  C62      1.0000 0.17310  0.66180  0.18020  Biso   1.000  C
  C63      1.0000 0.17620  0.58110  0.18130  Biso   1.000  C
  H45      1.0000 0.13260  0.55170  0.17390  Biso   1.000  H
  P3       1.0000 0.07690  0.70980  0.16170  Biso   1.000  P
  C64      1.0000 0.09800  0.73800  0.11270  Biso   1.000  C
  C65      1.0000 0.04000  0.79000  0.05410  Biso   1.000  C
  C66      1.0000 0.04000  0.78000  0.09440  Biso   1.000  C
  C67      1.0000 0.10000  0.75700  0.03200  Biso   1.000  C
  C68      1.0000 0.15800  0.71400  0.05030  Biso   1.000  C
  C69      1.0000 0.15700  0.70500  0.09060  Biso   1.000  C
  C70      1.0000 0.00060  0.62060  0.16250  Biso   1.000  C
  C71      1.0000 0.25670  0.54690  0.19320  Biso   1.000  C
  C72      1.0000 0.31150  0.58510  0.21600  Biso   1.000  C
  H46      1.0000 0.34480  0.55650  0.23230  Biso   1.000  H
  C73      1.0000 0.31700  0.66560  0.21470  Biso   1.000  C
  H47      1.0000 0.35400  0.69140  0.23010  Biso   1.000  H
  C74      1.0000 0.26780  0.70790  0.19060  Biso   1.000  C
  C75      1.0000 0.21300  0.66970  0.16770  Biso   1.000  C
  H48      1.0000 0.17970  0.69830  0.15140  Biso   1.000  H
  C76      1.0000 0.20750  0.58920  0.16900  Biso   1.000  C
  H49      1.0000 0.17050  0.56340  0.15360  Biso   1.000  H
  C77      1.0000 0.17800  0.24100  0.02240  Biso   1.000  C
  H50      1.0000 0.13120  0.23360  0.03630  Biso   1.000  H
  C78      1.0000 0.17800  0.24400  0.98180  Biso   1.000  C
  H51      1.0000 0.13110  0.24270  0.96790  Biso   1.000  H
  H52      1.0000 0.12740  0.68690  0.17210  Biso   1.000  H
  H53      1.0000 0.03740  0.66090  0.16160  Biso   1.000  H
  H54      1.0000 0.19640  0.67600  0.10290  Biso   1.000  H
  H55      1.0000 0.19790  0.69180  0.03530  Biso   1.000  H
  H56      1.0000 0.10010  0.76290  0.00470  Biso   1.000  H
  H57      1.0000 0.00100  0.81820  0.04180  Biso   1.000  H
  H58      1.0000 0.99950  0.80240  0.10940  Biso   1.000  H
  H59      1.0000 0.97500  0.62420  0.21690  Biso   1.000  H
  H60      1.0000 0.00690  0.58790  0.10990  Biso   1.000  H
  C79      1.0000 0.96310  0.59960  0.19310  Biso   1.000  C
  C80      1.0000 0.98060  0.57920  0.13360  Biso   1.000  C
  O9       1.0000 0.26030  0.30930  0.10600  Biso   1.000  O
  C81      1.0000 0.30730  0.36640  0.13310  Biso   1.000  C
  C82      1.0000 0.31260  0.21820  0.89680  Biso   1.000  C
  H61      1.0000 0.35560  0.19870  0.91060  Biso   1.000  H
  C83      1.0000 0.28480  0.18830  0.85720  Biso   1.000  C
  H62      1.0000 0.31010  0.14780  0.84380  Biso   1.000  H
  O10      1.0000 0.29940  0.07570  0.17320  Biso   1.000  O
  O11      1.0000 0.19960  0.07470  0.21300  Biso   1.000  O
  C84      1.0000 0.24990  0.04160  0.19230  Biso   1.000  C
  C85      1.0000 0.25620  0.95600  0.19330  Biso   1.000  C
  C86      1.0000 0.19170  0.91250  0.20420  Biso   1.000  C
  H63      1.0000 0.14600  0.93770  0.21230  Biso   1.000  H
  C87      1.0000 0.19490  0.83190  0.20310  Biso   1.000  C
  H64      1.0000 0.15130  0.80250  0.21050  Biso   1.000  H
  C88      1.0000 0.26250  0.79480  0.19110  Biso   1.000  C
  C89      1.0000 0.32690  0.83820  0.18020  Biso   1.000  C
  C90      1.0000 0.32380  0.91890  0.18130  Biso   1.000  C
  H65      1.0000 0.36740  0.94830  0.17390  Biso   1.000  H
  P4       1.0000 0.42310  0.79020  0.16170  Biso   1.000  P
  C91      1.0000 0.40200  0.76200  0.11270  Biso   1.000  C
  C92      1.0000 0.46000  0.71000  0.05410  Biso   1.000  C
  C93      1.0000 0.46000  0.72000  0.09440  Biso   1.000  C
  C94      1.0000 0.40000  0.74300  0.03200  Biso   1.000  C
  C95      1.0000 0.34200  0.78600  0.05030  Biso   1.000  C
  C96      1.0000 0.34300  0.79500  0.09060  Biso   1.000  C
  C97      1.0000 0.49940  0.87940  0.16250  Biso   1.000  C
  C98      1.0000 0.24330  0.95310  0.19320  Biso   1.000  C
  C99      1.0000 0.18850  0.91490  0.21600  Biso   1.000  C
  H66      1.0000 0.15520  0.94350  0.23230  Biso   1.000  H
  C100     1.0000 0.18300  0.83440  0.21470  Biso   1.000  C
  H67      1.0000 0.14600  0.80860  0.23010  Biso   1.000  H
  C101     1.0000 0.23220  0.79210  0.19060  Biso   1.000  C
  C102     1.0000 0.28700  0.83030  0.16770  Biso   1.000  C
  H68      1.0000 0.32030  0.80170  0.15140  Biso   1.000  H
  C103     1.0000 0.29250  0.91080  0.16900  Biso   1.000  C
  H69      1.0000 0.32950  0.93660  0.15360  Biso   1.000  H
  C104     1.0000 0.32200  0.25900  0.02240  Biso   1.000  C
  H70      1.0000 0.36880  0.26640  0.03630  Biso   1.000  H
  C105     1.0000 0.32200  0.25600  0.98180  Biso   1.000  C
  H71      1.0000 0.36890  0.25730  0.96790  Biso   1.000  H
  H72      1.0000 0.37260  0.81310  0.17210  Biso   1.000  H
  H73      1.0000 0.46260  0.83910  0.16160  Biso   1.000  H
  H74      1.0000 0.30360  0.82400  0.10290  Biso   1.000  H
  H75      1.0000 0.30210  0.80820  0.03530  Biso   1.000  H
  H76      1.0000 0.39990  0.73710  0.00470  Biso   1.000  H
  H77      1.0000 0.49900  0.68180  0.04180  Biso   1.000  H
  H78      1.0000 0.50050  0.69760  0.10940  Biso   1.000  H
  H79      1.0000 0.52500  0.87580  0.21690  Biso   1.000  H
  H80      1.0000 0.49310  0.91210  0.10990  Biso   1.000  H
  C106     1.0000 0.53690  0.90040  0.19310  Biso   1.000  C
  C107     1.0000 0.51940  0.92080  0.13360  Biso   1.000  C
  O12      1.0000 0.23970  0.19070  0.10600  Biso   1.000  O
  C108     1.0000 0.19270  0.13360  0.13310  Biso   1.000  C
  C109     1.0000 0.28180  0.18740  0.89680  Biso   1.000  C
  H81      1.0000 0.30130  0.14440  0.91060  Biso   1.000  H
  C110     1.0000 0.31170  0.21520  0.85720  Biso   1.000  C
  H82      1.0000 0.35220  0.18990  0.84380  Biso   1.000  H
  O13      1.0000 0.42430  0.20060  0.17320  Biso   1.000  O
  O14      1.0000 0.42530  0.30040  0.21300  Biso   1.000  O
  C111     1.0000 0.45840  0.25010  0.19230  Biso   1.000  C
  C112     1.0000 0.54400  0.24380  0.19330  Biso   1.000  C
  C113     1.0000 0.58750  0.30830  0.20420  Biso   1.000  C
  H83      1.0000 0.56230  0.35400  0.21230  Biso   1.000  H
  C114     1.0000 0.66810  0.30510  0.20310  Biso   1.000  C
  H84      1.0000 0.69750  0.34870  0.21050  Biso   1.000  H
  C115     1.0000 0.70520  0.23750  0.19110  Biso   1.000  C
  C116     1.0000 0.66180  0.17310  0.18020  Biso   1.000  C
  C117     1.0000 0.58110  0.17620  0.18130  Biso   1.000  C
  H85      1.0000 0.55170  0.13260  0.17390  Biso   1.000  H
  P5       1.0000 0.70980  0.07690  0.16170  Biso   1.000  P
  C118     1.0000 0.73800  0.09800  0.11270  Biso   1.000  C
  C119     1.0000 0.79000  0.04000  0.05410  Biso   1.000  C
  C120     1.0000 0.78000  0.04000  0.09440  Biso   1.000  C
  C121     1.0000 0.75700  0.10000  0.03200  Biso   1.000  C
  C122     1.0000 0.71400  0.15800  0.05030  Biso   1.000  C
  C123     1.0000 0.70500  0.15700  0.09060  Biso   1.000  C
  C124     1.0000 0.62060  0.00060  0.16250  Biso   1.000  C
  C125     1.0000 0.54690  0.25670  0.19320  Biso   1.000  C
  C126     1.0000 0.58510  0.31150  0.21600  Biso   1.000  C
  H86      1.0000 0.55650  0.34480  0.23230  Biso   1.000  H
  C127     1.0000 0.66560  0.31700  0.21470  Biso   1.000  C
  H87      1.0000 0.69140  0.35400  0.23010  Biso   1.000  H
  C128     1.0000 0.70790  0.26780  0.19060  Biso   1.000  C
  C129     1.0000 0.66970  0.21300  0.16770  Biso   1.000  C
  H88      1.0000 0.69830  0.17970  0.15140  Biso   1.000  H
  C130     1.0000 0.58920  0.20750  0.16900  Biso   1.000  C
  H89      1.0000 0.56340  0.17050  0.15360  Biso   1.000  H
  C131     1.0000 0.24100  0.17800  0.02240  Biso   1.000  C
  H90      1.0000 0.23360  0.13120  0.03630  Biso   1.000  H
  C132     1.0000 0.24400  0.17800  0.98180  Biso   1.000  C
  H91      1.0000 0.24270  0.13110  0.96790  Biso   1.000  H
  H92      1.0000 0.68690  0.12740  0.17210  Biso   1.000  H
  H93      1.0000 0.66090  0.03740  0.16160  Biso   1.000  H
  H94      1.0000 0.67600  0.19640  0.10290  Biso   1.000  H
  H95      1.0000 0.69180  0.19790  0.03530  Biso   1.000  H
  H96      1.0000 0.76290  0.10010  0.00470  Biso   1.000  H
  H97      1.0000 0.81820  0.00100  0.04180  Biso   1.000  H
  H98      1.0000 0.80240  0.99950  0.10940  Biso   1.000  H
  H99      1.0000 0.62420  0.97500  0.21690  Biso   1.000  H
  H100     1.0000 0.58790  0.00690  0.10990  Biso   1.000  H
  C133     1.0000 0.59960  0.96310  0.19310  Biso   1.000  C
  C134     1.0000 0.57920  0.98060  0.13360  Biso   1.000  C
  O15      1.0000 0.30930  0.26030  0.10600  Biso   1.000  O
  C135     1.0000 0.36640  0.30730  0.13310  Biso   1.000  C
  C136     1.0000 0.21820  0.31260  0.89680  Biso   1.000  C
  H101     1.0000 0.19870  0.35560  0.91060  Biso   1.000  H
  C137     1.0000 0.18830  0.28480  0.85720  Biso   1.000  C
  H102     1.0000 0.14780  0.31010  0.84380  Biso   1.000  H
  O16      1.0000 0.07570  0.29940  0.17320  Biso   1.000  O
  O17      1.0000 0.07470  0.19960  0.21300  Biso   1.000  O
  C138     1.0000 0.04160  0.24990  0.19230  Biso   1.000  C
  C139     1.0000 0.95600  0.25620  0.19330  Biso   1.000  C
  C140     1.0000 0.91250  0.19170  0.20420  Biso   1.000  C
  H103     1.0000 0.93770  0.14600  0.21230  Biso   1.000  H
  C141     1.0000 0.83190  0.19490  0.20310  Biso   1.000  C
  H104     1.0000 0.80250  0.15130  0.21050  Biso   1.000  H
  C142     1.0000 0.79480  0.26250  0.19110  Biso   1.000  C
  C143     1.0000 0.83820  0.32690  0.18020  Biso   1.000  C
  C144     1.0000 0.91890  0.32380  0.18130  Biso   1.000  C
  H105     1.0000 0.94830  0.36740  0.17390  Biso   1.000  H
  P6       1.0000 0.79020  0.42310  0.16170  Biso   1.000  P
  C145     1.0000 0.76200  0.40200  0.11270  Biso   1.000  C
  C146     1.0000 0.71000  0.46000  0.05410  Biso   1.000  C
  C147     1.0000 0.72000  0.46000  0.09440  Biso   1.000  C
  C148     1.0000 0.74300  0.40000  0.03200  Biso   1.000  C
  C149     1.0000 0.78600  0.34200  0.05030  Biso   1.000  C
  C150     1.0000 0.79500  0.34300  0.09060  Biso   1.000  C
  C151     1.0000 0.87940  0.49940  0.16250  Biso   1.000  C
  C152     1.0000 0.95310  0.24330  0.19320  Biso   1.000  C
  C153     1.0000 0.91490  0.18850  0.21600  Biso   1.000  C
  H106     1.0000 0.94350  0.15520  0.23230  Biso   1.000  H
  C154     1.0000 0.83440  0.18300  0.21470  Biso   1.000  C
  H107     1.0000 0.80860  0.14600  0.23010  Biso   1.000  H
  C155     1.0000 0.79210  0.23220  0.19060  Biso   1.000  C
  C156     1.0000 0.83030  0.28700  0.16770  Biso   1.000  C
  H108     1.0000 0.80170  0.32030  0.15140  Biso   1.000  H
  C157     1.0000 0.91080  0.29250  0.16900  Biso   1.000  C
  H109     1.0000 0.93660  0.32950  0.15360  Biso   1.000  H
  C158     1.0000 0.25900  0.32200  0.02240  Biso   1.000  C
  H110     1.0000 0.26640  0.36880  0.03630  Biso   1.000  H
  C159     1.0000 0.25600  0.32200  0.98180  Biso   1.000  C
  H111     1.0000 0.25730  0.36890  0.96790  Biso   1.000  H
  H112     1.0000 0.81310  0.37260  0.17210  Biso   1.000  H
  H113     1.0000 0.83910  0.46260  0.16160  Biso   1.000  H
  H114     1.0000 0.82400  0.30360  0.10290  Biso   1.000  H
  H115     1.0000 0.80820  0.30210  0.03530  Biso   1.000  H
  H116     1.0000 0.73710  0.39990  0.00470  Biso   1.000  H
  H117     1.0000 0.68180  0.49900  0.04180  Biso   1.000  H
  H118     1.0000 0.69760  0.50050  0.10940  Biso   1.000  H
  H119     1.0000 0.87580  0.52500  0.21690  Biso   1.000  H
  H120     1.0000 0.91210  0.49310  0.10990  Biso   1.000  H
  C160     1.0000 0.90040  0.53690  0.19310  Biso   1.000  C
  C161     1.0000 0.92080  0.51940  0.13360  Biso   1.000  C
  O18      1.0000 0.19070  0.23970  0.10600  Biso   1.000  O
  C162     1.0000 0.13360  0.19270  0.13310  Biso   1.000  C
  C163     1.0000 0.18740  0.21820  0.39680  Biso   1.000  C
  H121     1.0000 0.14440  0.19870  0.41060  Biso   1.000  H
  C164     1.0000 0.21520  0.18830  0.35720  Biso   1.000  C
  H122     1.0000 0.18990  0.14780  0.34380  Biso   1.000  H
  O19      1.0000 0.20060  0.07570  0.67320  Biso   1.000  O
  O20      1.0000 0.30040  0.07470  0.71300  Biso   1.000  O
  C165     1.0000 0.25010  0.04160  0.69230  Biso   1.000  C
  C166     1.0000 0.24380  0.95600  0.69330  Biso   1.000  C
  C167     1.0000 0.30830  0.91250  0.70420  Biso   1.000  C
  H123     1.0000 0.35400  0.93770  0.71230  Biso   1.000  H
  C168     1.0000 0.30510  0.83190  0.70310  Biso   1.000  C
  H124     1.0000 0.34870  0.80250  0.71050  Biso   1.000  H
  C169     1.0000 0.23750  0.79480  0.69110  Biso   1.000  C
  C170     1.0000 0.17310  0.83820  0.68020  Biso   1.000  C
  C171     1.0000 0.17620  0.91890  0.68130  Biso   1.000  C
  H125     1.0000 0.13260  0.94830  0.67390  Biso   1.000  H
  P7       1.0000 0.07690  0.79020  0.66170  Biso   1.000  P
  C172     1.0000 0.09800  0.76200  0.61270  Biso   1.000  C
  C173     1.0000 0.04000  0.71000  0.55410  Biso   1.000  C
  C174     1.0000 0.04000  0.72000  0.59440  Biso   1.000  C
  C175     1.0000 0.10000  0.74300  0.53200  Biso   1.000  C
  C176     1.0000 0.15800  0.78600  0.55030  Biso   1.000  C
  C177     1.0000 0.15700  0.79500  0.59060  Biso   1.000  C
  C178     1.0000 0.00060  0.87940  0.66250  Biso   1.000  C
  C179     1.0000 0.25670  0.95310  0.69320  Biso   1.000  C
  C180     1.0000 0.31150  0.91490  0.71600  Biso   1.000  C
  H126     1.0000 0.34480  0.94350  0.73230  Biso   1.000  H
  C181     1.0000 0.31700  0.83440  0.71470  Biso   1.000  C
  H127     1.0000 0.35400  0.80860  0.73010  Biso   1.000  H
  C182     1.0000 0.26780  0.79210  0.69060  Biso   1.000  C
  C183     1.0000 0.21300  0.83030  0.66770  Biso   1.000  C
  H128     1.0000 0.17970  0.80170  0.65140  Biso   1.000  H
  C184     1.0000 0.20750  0.91080  0.66900  Biso   1.000  C
  H129     1.0000 0.17050  0.93660  0.65360  Biso   1.000  H
  C185     1.0000 0.17800  0.25900  0.52240  Biso   1.000  C
  H130     1.0000 0.13120  0.26640  0.53630  Biso   1.000  H
  C186     1.0000 0.17800  0.25600  0.48180  Biso   1.000  C
  H131     1.0000 0.13110  0.25730  0.46790  Biso   1.000  H
  H132     1.0000 0.12740  0.81310  0.67210  Biso   1.000  H
  H133     1.0000 0.03740  0.83910  0.66160  Biso   1.000  H
  H134     1.0000 0.19640  0.82400  0.60290  Biso   1.000  H
  H135     1.0000 0.19790  0.80820  0.53530  Biso   1.000  H
  H136     1.0000 0.10010  0.73710  0.50470  Biso   1.000  H
  H137     1.0000 0.00100  0.68180  0.54180  Biso   1.000  H
  H138     1.0000 0.99950  0.69760  0.60940  Biso   1.000  H
  H139     1.0000 0.97500  0.87580  0.71690  Biso   1.000  H
  H140     1.0000 0.00690  0.91210  0.60990  Biso   1.000  H
  C187     1.0000 0.96310  0.90040  0.69310  Biso   1.000  C
  C188     1.0000 0.98060  0.92080  0.63360  Biso   1.000  C
  O21      1.0000 0.26030  0.19070  0.60600  Biso   1.000  O
  C189     1.0000 0.30730  0.13360  0.63310  Biso   1.000  C
  C190     1.0000 0.31260  0.28180  0.39680  Biso   1.000  C
  H141     1.0000 0.35560  0.30130  0.41060  Biso   1.000  H
  C191     1.0000 0.28480  0.31170  0.35720  Biso   1.000  C
  H142     1.0000 0.31010  0.35220  0.34380  Biso   1.000  H
  O22      1.0000 0.29940  0.42430  0.67320  Biso   1.000  O
  O23      1.0000 0.19960  0.42530  0.71300  Biso   1.000  O
  C192     1.0000 0.24990  0.45840  0.69230  Biso   1.000  C
  C193     1.0000 0.25620  0.54400  0.69330  Biso   1.000  C
  C194     1.0000 0.19170  0.58750  0.70420  Biso   1.000  C
  H143     1.0000 0.14600  0.56230  0.71230  Biso   1.000  H
  C195     1.0000 0.19490  0.66810  0.70310  Biso   1.000  C
  H144     1.0000 0.15130  0.69750  0.71050  Biso   1.000  H
  C196     1.0000 0.26250  0.70520  0.69110  Biso   1.000  C
  C197     1.0000 0.32690  0.66180  0.68020  Biso   1.000  C
  C198     1.0000 0.32380  0.58110  0.68130  Biso   1.000  C
  H145     1.0000 0.36740  0.55170  0.67390  Biso   1.000  H
  P8       1.0000 0.42310  0.70980  0.66170  Biso   1.000  P
  C199     1.0000 0.40200  0.73800  0.61270  Biso   1.000  C
  C200     1.0000 0.46000  0.79000  0.55410  Biso   1.000  C
  C201     1.0000 0.46000  0.78000  0.59440  Biso   1.000  C
  C202     1.0000 0.40000  0.75700  0.53200  Biso   1.000  C
  C203     1.0000 0.34200  0.71400  0.55030  Biso   1.000  C
  C204     1.0000 0.34300  0.70500  0.59060  Biso   1.000  C
  C205     1.0000 0.49940  0.62060  0.66250  Biso   1.000  C
  C206     1.0000 0.24330  0.54690  0.69320  Biso   1.000  C
  C207     1.0000 0.18850  0.58510  0.71600  Biso   1.000  C
  H146     1.0000 0.15520  0.55650  0.73230  Biso   1.000  H
  C208     1.0000 0.18300  0.66560  0.71470  Biso   1.000  C
  H147     1.0000 0.14600  0.69140  0.73010  Biso   1.000  H
  C209     1.0000 0.23220  0.70790  0.69060  Biso   1.000  C
  C210     1.0000 0.28700  0.66970  0.66770  Biso   1.000  C
  H148     1.0000 0.32030  0.69830  0.65140  Biso   1.000  H
  C211     1.0000 0.29250  0.58920  0.66900  Biso   1.000  C
  H149     1.0000 0.32950  0.56340  0.65360  Biso   1.000  H
  C212     1.0000 0.32200  0.24100  0.52240  Biso   1.000  C
  H150     1.0000 0.36880  0.23360  0.53630  Biso   1.000  H
  C213     1.0000 0.32200  0.24400  0.48180  Biso   1.000  C
  H151     1.0000 0.36890  0.24270  0.46790  Biso   1.000  H
  H152     1.0000 0.37260  0.68690  0.67210  Biso   1.000  H
  H153     1.0000 0.46260  0.66090  0.66160  Biso   1.000  H
  H154     1.0000 0.30360  0.67600  0.60290  Biso   1.000  H
  H155     1.0000 0.30210  0.69180  0.53530  Biso   1.000  H
  H156     1.0000 0.39990  0.76290  0.50470  Biso   1.000  H
  H157     1.0000 0.49900  0.81820  0.54180  Biso   1.000  H
  H158     1.0000 0.50050  0.80240  0.60940  Biso   1.000  H
  H159     1.0000 0.52500  0.62420  0.71690  Biso   1.000  H
  H160     1.0000 0.49310  0.58790  0.60990  Biso   1.000  H
  C214     1.0000 0.53690  0.59960  0.69310  Biso   1.000  C
  C215     1.0000 0.51940  0.57920  0.63360  Biso   1.000  C
  O24      1.0000 0.23970  0.30930  0.60600  Biso   1.000  O
  C216     1.0000 0.19270  0.36640  0.63310  Biso   1.000  C
  Zn1      1.0000 0.31616  0.31616  0.65541  Biso   1.000  Zn
  O25      1.0000 0.29490  0.29490  0.27560  Biso   1.000  O
  O26      1.0000 0.30580  0.30580  0.60170  Biso   1.000  O
  C217     1.0000 0.29900  0.29900  0.52050  Biso   1.000  C
  H161     1.0000 0.33320  0.33320  0.53340  Biso   1.000  H
  C218     1.0000 0.29640  0.29640  0.48090  Biso   1.000  C
  H162     1.0000 0.32960  0.32960  0.46680  Biso   1.000  H
  Zn2      1.0000 0.18384  0.18384  0.65541  Biso   1.000  Zn
  O27      1.0000 0.20510  0.20510  0.27560  Biso   1.000  O
  O28      1.0000 0.19420  0.19420  0.60170  Biso   1.000  O
  C219     1.0000 0.20100  0.20100  0.52050  Biso   1.000  C
  H163     1.0000 0.16680  0.16680  0.53340  Biso   1.000  H
  C220     1.0000 0.20360  0.20360  0.48090  Biso   1.000  C
  H164     1.0000 0.17040  0.17040  0.46680  Biso   1.000  H
  Zn3      1.0000 0.18384  0.31616  0.15541  Biso   1.000  Zn
  O29      1.0000 0.20510  0.29490  0.77560  Biso   1.000  O
  O30      1.0000 0.19420  0.30580  0.10170  Biso   1.000  O
  C221     1.0000 0.20100  0.29900  0.02050  Biso   1.000  C
  H165     1.0000 0.16680  0.33320  0.03340  Biso   1.000  H
  C222     1.0000 0.20360  0.29640  0.98090  Biso   1.000  C
  H166     1.0000 0.17040  0.32960  0.96680  Biso   1.000  H
  Zn4      1.0000 0.31616  0.18384  0.15541  Biso   1.000  Zn
  O31      1.0000 0.29490  0.20510  0.77560  Biso   1.000  O
  O32      1.0000 0.30580  0.19420  0.10170  Biso   1.000  O
  C223     1.0000 0.29900  0.20100  0.02050  Biso   1.000  C
  H167     1.0000 0.33320  0.16680  0.03340  Biso   1.000  H
  C224     1.0000 0.29640  0.20360  0.98090  Biso   1.000  C
  H168     1.0000 0.32960  0.17040  0.96680  Biso   1.000  H
  Zn5      1.0000 0.18527  0.31473  0.72038  Biso   1.000  Zn
  C225     1.0000 0.31700  0.18300  0.65290  Biso   1.000  C
  Zn6      1.0000 0.31473  0.18527  0.72038  Biso   1.000  Zn
  C226     1.0000 0.18300  0.31700  0.65290  Biso   1.000  C
  Zn7      1.0000 0.18527  0.18527  0.22038  Biso   1.000  Zn
  C227     1.0000 0.31700  0.31700  0.15290  Biso   1.000  C
  Zn8      1.0000 0.31473  0.31473  0.22038  Biso   1.000  Zn
  C228     1.0000 0.18300  0.18300  0.15290  Biso   1.000  C
  C229     1.0000 0.25000  0.25000  0.58610  Biso   1.000  C
  C230     1.0000 0.25000  0.25000  0.54190  Biso   1.000  C
  C231     1.0000 0.25000  0.25000  0.46100  Biso   1.000  C
  C232     1.0000 0.25000  0.25000  0.41690  Biso   1.000  C
  C233     1.0000 0.25000  0.25000  0.33560  Biso   1.000  C
  C234     1.0000 0.25000  0.25000  0.29290  Biso   1.000  C
  O33      1.0000 0.25000  0.25000  0.68800  Biso   1.000  O
  C235     1.0000 0.25000  0.25000  0.08610  Biso   1.000  C
  C236     1.0000 0.25000  0.25000  0.04190  Biso   1.000  C
  C237     1.0000 0.25000  0.25000  0.96100  Biso   1.000  C
  C238     1.0000 0.25000  0.25000  0.91690  Biso   1.000  C
  C239     1.0000 0.25000  0.25000  0.83560  Biso   1.000  C
  C240     1.0000 0.25000  0.25000  0.79290  Biso   1.000  C
  O34      1.0000 0.25000  0.25000  0.18800  Biso   1.000  O
  C241     1.0000 0.71820  0.81260  0.10320  Biso   1.000  C
  H169     1.0000 0.69870  0.85560  0.08940  Biso   1.000  H
  C242     1.0000 0.68830  0.78480  0.14280  Biso   1.000  C
  H170     1.0000 0.64780  0.81010  0.15620  Biso   1.000  H
  O35      1.0000 0.57570  0.79940  0.82680  Biso   1.000  O
  O36      1.0000 0.57470  0.69960  0.78700  Biso   1.000  O
  C243     1.0000 0.54160  0.74990  0.80770  Biso   1.000  C
  C244     1.0000 0.45600  0.75620  0.80670  Biso   1.000  C
  C245     1.0000 0.41250  0.69170  0.79580  Biso   1.000  C
  H171     1.0000 0.43770  0.64600  0.78770  Biso   1.000  H
  C246     1.0000 0.33190  0.69490  0.79690  Biso   1.000  C
  H172     1.0000 0.30250  0.65130  0.78950  Biso   1.000  H
  C247     1.0000 0.29480  0.76250  0.80890  Biso   1.000  C
  C248     1.0000 0.33820  0.82690  0.81980  Biso   1.000  C
  C249     1.0000 0.41890  0.82380  0.81870  Biso   1.000  C
  H173     1.0000 0.44830  0.86740  0.82610  Biso   1.000  H
  P9       1.0000 0.29020  0.92310  0.83830  Biso   1.000  P
  C250     1.0000 0.26200  0.90200  0.88730  Biso   1.000  C
  C251     1.0000 0.21000  0.96000  0.94590  Biso   1.000  C
  C252     1.0000 0.22000  0.96000  0.90560  Biso   1.000  C
  C253     1.0000 0.24300  0.90000  0.96800  Biso   1.000  C
  C254     1.0000 0.28600  0.84200  0.94970  Biso   1.000  C
  C255     1.0000 0.29500  0.84300  0.90940  Biso   1.000  C
  C256     1.0000 0.37940  0.99940  0.83750  Biso   1.000  C
  C257     1.0000 0.45310  0.74330  0.80680  Biso   1.000  C
  C258     1.0000 0.41490  0.68850  0.78400  Biso   1.000  C
  H174     1.0000 0.44350  0.65520  0.76770  Biso   1.000  H
  C259     1.0000 0.33440  0.68300  0.78530  Biso   1.000  C
  H175     1.0000 0.30860  0.64600  0.76990  Biso   1.000  H
  C260     1.0000 0.29210  0.73220  0.80940  Biso   1.000  C
  C261     1.0000 0.33030  0.78700  0.83230  Biso   1.000  C
  H176     1.0000 0.30170  0.82030  0.84860  Biso   1.000  H
  C262     1.0000 0.41080  0.79250  0.83100  Biso   1.000  C
  H177     1.0000 0.43660  0.82950  0.84640  Biso   1.000  H
  C263     1.0000 0.75900  0.82200  0.97760  Biso   1.000  C
  H178     1.0000 0.76640  0.86880  0.96370  Biso   1.000  H
  C264     1.0000 0.75600  0.82200  0.01820  Biso   1.000  C
  H179     1.0000 0.75730  0.86890  0.03210  Biso   1.000  H
  H180     1.0000 0.31310  0.87260  0.82790  Biso   1.000  H
  H181     1.0000 0.33910  0.96260  0.83840  Biso   1.000  H
  H182     1.0000 0.32400  0.80360  0.89710  Biso   1.000  H
  H183     1.0000 0.30820  0.80210  0.96470  Biso   1.000  H
  H184     1.0000 0.23710  0.89990  0.99530  Biso   1.000  H
  H185     1.0000 0.18180  0.99900  0.95820  Biso   1.000  H
  H186     1.0000 0.19760  0.00050  0.89060  Biso   1.000  H
  H187     1.0000 0.37580  0.02500  0.78310  Biso   1.000  H
  H188     1.0000 0.41210  0.99310  0.89010  Biso   1.000  H
  C265     1.0000 0.40040  0.03690  0.80690  Biso   1.000  C
  C266     1.0000 0.42080  0.01940  0.86640  Biso   1.000  C
  O37      1.0000 0.69070  0.73970  0.89400  Biso   1.000  O
  C267     1.0000 0.63360  0.69270  0.86690  Biso   1.000  C
  C268     1.0000 0.78180  0.68740  0.10320  Biso   1.000  C
  H189     1.0000 0.80130  0.64440  0.08940  Biso   1.000  H
  C269     1.0000 0.81170  0.71520  0.14280  Biso   1.000  C
  H190     1.0000 0.85220  0.68990  0.15620  Biso   1.000  H
  O38      1.0000 0.92430  0.70060  0.82680  Biso   1.000  O
  O39      1.0000 0.92530  0.80040  0.78700  Biso   1.000  O
  C270     1.0000 0.95840  0.75010  0.80770  Biso   1.000  C
  C271     1.0000 0.04400  0.74380  0.80670  Biso   1.000  C
  C272     1.0000 0.08750  0.80830  0.79580  Biso   1.000  C
  H191     1.0000 0.06230  0.85400  0.78770  Biso   1.000  H
  C273     1.0000 0.16810  0.80510  0.79690  Biso   1.000  C
  H192     1.0000 0.19750  0.84870  0.78950  Biso   1.000  H
  C274     1.0000 0.20520  0.73750  0.80890  Biso   1.000  C
  C275     1.0000 0.16180  0.67310  0.81980  Biso   1.000  C
  C276     1.0000 0.08110  0.67620  0.81870  Biso   1.000  C
  H193     1.0000 0.05170  0.63260  0.82610  Biso   1.000  H
  P10      1.0000 0.20980  0.57690  0.83830  Biso   1.000  P
  C277     1.0000 0.23800  0.59800  0.88730  Biso   1.000  C
  C278     1.0000 0.29000  0.54000  0.94590  Biso   1.000  C
  C279     1.0000 0.28000  0.54000  0.90560  Biso   1.000  C
  C280     1.0000 0.25700  0.60000  0.96800  Biso   1.000  C
  C281     1.0000 0.21400  0.65800  0.94970  Biso   1.000  C
  C282     1.0000 0.20500  0.65700  0.90940  Biso   1.000  C
  C283     1.0000 0.12060  0.50060  0.83750  Biso   1.000  C
  C284     1.0000 0.04690  0.75670  0.80680  Biso   1.000  C
  C285     1.0000 0.08510  0.81150  0.78400  Biso   1.000  C
  H194     1.0000 0.05650  0.84480  0.76770  Biso   1.000  H
  C286     1.0000 0.16560  0.81700  0.78530  Biso   1.000  C
  H195     1.0000 0.19140  0.85400  0.76990  Biso   1.000  H
  C287     1.0000 0.20790  0.76780  0.80940  Biso   1.000  C
  C288     1.0000 0.16970  0.71300  0.83230  Biso   1.000  C
  H196     1.0000 0.19830  0.67970  0.84860  Biso   1.000  H
  C289     1.0000 0.08920  0.70750  0.83100  Biso   1.000  C
  H197     1.0000 0.06340  0.67050  0.84640  Biso   1.000  H
  C290     1.0000 0.74100  0.67800  0.97760  Biso   1.000  C
  H198     1.0000 0.73360  0.63120  0.96370  Biso   1.000  H
  C291     1.0000 0.74400  0.67800  0.01820  Biso   1.000  C
  H199     1.0000 0.74270  0.63110  0.03210  Biso   1.000  H
  H200     1.0000 0.18690  0.62740  0.82790  Biso   1.000  H
  H201     1.0000 0.16090  0.53740  0.83840  Biso   1.000  H
  H202     1.0000 0.17600  0.69640  0.89710  Biso   1.000  H
  H203     1.0000 0.19180  0.69790  0.96470  Biso   1.000  H
  H204     1.0000 0.26290  0.60010  0.99530  Biso   1.000  H
  H205     1.0000 0.31820  0.50100  0.95820  Biso   1.000  H
  H206     1.0000 0.30240  0.49950  0.89060  Biso   1.000  H
  H207     1.0000 0.12420  0.47500  0.78310  Biso   1.000  H
  H208     1.0000 0.08790  0.50690  0.89010  Biso   1.000  H
  C292     1.0000 0.09960  0.46310  0.80690  Biso   1.000  C
  C293     1.0000 0.07920  0.48060  0.86640  Biso   1.000  C
  O40      1.0000 0.80930  0.76030  0.89400  Biso   1.000  O
  C294     1.0000 0.86640  0.80730  0.86690  Biso   1.000  C
  C295     1.0000 0.81260  0.78180  0.60320  Biso   1.000  C
  H209     1.0000 0.85560  0.80130  0.58940  Biso   1.000  H
  C296     1.0000 0.78480  0.81170  0.64280  Biso   1.000  C
  H210     1.0000 0.81010  0.85220  0.65620  Biso   1.000  H
  O41      1.0000 0.79940  0.92430  0.32680  Biso   1.000  O
  O42      1.0000 0.69960  0.92530  0.28700  Biso   1.000  O
  C297     1.0000 0.74990  0.95840  0.30770  Biso   1.000  C
  C298     1.0000 0.75620  0.04400  0.30670  Biso   1.000  C
  C299     1.0000 0.69170  0.08750  0.29580  Biso   1.000  C
  H211     1.0000 0.64600  0.06230  0.28770  Biso   1.000  H
  C300     1.0000 0.69490  0.16810  0.29690  Biso   1.000  C
  H212     1.0000 0.65130  0.19750  0.28950  Biso   1.000  H
  C301     1.0000 0.76250  0.20520  0.30890  Biso   1.000  C
  C302     1.0000 0.82690  0.16180  0.31980  Biso   1.000  C
  C303     1.0000 0.82380  0.08110  0.31870  Biso   1.000  C
  H213     1.0000 0.86740  0.05170  0.32610  Biso   1.000  H
  P11      1.0000 0.92310  0.20980  0.33830  Biso   1.000  P
  C304     1.0000 0.90200  0.23800  0.38730  Biso   1.000  C
  C305     1.0000 0.96000  0.29000  0.44590  Biso   1.000  C
  C306     1.0000 0.96000  0.28000  0.40560  Biso   1.000  C
  C307     1.0000 0.90000  0.25700  0.46800  Biso   1.000  C
  C308     1.0000 0.84200  0.21400  0.44970  Biso   1.000  C
  C309     1.0000 0.84300  0.20500  0.40940  Biso   1.000  C
  C310     1.0000 0.99940  0.12060  0.33750  Biso   1.000  C
  C311     1.0000 0.74330  0.04690  0.30680  Biso   1.000  C
  C312     1.0000 0.68850  0.08510  0.28400  Biso   1.000  C
  H214     1.0000 0.65520  0.05650  0.26770  Biso   1.000  H
  C313     1.0000 0.68300  0.16560  0.28530  Biso   1.000  C
  H215     1.0000 0.64600  0.19140  0.26990  Biso   1.000  H
  C314     1.0000 0.73220  0.20790  0.30940  Biso   1.000  C
  C315     1.0000 0.78700  0.16970  0.33230  Biso   1.000  C
  H216     1.0000 0.82030  0.19830  0.34860  Biso   1.000  H
  C316     1.0000 0.79250  0.08920  0.33100  Biso   1.000  C
  H217     1.0000 0.82950  0.06340  0.34640  Biso   1.000  H
  C317     1.0000 0.82200  0.74100  0.47760  Biso   1.000  C
  H218     1.0000 0.86880  0.73360  0.46370  Biso   1.000  H
  C318     1.0000 0.82200  0.74400  0.51820  Biso   1.000  C
  H219     1.0000 0.86890  0.74270  0.53210  Biso   1.000  H
  H220     1.0000 0.87260  0.18690  0.32790  Biso   1.000  H
  H221     1.0000 0.96260  0.16090  0.33840  Biso   1.000  H
  H222     1.0000 0.80360  0.17600  0.39710  Biso   1.000  H
  H223     1.0000 0.80210  0.19180  0.46470  Biso   1.000  H
  H224     1.0000 0.89990  0.26290  0.49530  Biso   1.000  H
  H225     1.0000 0.99900  0.31820  0.45820  Biso   1.000  H
  H226     1.0000 0.00050  0.30240  0.39060  Biso   1.000  H
  H227     1.0000 0.02500  0.12420  0.28310  Biso   1.000  H
  H228     1.0000 0.99310  0.08790  0.39010  Biso   1.000  H
  C319     1.0000 0.03690  0.09960  0.30690  Biso   1.000  C
  C320     1.0000 0.01940  0.07920  0.36640  Biso   1.000  C
  O43      1.0000 0.73970  0.80930  0.39400  Biso   1.000  O
  C321     1.0000 0.69270  0.86640  0.36690  Biso   1.000  C
  C322     1.0000 0.68740  0.71820  0.60320  Biso   1.000  C
  H229     1.0000 0.64440  0.69870  0.58940  Biso   1.000  H
  C323     1.0000 0.71520  0.68830  0.64280  Biso   1.000  C
  H230     1.0000 0.68990  0.64780  0.65620  Biso   1.000  H
  O44      1.0000 0.70060  0.57570  0.32680  Biso   1.000  O
  O45      1.0000 0.80040  0.57470  0.28700  Biso   1.000  O
  C324     1.0000 0.75010  0.54160  0.30770  Biso   1.000  C
  C325     1.0000 0.74380  0.45600  0.30670  Biso   1.000  C
  C326     1.0000 0.80830  0.41250  0.29580  Biso   1.000  C
  H231     1.0000 0.85400  0.43770  0.28770  Biso   1.000  H
  C327     1.0000 0.80510  0.33190  0.29690  Biso   1.000  C
  H232     1.0000 0.84870  0.30250  0.28950  Biso   1.000  H
  C328     1.0000 0.73750  0.29480  0.30890  Biso   1.000  C
  C329     1.0000 0.67310  0.33820  0.31980  Biso   1.000  C
  C330     1.0000 0.67620  0.41890  0.31870  Biso   1.000  C
  H233     1.0000 0.63260  0.44830  0.32610  Biso   1.000  H
  P12      1.0000 0.57690  0.29020  0.33830  Biso   1.000  P
  C331     1.0000 0.59800  0.26200  0.38730  Biso   1.000  C
  C332     1.0000 0.54000  0.21000  0.44590  Biso   1.000  C
  C333     1.0000 0.54000  0.22000  0.40560  Biso   1.000  C
  C334     1.0000 0.60000  0.24300  0.46800  Biso   1.000  C
  C335     1.0000 0.65800  0.28600  0.44970  Biso   1.000  C
  C336     1.0000 0.65700  0.29500  0.40940  Biso   1.000  C
  C337     1.0000 0.50060  0.37940  0.33750  Biso   1.000  C
  C338     1.0000 0.75670  0.45310  0.30680  Biso   1.000  C
  C339     1.0000 0.81150  0.41490  0.28400  Biso   1.000  C
  H234     1.0000 0.84480  0.44350  0.26770  Biso   1.000  H
  C340     1.0000 0.81700  0.33440  0.28530  Biso   1.000  C
  H235     1.0000 0.85400  0.30860  0.26990  Biso   1.000  H
  C341     1.0000 0.76780  0.29210  0.30940  Biso   1.000  C
  C342     1.0000 0.71300  0.33030  0.33230  Biso   1.000  C
  H236     1.0000 0.67970  0.30170  0.34860  Biso   1.000  H
  C343     1.0000 0.70750  0.41080  0.33100  Biso   1.000  C
  H237     1.0000 0.67050  0.43660  0.34640  Biso   1.000  H
  C344     1.0000 0.67800  0.75900  0.47760  Biso   1.000  C
  H238     1.0000 0.63120  0.76640  0.46370  Biso   1.000  H
  C345     1.0000 0.67800  0.75600  0.51820  Biso   1.000  C
  H239     1.0000 0.63110  0.75730  0.53210  Biso   1.000  H
  H240     1.0000 0.62740  0.31310  0.32790  Biso   1.000  H
  H241     1.0000 0.53740  0.33910  0.33840  Biso   1.000  H
  H242     1.0000 0.69640  0.32400  0.39710  Biso   1.000  H
  H243     1.0000 0.69790  0.30820  0.46470  Biso   1.000  H
  H244     1.0000 0.60010  0.23710  0.49530  Biso   1.000  H
  H245     1.0000 0.50100  0.18180  0.45820  Biso   1.000  H
  H246     1.0000 0.49950  0.19760  0.39060  Biso   1.000  H
  H247     1.0000 0.47500  0.37580  0.28310  Biso   1.000  H
  H248     1.0000 0.50690  0.41210  0.39010  Biso   1.000  H
  C346     1.0000 0.46310  0.40040  0.30690  Biso   1.000  C
  C347     1.0000 0.48060  0.42080  0.36640  Biso   1.000  C
  O46      1.0000 0.76030  0.69070  0.39400  Biso   1.000  O
  C348     1.0000 0.80730  0.63360  0.36690  Biso   1.000  C
  C349     1.0000 0.71820  0.68740  0.60320  Biso   1.000  C
  H249     1.0000 0.69870  0.64440  0.58940  Biso   1.000  H
  C350     1.0000 0.68830  0.71520  0.64280  Biso   1.000  C
  H250     1.0000 0.64780  0.68990  0.65620  Biso   1.000  H
  O47      1.0000 0.57570  0.70060  0.32680  Biso   1.000  O
  O48      1.0000 0.57470  0.80040  0.28700  Biso   1.000  O
  C351     1.0000 0.54160  0.75010  0.30770  Biso   1.000  C
  C352     1.0000 0.45600  0.74380  0.30670  Biso   1.000  C
  C353     1.0000 0.41250  0.80830  0.29580  Biso   1.000  C
  H251     1.0000 0.43770  0.85400  0.28770  Biso   1.000  H
  C354     1.0000 0.33190  0.80510  0.29690  Biso   1.000  C
  H252     1.0000 0.30250  0.84870  0.28950  Biso   1.000  H
  C355     1.0000 0.29480  0.73750  0.30890  Biso   1.000  C
  C356     1.0000 0.33820  0.67310  0.31980  Biso   1.000  C
  C357     1.0000 0.41890  0.67620  0.31870  Biso   1.000  C
  H253     1.0000 0.44830  0.63260  0.32610  Biso   1.000  H
  P13      1.0000 0.29020  0.57690  0.33830  Biso   1.000  P
  C358     1.0000 0.26200  0.59800  0.38730  Biso   1.000  C
  C359     1.0000 0.21000  0.54000  0.44590  Biso   1.000  C
  C360     1.0000 0.22000  0.54000  0.40560  Biso   1.000  C
  C361     1.0000 0.24300  0.60000  0.46800  Biso   1.000  C
  C362     1.0000 0.28600  0.65800  0.44970  Biso   1.000  C
  C363     1.0000 0.29500  0.65700  0.40940  Biso   1.000  C
  C364     1.0000 0.37940  0.50060  0.33750  Biso   1.000  C
  C365     1.0000 0.45310  0.75670  0.30680  Biso   1.000  C
  C366     1.0000 0.41490  0.81150  0.28400  Biso   1.000  C
  H254     1.0000 0.44350  0.84480  0.26770  Biso   1.000  H
  C367     1.0000 0.33440  0.81700  0.28530  Biso   1.000  C
  H255     1.0000 0.30860  0.85400  0.26990  Biso   1.000  H
  C368     1.0000 0.29210  0.76780  0.30940  Biso   1.000  C
  C369     1.0000 0.33030  0.71300  0.33230  Biso   1.000  C
  H256     1.0000 0.30170  0.67970  0.34860  Biso   1.000  H
  C370     1.0000 0.41080  0.70750  0.33100  Biso   1.000  C
  H257     1.0000 0.43660  0.67050  0.34640  Biso   1.000  H
  C371     1.0000 0.75900  0.67800  0.47760  Biso   1.000  C
  H258     1.0000 0.76640  0.63120  0.46370  Biso   1.000  H
  C372     1.0000 0.75600  0.67800  0.51820  Biso   1.000  C
  H259     1.0000 0.75730  0.63110  0.53210  Biso   1.000  H
  H260     1.0000 0.31310  0.62740  0.32790  Biso   1.000  H
  H261     1.0000 0.33910  0.53740  0.33840  Biso   1.000  H
  H262     1.0000 0.32400  0.69640  0.39710  Biso   1.000  H
  H263     1.0000 0.30820  0.69790  0.46470  Biso   1.000  H
  H264     1.0000 0.23710  0.60010  0.49530  Biso   1.000  H
  H265     1.0000 0.18180  0.50100  0.45820  Biso   1.000  H
  H266     1.0000 0.19760  0.49950  0.39060  Biso   1.000  H
  H267     1.0000 0.37580  0.47500  0.28310  Biso   1.000  H
  H268     1.0000 0.41210  0.50690  0.39010  Biso   1.000  H
  C373     1.0000 0.40040  0.46310  0.30690  Biso   1.000  C
  C374     1.0000 0.42080  0.48060  0.36640  Biso   1.000  C
  O49      1.0000 0.69070  0.76030  0.39400  Biso   1.000  O
  C375     1.0000 0.63360  0.80730  0.36690  Biso   1.000  C
  C376     1.0000 0.78180  0.81260  0.60320  Biso   1.000  C
  H269     1.0000 0.80130  0.85560  0.58940  Biso   1.000  H
  C377     1.0000 0.81170  0.78480  0.64280  Biso   1.000  C
  H270     1.0000 0.85220  0.81010  0.65620  Biso   1.000  H
  O50      1.0000 0.92430  0.79940  0.32680  Biso   1.000  O
  O51      1.0000 0.92530  0.69960  0.28700  Biso   1.000  O
  C378     1.0000 0.95840  0.74990  0.30770  Biso   1.000  C
  C379     1.0000 0.04400  0.75620  0.30670  Biso   1.000  C
  C380     1.0000 0.08750  0.69170  0.29580  Biso   1.000  C
  H271     1.0000 0.06230  0.64600  0.28770  Biso   1.000  H
  C381     1.0000 0.16810  0.69490  0.29690  Biso   1.000  C
  H272     1.0000 0.19750  0.65130  0.28950  Biso   1.000  H
  C382     1.0000 0.20520  0.76250  0.30890  Biso   1.000  C
  C383     1.0000 0.16180  0.82690  0.31980  Biso   1.000  C
  C384     1.0000 0.08110  0.82380  0.31870  Biso   1.000  C
  H273     1.0000 0.05170  0.86740  0.32610  Biso   1.000  H
  P14      1.0000 0.20980  0.92310  0.33830  Biso   1.000  P
  C385     1.0000 0.23800  0.90200  0.38730  Biso   1.000  C
  C386     1.0000 0.29000  0.96000  0.44590  Biso   1.000  C
  C387     1.0000 0.28000  0.96000  0.40560  Biso   1.000  C
  C388     1.0000 0.25700  0.90000  0.46800  Biso   1.000  C
  C389     1.0000 0.21400  0.84200  0.44970  Biso   1.000  C
  C390     1.0000 0.20500  0.84300  0.40940  Biso   1.000  C
  C391     1.0000 0.12060  0.99940  0.33750  Biso   1.000  C
  C392     1.0000 0.04690  0.74330  0.30680  Biso   1.000  C
  C393     1.0000 0.08510  0.68850  0.28400  Biso   1.000  C
  H274     1.0000 0.05650  0.65520  0.26770  Biso   1.000  H
  C394     1.0000 0.16560  0.68300  0.28530  Biso   1.000  C
  H275     1.0000 0.19140  0.64600  0.26990  Biso   1.000  H
  C395     1.0000 0.20790  0.73220  0.30940  Biso   1.000  C
  C396     1.0000 0.16970  0.78700  0.33230  Biso   1.000  C
  H276     1.0000 0.19830  0.82030  0.34860  Biso   1.000  H
  C397     1.0000 0.08920  0.79250  0.33100  Biso   1.000  C
  H277     1.0000 0.06340  0.82950  0.34640  Biso   1.000  H
  C398     1.0000 0.74100  0.82200  0.47760  Biso   1.000  C
  H278     1.0000 0.73360  0.86880  0.46370  Biso   1.000  H
  C399     1.0000 0.74400  0.82200  0.51820  Biso   1.000  C
  H279     1.0000 0.74270  0.86890  0.53210  Biso   1.000  H
  H280     1.0000 0.18690  0.87260  0.32790  Biso   1.000  H
  H281     1.0000 0.16090  0.96260  0.33840  Biso   1.000  H
  H282     1.0000 0.17600  0.80360  0.39710  Biso   1.000  H
  H283     1.0000 0.19180  0.80210  0.46470  Biso   1.000  H
  H284     1.0000 0.26290  0.89990  0.49530  Biso   1.000  H
  H285     1.0000 0.31820  0.99900  0.45820  Biso   1.000  H
  H286     1.0000 0.30240  0.00050  0.39060  Biso   1.000  H
  H287     1.0000 0.12420  0.02500  0.28310  Biso   1.000  H
  H288     1.0000 0.08790  0.99310  0.39010  Biso   1.000  H
  C400     1.0000 0.09960  0.03690  0.30690  Biso   1.000  C
  C401     1.0000 0.07920  0.01940  0.36640  Biso   1.000  C
  O52      1.0000 0.80930  0.73970  0.39400  Biso   1.000  O
  C402     1.0000 0.86640  0.69270  0.36690  Biso   1.000  C
  C403     1.0000 0.81260  0.71820  0.10320  Biso   1.000  C
  H289     1.0000 0.85560  0.69870  0.08940  Biso   1.000  H
  C404     1.0000 0.78480  0.68830  0.14280  Biso   1.000  C
  H290     1.0000 0.81010  0.64780  0.15620  Biso   1.000  H
  O53      1.0000 0.79940  0.57570  0.82680  Biso   1.000  O
  O54      1.0000 0.69960  0.57470  0.78700  Biso   1.000  O
  C405     1.0000 0.74990  0.54160  0.80770  Biso   1.000  C
  C406     1.0000 0.75620  0.45600  0.80670  Biso   1.000  C
  C407     1.0000 0.69170  0.41250  0.79580  Biso   1.000  C
  H291     1.0000 0.64600  0.43770  0.78770  Biso   1.000  H
  C408     1.0000 0.69490  0.33190  0.79690  Biso   1.000  C
  H292     1.0000 0.65130  0.30250  0.78950  Biso   1.000  H
  C409     1.0000 0.76250  0.29480  0.80890  Biso   1.000  C
  C410     1.0000 0.82690  0.33820  0.81980  Biso   1.000  C
  C411     1.0000 0.82380  0.41890  0.81870  Biso   1.000  C
  H293     1.0000 0.86740  0.44830  0.82610  Biso   1.000  H
  P15      1.0000 0.92310  0.29020  0.83830  Biso   1.000  P
  C412     1.0000 0.90200  0.26200  0.88730  Biso   1.000  C
  C413     1.0000 0.96000  0.21000  0.94590  Biso   1.000  C
  C414     1.0000 0.96000  0.22000  0.90560  Biso   1.000  C
  C415     1.0000 0.90000  0.24300  0.96800  Biso   1.000  C
  C416     1.0000 0.84200  0.28600  0.94970  Biso   1.000  C
  C417     1.0000 0.84300  0.29500  0.90940  Biso   1.000  C
  C418     1.0000 0.99940  0.37940  0.83750  Biso   1.000  C
  C419     1.0000 0.74330  0.45310  0.80680  Biso   1.000  C
  C420     1.0000 0.68850  0.41490  0.78400  Biso   1.000  C
  H294     1.0000 0.65520  0.44350  0.76770  Biso   1.000  H
  C421     1.0000 0.68300  0.33440  0.78530  Biso   1.000  C
  H295     1.0000 0.64600  0.30860  0.76990  Biso   1.000  H
  C422     1.0000 0.73220  0.29210  0.80940  Biso   1.000  C
  C423     1.0000 0.78700  0.33030  0.83230  Biso   1.000  C
  H296     1.0000 0.82030  0.30170  0.84860  Biso   1.000  H
  C424     1.0000 0.79250  0.41080  0.83100  Biso   1.000  C
  H297     1.0000 0.82950  0.43660  0.84640  Biso   1.000  H
  C425     1.0000 0.82200  0.75900  0.97760  Biso   1.000  C
  H298     1.0000 0.86880  0.76640  0.96370  Biso   1.000  H
  C426     1.0000 0.82200  0.75600  0.01820  Biso   1.000  C
  H299     1.0000 0.86890  0.75730  0.03210  Biso   1.000  H
  H300     1.0000 0.87260  0.31310  0.82790  Biso   1.000  H
  H301     1.0000 0.96260  0.33910  0.83840  Biso   1.000  H
  H302     1.0000 0.80360  0.32400  0.89710  Biso   1.000  H
  H303     1.0000 0.80210  0.30820  0.96470  Biso   1.000  H
  H304     1.0000 0.89990  0.23710  0.99530  Biso   1.000  H
  H305     1.0000 0.99900  0.18180  0.95820  Biso   1.000  H
  H306     1.0000 0.00050  0.19760  0.89060  Biso   1.000  H
  H307     1.0000 0.02500  0.37580  0.78310  Biso   1.000  H
  H308     1.0000 0.99310  0.41210  0.89010  Biso   1.000  H
  C427     1.0000 0.03690  0.40040  0.80690  Biso   1.000  C
  C428     1.0000 0.01940  0.42080  0.86640  Biso   1.000  C
  O55      1.0000 0.73970  0.69070  0.89400  Biso   1.000  O
  C429     1.0000 0.69270  0.63360  0.86690  Biso   1.000  C
  C430     1.0000 0.68740  0.78180  0.10320  Biso   1.000  C
  H309     1.0000 0.64440  0.80130  0.08940  Biso   1.000  H
  C431     1.0000 0.71520  0.81170  0.14280  Biso   1.000  C
  H310     1.0000 0.68990  0.85220  0.15620  Biso   1.000  H
  O56      1.0000 0.70060  0.92430  0.82680  Biso   1.000  O
  O57      1.0000 0.80040  0.92530  0.78700  Biso   1.000  O
  C432     1.0000 0.75010  0.95840  0.80770  Biso   1.000  C
  C433     1.0000 0.74380  0.04400  0.80670  Biso   1.000  C
  C434     1.0000 0.80830  0.08750  0.79580  Biso   1.000  C
  H311     1.0000 0.85400  0.06230  0.78770  Biso   1.000  H
  C435     1.0000 0.80510  0.16810  0.79690  Biso   1.000  C
  H312     1.0000 0.84870  0.19750  0.78950  Biso   1.000  H
  C436     1.0000 0.73750  0.20520  0.80890  Biso   1.000  C
  C437     1.0000 0.67310  0.16180  0.81980  Biso   1.000  C
  C438     1.0000 0.67620  0.08110  0.81870  Biso   1.000  C
  H313     1.0000 0.63260  0.05170  0.82610  Biso   1.000  H
  P16      1.0000 0.57690  0.20980  0.83830  Biso   1.000  P
  C439     1.0000 0.59800  0.23800  0.88730  Biso   1.000  C
  C440     1.0000 0.54000  0.29000  0.94590  Biso   1.000  C
  C441     1.0000 0.54000  0.28000  0.90560  Biso   1.000  C
  C442     1.0000 0.60000  0.25700  0.96800  Biso   1.000  C
  C443     1.0000 0.65800  0.21400  0.94970  Biso   1.000  C
  C444     1.0000 0.65700  0.20500  0.90940  Biso   1.000  C
  C445     1.0000 0.50060  0.12060  0.83750  Biso   1.000  C
  C446     1.0000 0.75670  0.04690  0.80680  Biso   1.000  C
  C447     1.0000 0.81150  0.08510  0.78400  Biso   1.000  C
  H314     1.0000 0.84480  0.05650  0.76770  Biso   1.000  H
  C448     1.0000 0.81700  0.16560  0.78530  Biso   1.000  C
  H315     1.0000 0.85400  0.19140  0.76990  Biso   1.000  H
  C449     1.0000 0.76780  0.20790  0.80940  Biso   1.000  C
  C450     1.0000 0.71300  0.16970  0.83230  Biso   1.000  C
  H316     1.0000 0.67970  0.19830  0.84860  Biso   1.000  H
  C451     1.0000 0.70750  0.08920  0.83100  Biso   1.000  C
  H317     1.0000 0.67050  0.06340  0.84640  Biso   1.000  H
  C452     1.0000 0.67800  0.74100  0.97760  Biso   1.000  C
  H318     1.0000 0.63120  0.73360  0.96370  Biso   1.000  H
  C453     1.0000 0.67800  0.74400  0.01820  Biso   1.000  C
  H319     1.0000 0.63110  0.74270  0.03210  Biso   1.000  H
  H320     1.0000 0.62740  0.18690  0.82790  Biso   1.000  H
  H321     1.0000 0.53740  0.16090  0.83840  Biso   1.000  H
  H322     1.0000 0.69640  0.17600  0.89710  Biso   1.000  H
  H323     1.0000 0.69790  0.19180  0.96470  Biso   1.000  H
  H324     1.0000 0.60010  0.26290  0.99530  Biso   1.000  H
  H325     1.0000 0.50100  0.31820  0.95820  Biso   1.000  H
  H326     1.0000 0.49950  0.30240  0.89060  Biso   1.000  H
  H327     1.0000 0.47500  0.12420  0.78310  Biso   1.000  H
  H328     1.0000 0.50690  0.08790  0.89010  Biso   1.000  H
  C454     1.0000 0.46310  0.09960  0.80690  Biso   1.000  C
  C455     1.0000 0.48060  0.07920  0.86640  Biso   1.000  C
  O58      1.0000 0.76030  0.80930  0.89400  Biso   1.000  O
  C456     1.0000 0.80730  0.86640  0.86690  Biso   1.000  C
  Zn9      1.0000 0.68384  0.81616  0.84459  Biso   1.000  Zn
  O59      1.0000 0.70510  0.79490  0.22440  Biso   1.000  O
  O60      1.0000 0.69420  0.80580  0.89830  Biso   1.000  O
  C457     1.0000 0.70100  0.79900  0.97950  Biso   1.000  C
  H329     1.0000 0.66680  0.83320  0.96660  Biso   1.000  H
  C458     1.0000 0.70360  0.79640  0.01910  Biso   1.000  C
  H330     1.0000 0.67040  0.82960  0.03320  Biso   1.000  H
  Zn10     1.0000 0.81616  0.68384  0.84459  Biso   1.000  Zn
  O61      1.0000 0.79490  0.70510  0.22440  Biso   1.000  O
  O62      1.0000 0.80580  0.69420  0.89830  Biso   1.000  O
  C459     1.0000 0.79900  0.70100  0.97950  Biso   1.000  C
  H331     1.0000 0.83320  0.66680  0.96660  Biso   1.000  H
  C460     1.0000 0.79640  0.70360  0.01910  Biso   1.000  C
  H332     1.0000 0.82960  0.67040  0.03320  Biso   1.000  H
  Zn11     1.0000 0.81616  0.81616  0.34459  Biso   1.000  Zn
  O63      1.0000 0.79490  0.79490  0.72440  Biso   1.000  O
  O64      1.0000 0.80580  0.80580  0.39830  Biso   1.000  O
  C461     1.0000 0.79900  0.79900  0.47950  Biso   1.000  C
  H333     1.0000 0.83320  0.83320  0.46660  Biso   1.000  H
  C462     1.0000 0.79640  0.79640  0.51910  Biso   1.000  C
  H334     1.0000 0.82960  0.82960  0.53320  Biso   1.000  H
  Zn12     1.0000 0.68384  0.68384  0.34459  Biso   1.000  Zn
  O65      1.0000 0.70510  0.70510  0.72440  Biso   1.000  O
  O66      1.0000 0.69420  0.69420  0.39830  Biso   1.000  O
  C463     1.0000 0.70100  0.70100  0.47950  Biso   1.000  C
  H335     1.0000 0.66680  0.66680  0.46660  Biso   1.000  H
  C464     1.0000 0.70360  0.70360  0.51910  Biso   1.000  C
  H336     1.0000 0.67040  0.67040  0.53320  Biso   1.000  H
  Zn13     1.0000 0.81473  0.81473  0.77962  Biso   1.000  Zn
  C465     1.0000 0.68300  0.68300  0.84710  Biso   1.000  C
  Zn14     1.0000 0.68527  0.68527  0.77962  Biso   1.000  Zn
  C466     1.0000 0.81700  0.81700  0.84710  Biso   1.000  C
  Zn15     1.0000 0.81473  0.68527  0.27962  Biso   1.000  Zn
  C467     1.0000 0.68300  0.81700  0.34710  Biso   1.000  C
  Zn16     1.0000 0.68527  0.81473  0.27962  Biso   1.000  Zn
  C468     1.0000 0.81700  0.68300  0.34710  Biso   1.000  C
  C469     1.0000 0.75000  0.75000  0.91390  Biso   1.000  C
  C470     1.0000 0.75000  0.75000  0.95810  Biso   1.000  C
  C471     1.0000 0.75000  0.75000  0.03900  Biso   1.000  C
  C472     1.0000 0.75000  0.75000  0.08310  Biso   1.000  C
  C473     1.0000 0.75000  0.75000  0.16440  Biso   1.000  C
  C474     1.0000 0.75000  0.75000  0.20710  Biso   1.000  C
  O67      1.0000 0.75000  0.75000  0.81200  Biso   1.000  O
  C475     1.0000 0.75000  0.75000  0.41390  Biso   1.000  C
  C476     1.0000 0.75000  0.75000  0.45810  Biso   1.000  C
  C477     1.0000 0.75000  0.75000  0.53900  Biso   1.000  C
  C478     1.0000 0.75000  0.75000  0.58310  Biso   1.000  C
  C479     1.0000 0.75000  0.75000  0.66440  Biso   1.000  C
  C480     1.0000 0.75000  0.75000  0.70710  Biso   1.000  C
  O68      1.0000 0.75000  0.75000  0.31200  Biso   1.000  O
