data_image0
_cell_length_a       16.366
_cell_length_b       38.437
_cell_length_c       17.626
_cell_angle_alpha    90
_cell_angle_beta     90
_cell_angle_gamma    90

_symmetry_space_group_name_H-M    "P 1"
_symmetry_int_tables_number       1

loop_
  _symmetry_equiv_pos_as_xyz
  'x, y, z'

loop_
  _atom_site_label
  _atom_site_occupancy
  _atom_site_fract_x
  _atom_site_fract_y
  _atom_site_fract_z
  _atom_site_thermal_displace_type
  _atom_site_B_iso_or_equiv
  _atom_site_type_symbol
  Cu1      1.0000 0.00915  0.00315  0.19181  Biso   1.000  Cu
  O1       1.0000 0.94560  0.95020  0.24770  Biso   1.000  O
  O2       1.0000 0.19670  0.94141  0.47740  Biso   1.000  O
  O3       1.0000 0.09380  0.91007  0.43490  Biso   1.000  O
  N1       1.0000 0.08500  0.99346  0.27172  Biso   1.000  N
  N2       1.0000 0.17995  0.98995  0.36323  Biso   1.000  N
  N3       1.0000 0.18620  0.09216  0.19770  Biso   1.000  N
  C1       1.0000 0.15130  0.00851  0.30314  Biso   1.000  C
  C2       1.0000 0.07080  0.96418  0.31300  Biso   1.000  C
  C3       1.0000 0.12900  0.96199  0.36910  Biso   1.000  C
  C4       1.0000 0.15410  0.06202  0.22290  Biso   1.000  C
  H1       1.0000 0.10480  0.05480  0.20200  Biso   1.000  H
  C5       1.0000 0.18940  0.04108  0.27760  Biso   1.000  C
  C6       1.0000 0.26380  0.05215  0.30660  Biso   1.000  C
  H2       1.0000 0.29080  0.03890  0.34290  Biso   1.000  H
  C7       1.0000 0.29750  0.08285  0.28150  Biso   1.000  C
  H3       1.0000 0.34740  0.09030  0.30060  Biso   1.000  H
  C8       1.0000 0.25700  0.10241  0.22810  Biso   1.000  C
  H4       1.0000 0.27960  0.12340  0.21270  Biso   1.000  H
  C9       1.0000 0.00290  0.94062  0.29290  Biso   1.000  C
  C10      1.0000 0.14200  0.93658  0.43130  Biso   1.000  C
  H5       1.0000 0.97100  0.92690  0.39300  Biso   1.000  H
  O4       1.0000 0.98400  0.91690  0.34690  Biso   1.000  O
  O5       1.0000 0.97240  0.94520  0.23030  Biso   1.000  O
  O6       1.0000 0.99960  0.91030  0.32220  Biso   1.000  O
  Cu2      1.0000 0.00915  0.50315  0.69181  Biso   1.000  Cu
  O7       1.0000 0.94560  0.45020  0.74770  Biso   1.000  O
  O8       1.0000 0.19670  0.44141  0.97740  Biso   1.000  O
  O9       1.0000 0.09380  0.41007  0.93490  Biso   1.000  O
  N4       1.0000 0.08500  0.49346  0.77172  Biso   1.000  N
  N5       1.0000 0.17995  0.48995  0.86323  Biso   1.000  N
  N6       1.0000 0.18620  0.59216  0.69770  Biso   1.000  N
  C11      1.0000 0.15130  0.50851  0.80314  Biso   1.000  C
  C12      1.0000 0.07080  0.46418  0.81300  Biso   1.000  C
  C13      1.0000 0.12900  0.46199  0.86910  Biso   1.000  C
  C14      1.0000 0.15410  0.56202  0.72290  Biso   1.000  C
  H6       1.0000 0.10480  0.55480  0.70200  Biso   1.000  H
  C15      1.0000 0.18940  0.54108  0.77760  Biso   1.000  C
  C16      1.0000 0.26380  0.55215  0.80660  Biso   1.000  C
  H7       1.0000 0.29080  0.53890  0.84290  Biso   1.000  H
  C17      1.0000 0.29750  0.58285  0.78150  Biso   1.000  C
  H8       1.0000 0.34740  0.59030  0.80060  Biso   1.000  H
  C18      1.0000 0.25700  0.60241  0.72810  Biso   1.000  C
  H9       1.0000 0.27960  0.62340  0.71270  Biso   1.000  H
  C19      1.0000 0.00290  0.44062  0.79290  Biso   1.000  C
  C20      1.0000 0.14200  0.43658  0.93130  Biso   1.000  C
  H10      1.0000 0.97100  0.42690  0.89300  Biso   1.000  H
  O10      1.0000 0.98400  0.41690  0.84690  Biso   1.000  O
  O11      1.0000 0.97240  0.44520  0.73030  Biso   1.000  O
  O12      1.0000 0.99960  0.41030  0.82220  Biso   1.000  O
  Cu3      1.0000 0.50915  0.00315  0.69181  Biso   1.000  Cu
  O13      1.0000 0.44560  0.95020  0.74770  Biso   1.000  O
  O14      1.0000 0.69670  0.94141  0.97740  Biso   1.000  O
  O15      1.0000 0.59380  0.91007  0.93490  Biso   1.000  O
  N7       1.0000 0.58500  0.99346  0.77172  Biso   1.000  N
  N8       1.0000 0.67995  0.98995  0.86323  Biso   1.000  N
  N9       1.0000 0.68620  0.09216  0.69770  Biso   1.000  N
  C21      1.0000 0.65130  0.00851  0.80314  Biso   1.000  C
  C22      1.0000 0.57080  0.96418  0.81300  Biso   1.000  C
  C23      1.0000 0.62900  0.96199  0.86910  Biso   1.000  C
  C24      1.0000 0.65410  0.06202  0.72290  Biso   1.000  C
  H11      1.0000 0.60480  0.05480  0.70200  Biso   1.000  H
  C25      1.0000 0.68940  0.04108  0.77760  Biso   1.000  C
  C26      1.0000 0.76380  0.05215  0.80660  Biso   1.000  C
  H12      1.0000 0.79080  0.03890  0.84290  Biso   1.000  H
  C27      1.0000 0.79750  0.08285  0.78150  Biso   1.000  C
  H13      1.0000 0.84740  0.09030  0.80060  Biso   1.000  H
  C28      1.0000 0.75700  0.10241  0.72810  Biso   1.000  C
  H14      1.0000 0.77960  0.12340  0.71270  Biso   1.000  H
  C29      1.0000 0.50290  0.94062  0.79290  Biso   1.000  C
  C30      1.0000 0.64200  0.93658  0.93130  Biso   1.000  C
  H15      1.0000 0.47100  0.92690  0.89300  Biso   1.000  H
  O16      1.0000 0.48400  0.91690  0.84690  Biso   1.000  O
  O17      1.0000 0.47240  0.94520  0.73030  Biso   1.000  O
  O18      1.0000 0.49960  0.91030  0.82220  Biso   1.000  O
  Cu4      1.0000 0.50915  0.50315  0.19181  Biso   1.000  Cu
  O19      1.0000 0.44560  0.45020  0.24770  Biso   1.000  O
  O20      1.0000 0.69670  0.44141  0.47740  Biso   1.000  O
  O21      1.0000 0.59380  0.41007  0.43490  Biso   1.000  O
  N10      1.0000 0.58500  0.49346  0.27172  Biso   1.000  N
  N11      1.0000 0.67995  0.48995  0.36323  Biso   1.000  N
  N12      1.0000 0.68620  0.59216  0.19770  Biso   1.000  N
  C31      1.0000 0.65130  0.50851  0.30314  Biso   1.000  C
  C32      1.0000 0.57080  0.46418  0.31300  Biso   1.000  C
  C33      1.0000 0.62900  0.46199  0.36910  Biso   1.000  C
  C34      1.0000 0.65410  0.56202  0.22290  Biso   1.000  C
  H16      1.0000 0.60480  0.55480  0.20200  Biso   1.000  H
  C35      1.0000 0.68940  0.54108  0.27760  Biso   1.000  C
  C36      1.0000 0.76380  0.55215  0.30660  Biso   1.000  C
  H17      1.0000 0.79080  0.53890  0.34290  Biso   1.000  H
  C37      1.0000 0.79750  0.58285  0.28150  Biso   1.000  C
  H18      1.0000 0.84740  0.59030  0.30060  Biso   1.000  H
  C38      1.0000 0.75700  0.60241  0.22810  Biso   1.000  C
  H19      1.0000 0.77960  0.62340  0.21270  Biso   1.000  H
  C39      1.0000 0.50290  0.44062  0.29290  Biso   1.000  C
  C40      1.0000 0.64200  0.43658  0.43130  Biso   1.000  C
  H20      1.0000 0.47100  0.42690  0.39300  Biso   1.000  H
  O22      1.0000 0.48400  0.41690  0.34690  Biso   1.000  O
  O23      1.0000 0.47240  0.44520  0.23030  Biso   1.000  O
  O24      1.0000 0.49960  0.41030  0.32220  Biso   1.000  O
  Cu5      1.0000 0.74085  0.74685  0.19181  Biso   1.000  Cu
  O25      1.0000 0.80440  0.79980  0.24770  Biso   1.000  O
  O26      1.0000 0.55330  0.80859  0.47740  Biso   1.000  O
  O27      1.0000 0.65620  0.83993  0.43490  Biso   1.000  O
  N13      1.0000 0.66500  0.75654  0.27172  Biso   1.000  N
  N14      1.0000 0.57005  0.76005  0.36323  Biso   1.000  N
  N15      1.0000 0.56380  0.65784  0.19770  Biso   1.000  N
  C41      1.0000 0.59870  0.74149  0.30314  Biso   1.000  C
  C42      1.0000 0.67920  0.78582  0.31300  Biso   1.000  C
  C43      1.0000 0.62100  0.78801  0.36910  Biso   1.000  C
  C44      1.0000 0.59590  0.68798  0.22290  Biso   1.000  C
  H21      1.0000 0.64520  0.69520  0.20200  Biso   1.000  H
  C45      1.0000 0.56060  0.70892  0.27760  Biso   1.000  C
  C46      1.0000 0.48620  0.69785  0.30660  Biso   1.000  C
  H22      1.0000 0.45920  0.71110  0.34290  Biso   1.000  H
  C47      1.0000 0.45250  0.66715  0.28150  Biso   1.000  C
  H23      1.0000 0.40260  0.65970  0.30060  Biso   1.000  H
  C48      1.0000 0.49300  0.64759  0.22810  Biso   1.000  C
  H24      1.0000 0.47040  0.62660  0.21270  Biso   1.000  H
  C49      1.0000 0.74710  0.80938  0.29290  Biso   1.000  C
  C50      1.0000 0.60800  0.81342  0.43130  Biso   1.000  C
  H25      1.0000 0.77900  0.82310  0.39300  Biso   1.000  H
  O28      1.0000 0.76600  0.83310  0.34690  Biso   1.000  O
  O29      1.0000 0.77760  0.80480  0.23030  Biso   1.000  O
  O30      1.0000 0.75040  0.83970  0.32220  Biso   1.000  O
  Cu6      1.0000 0.74085  0.24685  0.69181  Biso   1.000  Cu
  O31      1.0000 0.80440  0.29980  0.74770  Biso   1.000  O
  O32      1.0000 0.55330  0.30859  0.97740  Biso   1.000  O
  O33      1.0000 0.65620  0.33993  0.93490  Biso   1.000  O
  N16      1.0000 0.66500  0.25654  0.77172  Biso   1.000  N
  N17      1.0000 0.57005  0.26005  0.86323  Biso   1.000  N
  N18      1.0000 0.56380  0.15784  0.69770  Biso   1.000  N
  C51      1.0000 0.59870  0.24149  0.80314  Biso   1.000  C
  C52      1.0000 0.67920  0.28582  0.81300  Biso   1.000  C
  C53      1.0000 0.62100  0.28801  0.86910  Biso   1.000  C
  C54      1.0000 0.59590  0.18798  0.72290  Biso   1.000  C
  H26      1.0000 0.64520  0.19520  0.70200  Biso   1.000  H
  C55      1.0000 0.56060  0.20892  0.77760  Biso   1.000  C
  C56      1.0000 0.48620  0.19785  0.80660  Biso   1.000  C
  H27      1.0000 0.45920  0.21110  0.84290  Biso   1.000  H
  C57      1.0000 0.45250  0.16715  0.78150  Biso   1.000  C
  H28      1.0000 0.40260  0.15970  0.80060  Biso   1.000  H
  C58      1.0000 0.49300  0.14759  0.72810  Biso   1.000  C
  H29      1.0000 0.47040  0.12660  0.71270  Biso   1.000  H
  C59      1.0000 0.74710  0.30938  0.79290  Biso   1.000  C
  C60      1.0000 0.60800  0.31342  0.93130  Biso   1.000  C
  H30      1.0000 0.77900  0.32310  0.89300  Biso   1.000  H
  O34      1.0000 0.76600  0.33310  0.84690  Biso   1.000  O
  O35      1.0000 0.77760  0.30480  0.73030  Biso   1.000  O
  O36      1.0000 0.75040  0.33970  0.82220  Biso   1.000  O
  Cu7      1.0000 0.24085  0.74685  0.69181  Biso   1.000  Cu
  O37      1.0000 0.30440  0.79980  0.74770  Biso   1.000  O
  O38      1.0000 0.05330  0.80859  0.97740  Biso   1.000  O
  O39      1.0000 0.15620  0.83993  0.93490  Biso   1.000  O
  N19      1.0000 0.16500  0.75654  0.77172  Biso   1.000  N
  N20      1.0000 0.07005  0.76005  0.86323  Biso   1.000  N
  N21      1.0000 0.06380  0.65784  0.69770  Biso   1.000  N
  C61      1.0000 0.09870  0.74149  0.80314  Biso   1.000  C
  C62      1.0000 0.17920  0.78582  0.81300  Biso   1.000  C
  C63      1.0000 0.12100  0.78801  0.86910  Biso   1.000  C
  C64      1.0000 0.09590  0.68798  0.72290  Biso   1.000  C
  H31      1.0000 0.14520  0.69520  0.70200  Biso   1.000  H
  C65      1.0000 0.06060  0.70892  0.77760  Biso   1.000  C
  C66      1.0000 0.98620  0.69785  0.80660  Biso   1.000  C
  H32      1.0000 0.95920  0.71110  0.84290  Biso   1.000  H
  C67      1.0000 0.95250  0.66715  0.78150  Biso   1.000  C
  H33      1.0000 0.90260  0.65970  0.80060  Biso   1.000  H
  C68      1.0000 0.99300  0.64759  0.72810  Biso   1.000  C
  H34      1.0000 0.97040  0.62660  0.71270  Biso   1.000  H
  C69      1.0000 0.24710  0.80938  0.79290  Biso   1.000  C
  C70      1.0000 0.10800  0.81342  0.93130  Biso   1.000  C
  H35      1.0000 0.27900  0.82310  0.89300  Biso   1.000  H
  O40      1.0000 0.26600  0.83310  0.84690  Biso   1.000  O
  O41      1.0000 0.27760  0.80480  0.73030  Biso   1.000  O
  O42      1.0000 0.25040  0.83970  0.82220  Biso   1.000  O
  Cu8      1.0000 0.24085  0.24685  0.19181  Biso   1.000  Cu
  O43      1.0000 0.30440  0.29980  0.24770  Biso   1.000  O
  O44      1.0000 0.05330  0.30859  0.47740  Biso   1.000  O
  O45      1.0000 0.15620  0.33993  0.43490  Biso   1.000  O
  N22      1.0000 0.16500  0.25654  0.27172  Biso   1.000  N
  N23      1.0000 0.07005  0.26005  0.36323  Biso   1.000  N
  N24      1.0000 0.06380  0.15784  0.19770  Biso   1.000  N
  C71      1.0000 0.09870  0.24149  0.30314  Biso   1.000  C
  C72      1.0000 0.17920  0.28582  0.31300  Biso   1.000  C
  C73      1.0000 0.12100  0.28801  0.36910  Biso   1.000  C
  C74      1.0000 0.09590  0.18798  0.22290  Biso   1.000  C
  H36      1.0000 0.14520  0.19520  0.20200  Biso   1.000  H
  C75      1.0000 0.06060  0.20892  0.27760  Biso   1.000  C
  C76      1.0000 0.98620  0.19785  0.30660  Biso   1.000  C
  H37      1.0000 0.95920  0.21110  0.34290  Biso   1.000  H
  C77      1.0000 0.95250  0.16715  0.28150  Biso   1.000  C
  H38      1.0000 0.90260  0.15970  0.30060  Biso   1.000  H
  C78      1.0000 0.99300  0.14759  0.22810  Biso   1.000  C
  H39      1.0000 0.97040  0.12660  0.21270  Biso   1.000  H
  C79      1.0000 0.24710  0.30938  0.29290  Biso   1.000  C
  C80      1.0000 0.10800  0.31342  0.43130  Biso   1.000  C
  H40      1.0000 0.27900  0.32310  0.39300  Biso   1.000  H
  O46      1.0000 0.26600  0.33310  0.34690  Biso   1.000  O
  O47      1.0000 0.27760  0.30480  0.23030  Biso   1.000  O
  O48      1.0000 0.25040  0.33970  0.32220  Biso   1.000  O
  Cu9      1.0000 0.74085  0.00315  0.55819  Biso   1.000  Cu
  O49      1.0000 0.80440  0.95020  0.50230  Biso   1.000  O
  O50      1.0000 0.55330  0.94141  0.27260  Biso   1.000  O
  O51      1.0000 0.65620  0.91007  0.31510  Biso   1.000  O
  N25      1.0000 0.66500  0.99346  0.47828  Biso   1.000  N
  N26      1.0000 0.57005  0.98995  0.38677  Biso   1.000  N
  N27      1.0000 0.56380  0.09216  0.55230  Biso   1.000  N
  C81      1.0000 0.59870  0.00851  0.44686  Biso   1.000  C
  C82      1.0000 0.67920  0.96418  0.43700  Biso   1.000  C
  C83      1.0000 0.62100  0.96199  0.38090  Biso   1.000  C
  C84      1.0000 0.59590  0.06202  0.52710  Biso   1.000  C
  H41      1.0000 0.64520  0.05480  0.54800  Biso   1.000  H
  C85      1.0000 0.56060  0.04108  0.47240  Biso   1.000  C
  C86      1.0000 0.48620  0.05215  0.44340  Biso   1.000  C
  H42      1.0000 0.45920  0.03890  0.40710  Biso   1.000  H
  C87      1.0000 0.45250  0.08285  0.46850  Biso   1.000  C
  H43      1.0000 0.40260  0.09030  0.44940  Biso   1.000  H
  C88      1.0000 0.49300  0.10241  0.52190  Biso   1.000  C
  H44      1.0000 0.47040  0.12340  0.53730  Biso   1.000  H
  C89      1.0000 0.74710  0.94062  0.45710  Biso   1.000  C
  C90      1.0000 0.60800  0.93658  0.31870  Biso   1.000  C
  H45      1.0000 0.77900  0.92690  0.35700  Biso   1.000  H
  O52      1.0000 0.76600  0.91690  0.40310  Biso   1.000  O
  O53      1.0000 0.77760  0.94520  0.51970  Biso   1.000  O
  O54      1.0000 0.75040  0.91030  0.42780  Biso   1.000  O
  Cu10     1.0000 0.74085  0.50315  0.05819  Biso   1.000  Cu
  O55      1.0000 0.80440  0.45020  0.00230  Biso   1.000  O
  O56      1.0000 0.55330  0.44141  0.77260  Biso   1.000  O
  O57      1.0000 0.65620  0.41007  0.81510  Biso   1.000  O
  N28      1.0000 0.66500  0.49346  0.97828  Biso   1.000  N
  N29      1.0000 0.57005  0.48995  0.88677  Biso   1.000  N
  N30      1.0000 0.56380  0.59216  0.05230  Biso   1.000  N
  C91      1.0000 0.59870  0.50851  0.94686  Biso   1.000  C
  C92      1.0000 0.67920  0.46418  0.93700  Biso   1.000  C
  C93      1.0000 0.62100  0.46199  0.88090  Biso   1.000  C
  C94      1.0000 0.59590  0.56202  0.02710  Biso   1.000  C
  H46      1.0000 0.64520  0.55480  0.04800  Biso   1.000  H
  C95      1.0000 0.56060  0.54108  0.97240  Biso   1.000  C
  C96      1.0000 0.48620  0.55215  0.94340  Biso   1.000  C
  H47      1.0000 0.45920  0.53890  0.90710  Biso   1.000  H
  C97      1.0000 0.45250  0.58285  0.96850  Biso   1.000  C
  H48      1.0000 0.40260  0.59030  0.94940  Biso   1.000  H
  C98      1.0000 0.49300  0.60241  0.02190  Biso   1.000  C
  H49      1.0000 0.47040  0.62340  0.03730  Biso   1.000  H
  C99      1.0000 0.74710  0.44062  0.95710  Biso   1.000  C
  C100     1.0000 0.60800  0.43658  0.81870  Biso   1.000  C
  H50      1.0000 0.77900  0.42690  0.85700  Biso   1.000  H
  O58      1.0000 0.76600  0.41690  0.90310  Biso   1.000  O
  O59      1.0000 0.77760  0.44520  0.01970  Biso   1.000  O
  O60      1.0000 0.75040  0.41030  0.92780  Biso   1.000  O
  Cu11     1.0000 0.24085  0.00315  0.05819  Biso   1.000  Cu
  O61      1.0000 0.30440  0.95020  0.00230  Biso   1.000  O
  O62      1.0000 0.05330  0.94141  0.77260  Biso   1.000  O
  O63      1.0000 0.15620  0.91007  0.81510  Biso   1.000  O
  N31      1.0000 0.16500  0.99346  0.97828  Biso   1.000  N
  N32      1.0000 0.07005  0.98995  0.88677  Biso   1.000  N
  N33      1.0000 0.06380  0.09216  0.05230  Biso   1.000  N
  C101     1.0000 0.09870  0.00851  0.94686  Biso   1.000  C
  C102     1.0000 0.17920  0.96418  0.93700  Biso   1.000  C
  C103     1.0000 0.12100  0.96199  0.88090  Biso   1.000  C
  C104     1.0000 0.09590  0.06202  0.02710  Biso   1.000  C
  H51      1.0000 0.14520  0.05480  0.04800  Biso   1.000  H
  C105     1.0000 0.06060  0.04108  0.97240  Biso   1.000  C
  C106     1.0000 0.98620  0.05215  0.94340  Biso   1.000  C
  H52      1.0000 0.95920  0.03890  0.90710  Biso   1.000  H
  C107     1.0000 0.95250  0.08285  0.96850  Biso   1.000  C
  H53      1.0000 0.90260  0.09030  0.94940  Biso   1.000  H
  C108     1.0000 0.99300  0.10241  0.02190  Biso   1.000  C
  H54      1.0000 0.97040  0.12340  0.03730  Biso   1.000  H
  C109     1.0000 0.24710  0.94062  0.95710  Biso   1.000  C
  C110     1.0000 0.10800  0.93658  0.81870  Biso   1.000  C
  H55      1.0000 0.27900  0.92690  0.85700  Biso   1.000  H
  O64      1.0000 0.26600  0.91690  0.90310  Biso   1.000  O
  O65      1.0000 0.27760  0.94520  0.01970  Biso   1.000  O
  O66      1.0000 0.25040  0.91030  0.92780  Biso   1.000  O
  Cu12     1.0000 0.24085  0.50315  0.55819  Biso   1.000  Cu
  O67      1.0000 0.30440  0.45020  0.50230  Biso   1.000  O
  O68      1.0000 0.05330  0.44141  0.27260  Biso   1.000  O
  O69      1.0000 0.15620  0.41007  0.31510  Biso   1.000  O
  N34      1.0000 0.16500  0.49346  0.47828  Biso   1.000  N
  N35      1.0000 0.07005  0.48995  0.38677  Biso   1.000  N
  N36      1.0000 0.06380  0.59216  0.55230  Biso   1.000  N
  C111     1.0000 0.09870  0.50851  0.44686  Biso   1.000  C
  C112     1.0000 0.17920  0.46418  0.43700  Biso   1.000  C
  C113     1.0000 0.12100  0.46199  0.38090  Biso   1.000  C
  C114     1.0000 0.09590  0.56202  0.52710  Biso   1.000  C
  H56      1.0000 0.14520  0.55480  0.54800  Biso   1.000  H
  C115     1.0000 0.06060  0.54108  0.47240  Biso   1.000  C
  C116     1.0000 0.98620  0.55215  0.44340  Biso   1.000  C
  H57      1.0000 0.95920  0.53890  0.40710  Biso   1.000  H
  C117     1.0000 0.95250  0.58285  0.46850  Biso   1.000  C
  H58      1.0000 0.90260  0.59030  0.44940  Biso   1.000  H
  C118     1.0000 0.99300  0.60241  0.52190  Biso   1.000  C
  H59      1.0000 0.97040  0.62340  0.53730  Biso   1.000  H
  C119     1.0000 0.24710  0.44062  0.45710  Biso   1.000  C
  C120     1.0000 0.10800  0.43658  0.31870  Biso   1.000  C
  H60      1.0000 0.27900  0.42690  0.35700  Biso   1.000  H
  O70      1.0000 0.26600  0.41690  0.40310  Biso   1.000  O
  O71      1.0000 0.27760  0.44520  0.51970  Biso   1.000  O
  O72      1.0000 0.25040  0.41030  0.42780  Biso   1.000  O
  Cu13     1.0000 0.00915  0.74685  0.55819  Biso   1.000  Cu
  O73      1.0000 0.94560  0.79980  0.50230  Biso   1.000  O
  O74      1.0000 0.19670  0.80859  0.27260  Biso   1.000  O
  O75      1.0000 0.09380  0.83993  0.31510  Biso   1.000  O
  N37      1.0000 0.08500  0.75654  0.47828  Biso   1.000  N
  N38      1.0000 0.17995  0.76005  0.38677  Biso   1.000  N
  N39      1.0000 0.18620  0.65784  0.55230  Biso   1.000  N
  C121     1.0000 0.15130  0.74149  0.44686  Biso   1.000  C
  C122     1.0000 0.07080  0.78582  0.43700  Biso   1.000  C
  C123     1.0000 0.12900  0.78801  0.38090  Biso   1.000  C
  C124     1.0000 0.15410  0.68798  0.52710  Biso   1.000  C
  H61      1.0000 0.10480  0.69520  0.54800  Biso   1.000  H
  C125     1.0000 0.18940  0.70892  0.47240  Biso   1.000  C
  C126     1.0000 0.26380  0.69785  0.44340  Biso   1.000  C
  H62      1.0000 0.29080  0.71110  0.40710  Biso   1.000  H
  C127     1.0000 0.29750  0.66715  0.46850  Biso   1.000  C
  H63      1.0000 0.34740  0.65970  0.44940  Biso   1.000  H
  C128     1.0000 0.25700  0.64759  0.52190  Biso   1.000  C
  H64      1.0000 0.27960  0.62660  0.53730  Biso   1.000  H
  C129     1.0000 0.00290  0.80938  0.45710  Biso   1.000  C
  C130     1.0000 0.14200  0.81342  0.31870  Biso   1.000  C
  H65      1.0000 0.97100  0.82310  0.35700  Biso   1.000  H
  O76      1.0000 0.98400  0.83310  0.40310  Biso   1.000  O
  O77      1.0000 0.97240  0.80480  0.51970  Biso   1.000  O
  O78      1.0000 0.99960  0.83970  0.42780  Biso   1.000  O
  Cu14     1.0000 0.00915  0.24685  0.05819  Biso   1.000  Cu
  O79      1.0000 0.94560  0.29980  0.00230  Biso   1.000  O
  O80      1.0000 0.19670  0.30859  0.77260  Biso   1.000  O
  O81      1.0000 0.09380  0.33993  0.81510  Biso   1.000  O
  N40      1.0000 0.08500  0.25654  0.97828  Biso   1.000  N
  N41      1.0000 0.17995  0.26005  0.88677  Biso   1.000  N
  N42      1.0000 0.18620  0.15784  0.05230  Biso   1.000  N
  C131     1.0000 0.15130  0.24149  0.94686  Biso   1.000  C
  C132     1.0000 0.07080  0.28582  0.93700  Biso   1.000  C
  C133     1.0000 0.12900  0.28801  0.88090  Biso   1.000  C
  C134     1.0000 0.15410  0.18798  0.02710  Biso   1.000  C
  H66      1.0000 0.10480  0.19520  0.04800  Biso   1.000  H
  C135     1.0000 0.18940  0.20892  0.97240  Biso   1.000  C
  C136     1.0000 0.26380  0.19785  0.94340  Biso   1.000  C
  H67      1.0000 0.29080  0.21110  0.90710  Biso   1.000  H
  C137     1.0000 0.29750  0.16715  0.96850  Biso   1.000  C
  H68      1.0000 0.34740  0.15970  0.94940  Biso   1.000  H
  C138     1.0000 0.25700  0.14759  0.02190  Biso   1.000  C
  H69      1.0000 0.27960  0.12660  0.03730  Biso   1.000  H
  C139     1.0000 0.00290  0.30938  0.95710  Biso   1.000  C
  C140     1.0000 0.14200  0.31342  0.81870  Biso   1.000  C
  H70      1.0000 0.97100  0.32310  0.85700  Biso   1.000  H
  O82      1.0000 0.98400  0.33310  0.90310  Biso   1.000  O
  O83      1.0000 0.97240  0.30480  0.01970  Biso   1.000  O
  O84      1.0000 0.99960  0.33970  0.92780  Biso   1.000  O
  Cu15     1.0000 0.50915  0.74685  0.05819  Biso   1.000  Cu
  O85      1.0000 0.44560  0.79980  0.00230  Biso   1.000  O
  O86      1.0000 0.69670  0.80859  0.77260  Biso   1.000  O
  O87      1.0000 0.59380  0.83993  0.81510  Biso   1.000  O
  N43      1.0000 0.58500  0.75654  0.97828  Biso   1.000  N
  N44      1.0000 0.67995  0.76005  0.88677  Biso   1.000  N
  N45      1.0000 0.68620  0.65784  0.05230  Biso   1.000  N
  C141     1.0000 0.65130  0.74149  0.94686  Biso   1.000  C
  C142     1.0000 0.57080  0.78582  0.93700  Biso   1.000  C
  C143     1.0000 0.62900  0.78801  0.88090  Biso   1.000  C
  C144     1.0000 0.65410  0.68798  0.02710  Biso   1.000  C
  H71      1.0000 0.60480  0.69520  0.04800  Biso   1.000  H
  C145     1.0000 0.68940  0.70892  0.97240  Biso   1.000  C
  C146     1.0000 0.76380  0.69785  0.94340  Biso   1.000  C
  H72      1.0000 0.79080  0.71110  0.90710  Biso   1.000  H
  C147     1.0000 0.79750  0.66715  0.96850  Biso   1.000  C
  H73      1.0000 0.84740  0.65970  0.94940  Biso   1.000  H
  C148     1.0000 0.75700  0.64759  0.02190  Biso   1.000  C
  H74      1.0000 0.77960  0.62660  0.03730  Biso   1.000  H
  C149     1.0000 0.50290  0.80938  0.95710  Biso   1.000  C
  C150     1.0000 0.64200  0.81342  0.81870  Biso   1.000  C
  H75      1.0000 0.47100  0.82310  0.85700  Biso   1.000  H
  O88      1.0000 0.48400  0.83310  0.90310  Biso   1.000  O
  O89      1.0000 0.47240  0.80480  0.01970  Biso   1.000  O
  O90      1.0000 0.49960  0.83970  0.92780  Biso   1.000  O
  Cu16     1.0000 0.50915  0.24685  0.55819  Biso   1.000  Cu
  O91      1.0000 0.44560  0.29980  0.50230  Biso   1.000  O
  O92      1.0000 0.69670  0.30859  0.27260  Biso   1.000  O
  O93      1.0000 0.59380  0.33993  0.31510  Biso   1.000  O
  N46      1.0000 0.58500  0.25654  0.47828  Biso   1.000  N
  N47      1.0000 0.67995  0.26005  0.38677  Biso   1.000  N
  N48      1.0000 0.68620  0.15784  0.55230  Biso   1.000  N
  C151     1.0000 0.65130  0.24149  0.44686  Biso   1.000  C
  C152     1.0000 0.57080  0.28582  0.43700  Biso   1.000  C
  C153     1.0000 0.62900  0.28801  0.38090  Biso   1.000  C
  C154     1.0000 0.65410  0.18798  0.52710  Biso   1.000  C
  H76      1.0000 0.60480  0.19520  0.54800  Biso   1.000  H
  C155     1.0000 0.68940  0.20892  0.47240  Biso   1.000  C
  C156     1.0000 0.76380  0.19785  0.44340  Biso   1.000  C
  H77      1.0000 0.79080  0.21110  0.40710  Biso   1.000  H
  C157     1.0000 0.79750  0.16715  0.46850  Biso   1.000  C
  H78      1.0000 0.84740  0.15970  0.44940  Biso   1.000  H
  C158     1.0000 0.75700  0.14759  0.52190  Biso   1.000  C
  H79      1.0000 0.77960  0.12660  0.53730  Biso   1.000  H
  C159     1.0000 0.50290  0.30938  0.45710  Biso   1.000  C
  C160     1.0000 0.64200  0.31342  0.31870  Biso   1.000  C
  H80      1.0000 0.47100  0.32310  0.35700  Biso   1.000  H
  O94      1.0000 0.48400  0.33310  0.40310  Biso   1.000  O
  O95      1.0000 0.47240  0.30480  0.51970  Biso   1.000  O
  O96      1.0000 0.49960  0.33970  0.42780  Biso   1.000  O
  Cu17     1.0000 0.99085  0.99685  0.80819  Biso   1.000  Cu
  O97      1.0000 0.05440  0.04980  0.75230  Biso   1.000  O
  O98      1.0000 0.80330  0.05859  0.52260  Biso   1.000  O
  O99      1.0000 0.90620  0.08993  0.56510  Biso   1.000  O
  N49      1.0000 0.91500  0.00654  0.72828  Biso   1.000  N
  N50      1.0000 0.82005  0.01005  0.63677  Biso   1.000  N
  N51      1.0000 0.81380  0.90784  0.80230  Biso   1.000  N
  C161     1.0000 0.84870  0.99149  0.69686  Biso   1.000  C
  C162     1.0000 0.92920  0.03582  0.68700  Biso   1.000  C
  C163     1.0000 0.87100  0.03801  0.63090  Biso   1.000  C
  C164     1.0000 0.84590  0.93798  0.77710  Biso   1.000  C
  H81      1.0000 0.89520  0.94520  0.79800  Biso   1.000  H
  C165     1.0000 0.81060  0.95892  0.72240  Biso   1.000  C
  C166     1.0000 0.73620  0.94785  0.69340  Biso   1.000  C
  H82      1.0000 0.70920  0.96110  0.65710  Biso   1.000  H
  C167     1.0000 0.70250  0.91715  0.71850  Biso   1.000  C
  H83      1.0000 0.65260  0.90970  0.69940  Biso   1.000  H
  C168     1.0000 0.74300  0.89759  0.77190  Biso   1.000  C
  H84      1.0000 0.72040  0.87660  0.78730  Biso   1.000  H
  C169     1.0000 0.99710  0.05938  0.70710  Biso   1.000  C
  C170     1.0000 0.85800  0.06342  0.56870  Biso   1.000  C
  H85      1.0000 0.02900  0.07310  0.60700  Biso   1.000  H
  O100     1.0000 0.01600  0.08310  0.65310  Biso   1.000  O
  O101     1.0000 0.02760  0.05480  0.76970  Biso   1.000  O
  O102     1.0000 0.00040  0.08970  0.67780  Biso   1.000  O
  Cu18     1.0000 0.99085  0.49685  0.30819  Biso   1.000  Cu
  O103     1.0000 0.05440  0.54980  0.25230  Biso   1.000  O
  O104     1.0000 0.80330  0.55859  0.02260  Biso   1.000  O
  O105     1.0000 0.90620  0.58993  0.06510  Biso   1.000  O
  N52      1.0000 0.91500  0.50654  0.22828  Biso   1.000  N
  N53      1.0000 0.82005  0.51005  0.13677  Biso   1.000  N
  N54      1.0000 0.81380  0.40784  0.30230  Biso   1.000  N
  C171     1.0000 0.84870  0.49149  0.19686  Biso   1.000  C
  C172     1.0000 0.92920  0.53582  0.18700  Biso   1.000  C
  C173     1.0000 0.87100  0.53801  0.13090  Biso   1.000  C
  C174     1.0000 0.84590  0.43798  0.27710  Biso   1.000  C
  H86      1.0000 0.89520  0.44520  0.29800  Biso   1.000  H
  C175     1.0000 0.81060  0.45892  0.22240  Biso   1.000  C
  C176     1.0000 0.73620  0.44785  0.19340  Biso   1.000  C
  H87      1.0000 0.70920  0.46110  0.15710  Biso   1.000  H
  C177     1.0000 0.70250  0.41715  0.21850  Biso   1.000  C
  H88      1.0000 0.65260  0.40970  0.19940  Biso   1.000  H
  C178     1.0000 0.74300  0.39759  0.27190  Biso   1.000  C
  H89      1.0000 0.72040  0.37660  0.28730  Biso   1.000  H
  C179     1.0000 0.99710  0.55938  0.20710  Biso   1.000  C
  C180     1.0000 0.85800  0.56342  0.06870  Biso   1.000  C
  H90      1.0000 0.02900  0.57310  0.10700  Biso   1.000  H
  O106     1.0000 0.01600  0.58310  0.15310  Biso   1.000  O
  O107     1.0000 0.02760  0.55480  0.26970  Biso   1.000  O
  O108     1.0000 0.00040  0.58970  0.17780  Biso   1.000  O
  Cu19     1.0000 0.49085  0.99685  0.30819  Biso   1.000  Cu
  O109     1.0000 0.55440  0.04980  0.25230  Biso   1.000  O
  O110     1.0000 0.30330  0.05859  0.02260  Biso   1.000  O
  O111     1.0000 0.40620  0.08993  0.06510  Biso   1.000  O
  N55      1.0000 0.41500  0.00654  0.22828  Biso   1.000  N
  N56      1.0000 0.32005  0.01005  0.13677  Biso   1.000  N
  N57      1.0000 0.31380  0.90784  0.30230  Biso   1.000  N
  C181     1.0000 0.34870  0.99149  0.19686  Biso   1.000  C
  C182     1.0000 0.42920  0.03582  0.18700  Biso   1.000  C
  C183     1.0000 0.37100  0.03801  0.13090  Biso   1.000  C
  C184     1.0000 0.34590  0.93798  0.27710  Biso   1.000  C
  H91      1.0000 0.39520  0.94520  0.29800  Biso   1.000  H
  C185     1.0000 0.31060  0.95892  0.22240  Biso   1.000  C
  C186     1.0000 0.23620  0.94785  0.19340  Biso   1.000  C
  H92      1.0000 0.20920  0.96110  0.15710  Biso   1.000  H
  C187     1.0000 0.20250  0.91715  0.21850  Biso   1.000  C
  H93      1.0000 0.15260  0.90970  0.19940  Biso   1.000  H
  C188     1.0000 0.24300  0.89759  0.27190  Biso   1.000  C
  H94      1.0000 0.22040  0.87660  0.28730  Biso   1.000  H
  C189     1.0000 0.49710  0.05938  0.20710  Biso   1.000  C
  C190     1.0000 0.35800  0.06342  0.06870  Biso   1.000  C
  H95      1.0000 0.52900  0.07310  0.10700  Biso   1.000  H
  O112     1.0000 0.51600  0.08310  0.15310  Biso   1.000  O
  O113     1.0000 0.52760  0.05480  0.26970  Biso   1.000  O
  O114     1.0000 0.50040  0.08970  0.17780  Biso   1.000  O
  Cu20     1.0000 0.49085  0.49685  0.80819  Biso   1.000  Cu
  O115     1.0000 0.55440  0.54980  0.75230  Biso   1.000  O
  O116     1.0000 0.30330  0.55859  0.52260  Biso   1.000  O
  O117     1.0000 0.40620  0.58993  0.56510  Biso   1.000  O
  N58      1.0000 0.41500  0.50654  0.72828  Biso   1.000  N
  N59      1.0000 0.32005  0.51005  0.63677  Biso   1.000  N
  N60      1.0000 0.31380  0.40784  0.80230  Biso   1.000  N
  C191     1.0000 0.34870  0.49149  0.69686  Biso   1.000  C
  C192     1.0000 0.42920  0.53582  0.68700  Biso   1.000  C
  C193     1.0000 0.37100  0.53801  0.63090  Biso   1.000  C
  C194     1.0000 0.34590  0.43798  0.77710  Biso   1.000  C
  H96      1.0000 0.39520  0.44520  0.79800  Biso   1.000  H
  C195     1.0000 0.31060  0.45892  0.72240  Biso   1.000  C
  C196     1.0000 0.23620  0.44785  0.69340  Biso   1.000  C
  H97      1.0000 0.20920  0.46110  0.65710  Biso   1.000  H
  C197     1.0000 0.20250  0.41715  0.71850  Biso   1.000  C
  H98      1.0000 0.15260  0.40970  0.69940  Biso   1.000  H
  C198     1.0000 0.24300  0.39759  0.77190  Biso   1.000  C
  H99      1.0000 0.22040  0.37660  0.78730  Biso   1.000  H
  C199     1.0000 0.49710  0.55938  0.70710  Biso   1.000  C
  C200     1.0000 0.35800  0.56342  0.56870  Biso   1.000  C
  H100     1.0000 0.52900  0.57310  0.60700  Biso   1.000  H
  O118     1.0000 0.51600  0.58310  0.65310  Biso   1.000  O
  O119     1.0000 0.52760  0.55480  0.76970  Biso   1.000  O
  O120     1.0000 0.50040  0.58970  0.67780  Biso   1.000  O
  Cu21     1.0000 0.25915  0.25315  0.80819  Biso   1.000  Cu
  O121     1.0000 0.19560  0.20020  0.75230  Biso   1.000  O
  O122     1.0000 0.44670  0.19141  0.52260  Biso   1.000  O
  O123     1.0000 0.34380  0.16007  0.56510  Biso   1.000  O
  N61      1.0000 0.33500  0.24346  0.72828  Biso   1.000  N
  N62      1.0000 0.42995  0.23995  0.63677  Biso   1.000  N
  N63      1.0000 0.43620  0.34216  0.80230  Biso   1.000  N
  C201     1.0000 0.40130  0.25851  0.69686  Biso   1.000  C
  C202     1.0000 0.32080  0.21418  0.68700  Biso   1.000  C
  C203     1.0000 0.37900  0.21199  0.63090  Biso   1.000  C
  C204     1.0000 0.40410  0.31202  0.77710  Biso   1.000  C
  H101     1.0000 0.35480  0.30480  0.79800  Biso   1.000  H
  C205     1.0000 0.43940  0.29108  0.72240  Biso   1.000  C
  C206     1.0000 0.51380  0.30215  0.69340  Biso   1.000  C
  H102     1.0000 0.54080  0.28890  0.65710  Biso   1.000  H
  C207     1.0000 0.54750  0.33285  0.71850  Biso   1.000  C
  H103     1.0000 0.59740  0.34030  0.69940  Biso   1.000  H
  C208     1.0000 0.50700  0.35241  0.77190  Biso   1.000  C
  H104     1.0000 0.52960  0.37340  0.78730  Biso   1.000  H
  C209     1.0000 0.25290  0.19062  0.70710  Biso   1.000  C
  C210     1.0000 0.39200  0.18658  0.56870  Biso   1.000  C
  H105     1.0000 0.22100  0.17690  0.60700  Biso   1.000  H
  O124     1.0000 0.23400  0.16690  0.65310  Biso   1.000  O
  O125     1.0000 0.22240  0.19520  0.76970  Biso   1.000  O
  O126     1.0000 0.24960  0.16030  0.67780  Biso   1.000  O
  Cu22     1.0000 0.25915  0.75315  0.30819  Biso   1.000  Cu
  O127     1.0000 0.19560  0.70020  0.25230  Biso   1.000  O
  O128     1.0000 0.44670  0.69141  0.02260  Biso   1.000  O
  O129     1.0000 0.34380  0.66007  0.06510  Biso   1.000  O
  N64      1.0000 0.33500  0.74346  0.22828  Biso   1.000  N
  N65      1.0000 0.42995  0.73995  0.13677  Biso   1.000  N
  N66      1.0000 0.43620  0.84216  0.30230  Biso   1.000  N
  C211     1.0000 0.40130  0.75851  0.19686  Biso   1.000  C
  C212     1.0000 0.32080  0.71418  0.18700  Biso   1.000  C
  C213     1.0000 0.37900  0.71199  0.13090  Biso   1.000  C
  C214     1.0000 0.40410  0.81202  0.27710  Biso   1.000  C
  H106     1.0000 0.35480  0.80480  0.29800  Biso   1.000  H
  C215     1.0000 0.43940  0.79108  0.22240  Biso   1.000  C
  C216     1.0000 0.51380  0.80215  0.19340  Biso   1.000  C
  H107     1.0000 0.54080  0.78890  0.15710  Biso   1.000  H
  C217     1.0000 0.54750  0.83285  0.21850  Biso   1.000  C
  H108     1.0000 0.59740  0.84030  0.19940  Biso   1.000  H
  C218     1.0000 0.50700  0.85241  0.27190  Biso   1.000  C
  H109     1.0000 0.52960  0.87340  0.28730  Biso   1.000  H
  C219     1.0000 0.25290  0.69062  0.20710  Biso   1.000  C
  C220     1.0000 0.39200  0.68658  0.06870  Biso   1.000  C
  H110     1.0000 0.22100  0.67690  0.10700  Biso   1.000  H
  O130     1.0000 0.23400  0.66690  0.15310  Biso   1.000  O
  O131     1.0000 0.22240  0.69520  0.26970  Biso   1.000  O
  O132     1.0000 0.24960  0.66030  0.17780  Biso   1.000  O
  Cu23     1.0000 0.75915  0.25315  0.30819  Biso   1.000  Cu
  O133     1.0000 0.69560  0.20020  0.25230  Biso   1.000  O
  O134     1.0000 0.94670  0.19141  0.02260  Biso   1.000  O
  O135     1.0000 0.84380  0.16007  0.06510  Biso   1.000  O
  N67      1.0000 0.83500  0.24346  0.22828  Biso   1.000  N
  N68      1.0000 0.92995  0.23995  0.13677  Biso   1.000  N
  N69      1.0000 0.93620  0.34216  0.30230  Biso   1.000  N
  C221     1.0000 0.90130  0.25851  0.19686  Biso   1.000  C
  C222     1.0000 0.82080  0.21418  0.18700  Biso   1.000  C
  C223     1.0000 0.87900  0.21199  0.13090  Biso   1.000  C
  C224     1.0000 0.90410  0.31202  0.27710  Biso   1.000  C
  H111     1.0000 0.85480  0.30480  0.29800  Biso   1.000  H
  C225     1.0000 0.93940  0.29108  0.22240  Biso   1.000  C
  C226     1.0000 0.01380  0.30215  0.19340  Biso   1.000  C
  H112     1.0000 0.04080  0.28890  0.15710  Biso   1.000  H
  C227     1.0000 0.04750  0.33285  0.21850  Biso   1.000  C
  H113     1.0000 0.09740  0.34030  0.19940  Biso   1.000  H
  C228     1.0000 0.00700  0.35241  0.27190  Biso   1.000  C
  H114     1.0000 0.02960  0.37340  0.28730  Biso   1.000  H
  C229     1.0000 0.75290  0.19062  0.20710  Biso   1.000  C
  C230     1.0000 0.89200  0.18658  0.06870  Biso   1.000  C
  H115     1.0000 0.72100  0.17690  0.10700  Biso   1.000  H
  O136     1.0000 0.73400  0.16690  0.15310  Biso   1.000  O
  O137     1.0000 0.72240  0.19520  0.26970  Biso   1.000  O
  O138     1.0000 0.74960  0.16030  0.17780  Biso   1.000  O
  Cu24     1.0000 0.75915  0.75315  0.80819  Biso   1.000  Cu
  O139     1.0000 0.69560  0.70020  0.75230  Biso   1.000  O
  O140     1.0000 0.94670  0.69141  0.52260  Biso   1.000  O
  O141     1.0000 0.84380  0.66007  0.56510  Biso   1.000  O
  N70      1.0000 0.83500  0.74346  0.72828  Biso   1.000  N
  N71      1.0000 0.92995  0.73995  0.63677  Biso   1.000  N
  N72      1.0000 0.93620  0.84216  0.80230  Biso   1.000  N
  C231     1.0000 0.90130  0.75851  0.69686  Biso   1.000  C
  C232     1.0000 0.82080  0.71418  0.68700  Biso   1.000  C
  C233     1.0000 0.87900  0.71199  0.63090  Biso   1.000  C
  C234     1.0000 0.90410  0.81202  0.77710  Biso   1.000  C
  H116     1.0000 0.85480  0.80480  0.79800  Biso   1.000  H
  C235     1.0000 0.93940  0.79108  0.72240  Biso   1.000  C
  C236     1.0000 0.01380  0.80215  0.69340  Biso   1.000  C
  H117     1.0000 0.04080  0.78890  0.65710  Biso   1.000  H
  C237     1.0000 0.04750  0.83285  0.71850  Biso   1.000  C
  H118     1.0000 0.09740  0.84030  0.69940  Biso   1.000  H
  C238     1.0000 0.00700  0.85241  0.77190  Biso   1.000  C
  H119     1.0000 0.02960  0.87340  0.78730  Biso   1.000  H
  C239     1.0000 0.75290  0.69062  0.70710  Biso   1.000  C
  C240     1.0000 0.89200  0.68658  0.56870  Biso   1.000  C
  H120     1.0000 0.72100  0.67690  0.60700  Biso   1.000  H
  O142     1.0000 0.73400  0.66690  0.65310  Biso   1.000  O
  O143     1.0000 0.72240  0.69520  0.76970  Biso   1.000  O
  O144     1.0000 0.74960  0.66030  0.67780  Biso   1.000  O
  Cu25     1.0000 0.25915  0.99685  0.44181  Biso   1.000  Cu
  O145     1.0000 0.19560  0.04980  0.49770  Biso   1.000  O
  O146     1.0000 0.44670  0.05859  0.72740  Biso   1.000  O
  O147     1.0000 0.34380  0.08993  0.68490  Biso   1.000  O
  N73      1.0000 0.33500  0.00654  0.52172  Biso   1.000  N
  N74      1.0000 0.42995  0.01005  0.61323  Biso   1.000  N
  N75      1.0000 0.43620  0.90784  0.44770  Biso   1.000  N
  C241     1.0000 0.40130  0.99149  0.55314  Biso   1.000  C
  C242     1.0000 0.32080  0.03582  0.56300  Biso   1.000  C
  C243     1.0000 0.37900  0.03801  0.61910  Biso   1.000  C
  C244     1.0000 0.40410  0.93798  0.47290  Biso   1.000  C
  H121     1.0000 0.35480  0.94520  0.45200  Biso   1.000  H
  C245     1.0000 0.43940  0.95892  0.52760  Biso   1.000  C
  C246     1.0000 0.51380  0.94785  0.55660  Biso   1.000  C
  H122     1.0000 0.54080  0.96110  0.59290  Biso   1.000  H
  C247     1.0000 0.54750  0.91715  0.53150  Biso   1.000  C
  H123     1.0000 0.59740  0.90970  0.55060  Biso   1.000  H
  C248     1.0000 0.50700  0.89759  0.47810  Biso   1.000  C
  H124     1.0000 0.52960  0.87660  0.46270  Biso   1.000  H
  C249     1.0000 0.25290  0.05938  0.54290  Biso   1.000  C
  C250     1.0000 0.39200  0.06342  0.68130  Biso   1.000  C
  H125     1.0000 0.22100  0.07310  0.64300  Biso   1.000  H
  O148     1.0000 0.23400  0.08310  0.59690  Biso   1.000  O
  O149     1.0000 0.22240  0.05480  0.48030  Biso   1.000  O
  O150     1.0000 0.24960  0.08970  0.57220  Biso   1.000  O
  Cu26     1.0000 0.25915  0.49685  0.94181  Biso   1.000  Cu
  O151     1.0000 0.19560  0.54980  0.99770  Biso   1.000  O
  O152     1.0000 0.44670  0.55859  0.22740  Biso   1.000  O
  O153     1.0000 0.34380  0.58993  0.18490  Biso   1.000  O
  N76      1.0000 0.33500  0.50654  0.02172  Biso   1.000  N
  N77      1.0000 0.42995  0.51005  0.11323  Biso   1.000  N
  N78      1.0000 0.43620  0.40784  0.94770  Biso   1.000  N
  C251     1.0000 0.40130  0.49149  0.05314  Biso   1.000  C
  C252     1.0000 0.32080  0.53582  0.06300  Biso   1.000  C
  C253     1.0000 0.37900  0.53801  0.11910  Biso   1.000  C
  C254     1.0000 0.40410  0.43798  0.97290  Biso   1.000  C
  H126     1.0000 0.35480  0.44520  0.95200  Biso   1.000  H
  C255     1.0000 0.43940  0.45892  0.02760  Biso   1.000  C
  C256     1.0000 0.51380  0.44785  0.05660  Biso   1.000  C
  H127     1.0000 0.54080  0.46110  0.09290  Biso   1.000  H
  C257     1.0000 0.54750  0.41715  0.03150  Biso   1.000  C
  H128     1.0000 0.59740  0.40970  0.05060  Biso   1.000  H
  C258     1.0000 0.50700  0.39759  0.97810  Biso   1.000  C
  H129     1.0000 0.52960  0.37660  0.96270  Biso   1.000  H
  C259     1.0000 0.25290  0.55938  0.04290  Biso   1.000  C
  C260     1.0000 0.39200  0.56342  0.18130  Biso   1.000  C
  H130     1.0000 0.22100  0.57310  0.14300  Biso   1.000  H
  O154     1.0000 0.23400  0.58310  0.09690  Biso   1.000  O
  O155     1.0000 0.22240  0.55480  0.98030  Biso   1.000  O
  O156     1.0000 0.24960  0.58970  0.07220  Biso   1.000  O
  Cu27     1.0000 0.75915  0.99685  0.94181  Biso   1.000  Cu
  O157     1.0000 0.69560  0.04980  0.99770  Biso   1.000  O
  O158     1.0000 0.94670  0.05859  0.22740  Biso   1.000  O
  O159     1.0000 0.84380  0.08993  0.18490  Biso   1.000  O
  N79      1.0000 0.83500  0.00654  0.02172  Biso   1.000  N
  N80      1.0000 0.92995  0.01005  0.11323  Biso   1.000  N
  N81      1.0000 0.93620  0.90784  0.94770  Biso   1.000  N
  C261     1.0000 0.90130  0.99149  0.05314  Biso   1.000  C
  C262     1.0000 0.82080  0.03582  0.06300  Biso   1.000  C
  C263     1.0000 0.87900  0.03801  0.11910  Biso   1.000  C
  C264     1.0000 0.90410  0.93798  0.97290  Biso   1.000  C
  H131     1.0000 0.85480  0.94520  0.95200  Biso   1.000  H
  C265     1.0000 0.93940  0.95892  0.02760  Biso   1.000  C
  C266     1.0000 0.01380  0.94785  0.05660  Biso   1.000  C
  H132     1.0000 0.04080  0.96110  0.09290  Biso   1.000  H
  C267     1.0000 0.04750  0.91715  0.03150  Biso   1.000  C
  H133     1.0000 0.09740  0.90970  0.05060  Biso   1.000  H
  C268     1.0000 0.00700  0.89759  0.97810  Biso   1.000  C
  H134     1.0000 0.02960  0.87660  0.96270  Biso   1.000  H
  C269     1.0000 0.75290  0.05938  0.04290  Biso   1.000  C
  C270     1.0000 0.89200  0.06342  0.18130  Biso   1.000  C
  H135     1.0000 0.72100  0.07310  0.14300  Biso   1.000  H
  O160     1.0000 0.73400  0.08310  0.09690  Biso   1.000  O
  O161     1.0000 0.72240  0.05480  0.98030  Biso   1.000  O
  O162     1.0000 0.74960  0.08970  0.07220  Biso   1.000  O
  Cu28     1.0000 0.75915  0.49685  0.44181  Biso   1.000  Cu
  O163     1.0000 0.69560  0.54980  0.49770  Biso   1.000  O
  O164     1.0000 0.94670  0.55859  0.72740  Biso   1.000  O
  O165     1.0000 0.84380  0.58993  0.68490  Biso   1.000  O
  N82      1.0000 0.83500  0.50654  0.52172  Biso   1.000  N
  N83      1.0000 0.92995  0.51005  0.61323  Biso   1.000  N
  N84      1.0000 0.93620  0.40784  0.44770  Biso   1.000  N
  C271     1.0000 0.90130  0.49149  0.55314  Biso   1.000  C
  C272     1.0000 0.82080  0.53582  0.56300  Biso   1.000  C
  C273     1.0000 0.87900  0.53801  0.61910  Biso   1.000  C
  C274     1.0000 0.90410  0.43798  0.47290  Biso   1.000  C
  H136     1.0000 0.85480  0.44520  0.45200  Biso   1.000  H
  C275     1.0000 0.93940  0.45892  0.52760  Biso   1.000  C
  C276     1.0000 0.01380  0.44785  0.55660  Biso   1.000  C
  H137     1.0000 0.04080  0.46110  0.59290  Biso   1.000  H
  C277     1.0000 0.04750  0.41715  0.53150  Biso   1.000  C
  H138     1.0000 0.09740  0.40970  0.55060  Biso   1.000  H
  C278     1.0000 0.00700  0.39759  0.47810  Biso   1.000  C
  H139     1.0000 0.02960  0.37660  0.46270  Biso   1.000  H
  C279     1.0000 0.75290  0.55938  0.54290  Biso   1.000  C
  C280     1.0000 0.89200  0.56342  0.68130  Biso   1.000  C
  H140     1.0000 0.72100  0.57310  0.64300  Biso   1.000  H
  O166     1.0000 0.73400  0.58310  0.59690  Biso   1.000  O
  O167     1.0000 0.72240  0.55480  0.48030  Biso   1.000  O
  O168     1.0000 0.74960  0.58970  0.57220  Biso   1.000  O
  Cu29     1.0000 0.99085  0.25315  0.44181  Biso   1.000  Cu
  O169     1.0000 0.05440  0.20020  0.49770  Biso   1.000  O
  O170     1.0000 0.80330  0.19141  0.72740  Biso   1.000  O
  O171     1.0000 0.90620  0.16007  0.68490  Biso   1.000  O
  N85      1.0000 0.91500  0.24346  0.52172  Biso   1.000  N
  N86      1.0000 0.82005  0.23995  0.61323  Biso   1.000  N
  N87      1.0000 0.81380  0.34216  0.44770  Biso   1.000  N
  C281     1.0000 0.84870  0.25851  0.55314  Biso   1.000  C
  C282     1.0000 0.92920  0.21418  0.56300  Biso   1.000  C
  C283     1.0000 0.87100  0.21199  0.61910  Biso   1.000  C
  C284     1.0000 0.84590  0.31202  0.47290  Biso   1.000  C
  H141     1.0000 0.89520  0.30480  0.45200  Biso   1.000  H
  C285     1.0000 0.81060  0.29108  0.52760  Biso   1.000  C
  C286     1.0000 0.73620  0.30215  0.55660  Biso   1.000  C
  H142     1.0000 0.70920  0.28890  0.59290  Biso   1.000  H
  C287     1.0000 0.70250  0.33285  0.53150  Biso   1.000  C
  H143     1.0000 0.65260  0.34030  0.55060  Biso   1.000  H
  C288     1.0000 0.74300  0.35241  0.47810  Biso   1.000  C
  H144     1.0000 0.72040  0.37340  0.46270  Biso   1.000  H
  C289     1.0000 0.99710  0.19062  0.54290  Biso   1.000  C
  C290     1.0000 0.85800  0.18658  0.68130  Biso   1.000  C
  H145     1.0000 0.02900  0.17690  0.64300  Biso   1.000  H
  O172     1.0000 0.01600  0.16690  0.59690  Biso   1.000  O
  O173     1.0000 0.02760  0.19520  0.48030  Biso   1.000  O
  O174     1.0000 0.00040  0.16030  0.57220  Biso   1.000  O
  Cu30     1.0000 0.99085  0.75315  0.94181  Biso   1.000  Cu
  O175     1.0000 0.05440  0.70020  0.99770  Biso   1.000  O
  O176     1.0000 0.80330  0.69141  0.22740  Biso   1.000  O
  O177     1.0000 0.90620  0.66007  0.18490  Biso   1.000  O
  N88      1.0000 0.91500  0.74346  0.02172  Biso   1.000  N
  N89      1.0000 0.82005  0.73995  0.11323  Biso   1.000  N
  N90      1.0000 0.81380  0.84216  0.94770  Biso   1.000  N
  C291     1.0000 0.84870  0.75851  0.05314  Biso   1.000  C
  C292     1.0000 0.92920  0.71418  0.06300  Biso   1.000  C
  C293     1.0000 0.87100  0.71199  0.11910  Biso   1.000  C
  C294     1.0000 0.84590  0.81202  0.97290  Biso   1.000  C
  H146     1.0000 0.89520  0.80480  0.95200  Biso   1.000  H
  C295     1.0000 0.81060  0.79108  0.02760  Biso   1.000  C
  C296     1.0000 0.73620  0.80215  0.05660  Biso   1.000  C
  H147     1.0000 0.70920  0.78890  0.09290  Biso   1.000  H
  C297     1.0000 0.70250  0.83285  0.03150  Biso   1.000  C
  H148     1.0000 0.65260  0.84030  0.05060  Biso   1.000  H
  C298     1.0000 0.74300  0.85241  0.97810  Biso   1.000  C
  H149     1.0000 0.72040  0.87340  0.96270  Biso   1.000  H
  C299     1.0000 0.99710  0.69062  0.04290  Biso   1.000  C
  C300     1.0000 0.85800  0.68658  0.18130  Biso   1.000  C
  H150     1.0000 0.02900  0.67690  0.14300  Biso   1.000  H
  O178     1.0000 0.01600  0.66690  0.09690  Biso   1.000  O
  O179     1.0000 0.02760  0.69520  0.98030  Biso   1.000  O
  O180     1.0000 0.00040  0.66030  0.07220  Biso   1.000  O
  Cu31     1.0000 0.49085  0.25315  0.94181  Biso   1.000  Cu
  O181     1.0000 0.55440  0.20020  0.99770  Biso   1.000  O
  O182     1.0000 0.30330  0.19141  0.22740  Biso   1.000  O
  O183     1.0000 0.40620  0.16007  0.18490  Biso   1.000  O
  N91      1.0000 0.41500  0.24346  0.02172  Biso   1.000  N
  N92      1.0000 0.32005  0.23995  0.11323  Biso   1.000  N
  N93      1.0000 0.31380  0.34216  0.94770  Biso   1.000  N
  C301     1.0000 0.34870  0.25851  0.05314  Biso   1.000  C
  C302     1.0000 0.42920  0.21418  0.06300  Biso   1.000  C
  C303     1.0000 0.37100  0.21199  0.11910  Biso   1.000  C
  C304     1.0000 0.34590  0.31202  0.97290  Biso   1.000  C
  H151     1.0000 0.39520  0.30480  0.95200  Biso   1.000  H
  C305     1.0000 0.31060  0.29108  0.02760  Biso   1.000  C
  C306     1.0000 0.23620  0.30215  0.05660  Biso   1.000  C
  H152     1.0000 0.20920  0.28890  0.09290  Biso   1.000  H
  C307     1.0000 0.20250  0.33285  0.03150  Biso   1.000  C
  H153     1.0000 0.15260  0.34030  0.05060  Biso   1.000  H
  C308     1.0000 0.24300  0.35241  0.97810  Biso   1.000  C
  H154     1.0000 0.22040  0.37340  0.96270  Biso   1.000  H
  C309     1.0000 0.49710  0.19062  0.04290  Biso   1.000  C
  C310     1.0000 0.35800  0.18658  0.18130  Biso   1.000  C
  H155     1.0000 0.52900  0.17690  0.14300  Biso   1.000  H
  O184     1.0000 0.51600  0.16690  0.09690  Biso   1.000  O
  O185     1.0000 0.52760  0.19520  0.98030  Biso   1.000  O
  O186     1.0000 0.50040  0.16030  0.07220  Biso   1.000  O
  Cu32     1.0000 0.49085  0.75315  0.44181  Biso   1.000  Cu
  O187     1.0000 0.55440  0.70020  0.49770  Biso   1.000  O
  O188     1.0000 0.30330  0.69141  0.72740  Biso   1.000  O
  O189     1.0000 0.40620  0.66007  0.68490  Biso   1.000  O
  N94      1.0000 0.41500  0.74346  0.52172  Biso   1.000  N
  N95      1.0000 0.32005  0.73995  0.61323  Biso   1.000  N
  N96      1.0000 0.31380  0.84216  0.44770  Biso   1.000  N
  C311     1.0000 0.34870  0.75851  0.55314  Biso   1.000  C
  C312     1.0000 0.42920  0.71418  0.56300  Biso   1.000  C
  C313     1.0000 0.37100  0.71199  0.61910  Biso   1.000  C
  C314     1.0000 0.34590  0.81202  0.47290  Biso   1.000  C
  H156     1.0000 0.39520  0.80480  0.45200  Biso   1.000  H
  C315     1.0000 0.31060  0.79108  0.52760  Biso   1.000  C
  C316     1.0000 0.23620  0.80215  0.55660  Biso   1.000  C
  H157     1.0000 0.20920  0.78890  0.59290  Biso   1.000  H
  C317     1.0000 0.20250  0.83285  0.53150  Biso   1.000  C
  H158     1.0000 0.15260  0.84030  0.55060  Biso   1.000  H
  C318     1.0000 0.24300  0.85241  0.47810  Biso   1.000  C
  H159     1.0000 0.22040  0.87340  0.46270  Biso   1.000  H
  C319     1.0000 0.49710  0.69062  0.54290  Biso   1.000  C
  C320     1.0000 0.35800  0.68658  0.68130  Biso   1.000  C
  H160     1.0000 0.52900  0.67690  0.64300  Biso   1.000  H
  O190     1.0000 0.51600  0.66690  0.59690  Biso   1.000  O
  O191     1.0000 0.52760  0.69520  0.48030  Biso   1.000  O
  O192     1.0000 0.50040  0.66030  0.57220  Biso   1.000  O
  Cu33     1.0000 0.12500  0.12500  0.12500  Biso   1.000  Cu
  Cu34     1.0000 0.12500  0.62500  0.62500  Biso   1.000  Cu
  Cu35     1.0000 0.62500  0.12500  0.62500  Biso   1.000  Cu
  Cu36     1.0000 0.62500  0.62500  0.12500  Biso   1.000  Cu
  Cu37     1.0000 0.87500  0.87500  0.87500  Biso   1.000  Cu
  Cu38     1.0000 0.87500  0.37500  0.37500  Biso   1.000  Cu
  Cu39     1.0000 0.37500  0.87500  0.37500  Biso   1.000  Cu
  Cu40     1.0000 0.37500  0.37500  0.87500  Biso   1.000  Cu
