data_image0
_cell_length_a       28.028
_cell_length_b       28.028
_cell_length_c       25.567
_cell_angle_alpha    90
_cell_angle_beta     90
_cell_angle_gamma    120

_symmetry_space_group_name_H-M    "P 1"
_symmetry_int_tables_number       1

loop_
  _symmetry_equiv_pos_as_xyz
  'x, y, z'

loop_
  _atom_site_label
  _atom_site_occupancy
  _atom_site_fract_x
  _atom_site_fract_y
  _atom_site_fract_z
  _atom_site_thermal_displace_type
  _atom_site_B_iso_or_equiv
  _atom_site_type_symbol
  Cs1      1.0000 0.37265  0.05491  0.98078  Biso   1.000  Cs
  P1       1.0000 0.38488  0.18762  0.00420  Biso   1.000  P
  O1       1.0000 0.37230  0.03650  0.09895  Biso   1.000  O
  C1       1.0000 0.32620  0.19170  0.99960  Biso   1.000  C
  P2       1.0000 0.33022  0.25556  0.99492  Biso   1.000  P
  O2       1.0000 0.34020  0.98570  0.19731  Biso   1.000  O
  C2       1.0000 0.43480  0.25580  0.00370  Biso   1.000  C
  P3       1.0000 0.41497  0.30617  0.00013  Biso   1.000  P
  C3       1.0000 0.26710  0.13830  0.99940  Biso   1.000  C
  C4       1.0000 0.24310  0.11790  0.95660  Biso   1.000  C
  H1       1.0000 0.20860  0.08690  0.96150  Biso   1.000  H
  C5       1.0000 0.24070  0.11590  0.05320  Biso   1.000  C
  C6       1.0000 0.18450  0.06730  0.05180  Biso   1.000  C
  H2       1.0000 0.17650  0.04850  0.08490  Biso   1.000  H
  H3       1.0000 0.18240  0.04270  0.02460  Biso   1.000  H
  H4       1.0000 0.15830  0.07900  0.04520  Biso   1.000  H
  C7       1.0000 0.23250  0.15770  0.07930  Biso   1.000  C
  H5       1.0000 0.19610  0.14070  0.09380  Biso   1.000  H
  H6       1.0000 0.23700  0.18520  0.05440  Biso   1.000  H
  H7       1.0000 0.25920  0.17450  0.10680  Biso   1.000  H
  C8       1.0000 0.27000  0.09300  0.07930  Biso   1.000  C
  H8       1.0000 0.25090  0.07490  0.11080  Biso   1.000  H
  H9       1.0000 0.30650  0.12200  0.08790  Biso   1.000  H
  H10      1.0000 0.27240  0.06690  0.05670  Biso   1.000  H
  C9       1.0000 0.25700  0.13170  0.89880  Biso   1.000  C
  C10      1.0000 0.22690  0.08010  0.86870  Biso   1.000  C
  H11      1.0000 0.18810  0.06450  0.87410  Biso   1.000  H
  H12      1.0000 0.23810  0.05450  0.88020  Biso   1.000  H
  H13      1.0000 0.23510  0.08770  0.83220  Biso   1.000  H
  C11      1.0000 0.24330  0.17380  0.88210  Biso   1.000  C
  H14      1.0000 0.20450  0.15960  0.88610  Biso   1.000  H
  H15      1.0000 0.25350  0.18310  0.84610  Biso   1.000  H
  H16      1.0000 0.26310  0.20620  0.90340  Biso   1.000  H
  C12      1.0000 0.31950  0.15480  0.88320  Biso   1.000  C
  H17      1.0000 0.32340  0.15920  0.84590  Biso   1.000  H
  H18      1.0000 0.33090  0.12930  0.89440  Biso   1.000  H
  H19      1.0000 0.34200  0.18970  0.89980  Biso   1.000  H
  C13      1.0000 0.37140  0.06560  0.14360  Biso   1.000  C
  H20      1.0000 0.36320  0.09410  0.13330  Biso   1.000  H
  H21      1.0000 0.40730  0.08330  0.16020  Biso   1.000  H
  C14      1.0000 0.32920  0.02760  0.18110  Biso   1.000  C
  H22      1.0000 0.32870  0.04820  0.21140  Biso   1.000  H
  H23      1.0000 0.29320  0.01100  0.16480  Biso   1.000  H
  C15      1.0000 0.34200  0.95660  0.15220  Biso   1.000  C
  H24      1.0000 0.30600  0.93800  0.13560  Biso   1.000  H
  H25      1.0000 0.35110  0.92880  0.16260  Biso   1.000  H
  C16      1.0000 0.38340  0.99480  0.11440  Biso   1.000  C
  H26      1.0000 0.41970  0.01140  0.13020  Biso   1.000  H
  H27      1.0000 0.38350  0.97430  0.08380  Biso   1.000  H
  C17      1.0000 0.47110  0.00970  0.92260  Biso   1.000  C
  H28      1.0000 0.47470  0.99200  0.89190  Biso   1.000  H
  H29      1.0000 0.43490  0.00540  0.92360  Biso   1.000  H
  H30      1.0000 0.47660  0.99310  0.95320  Biso   1.000  H
  C18      1.0000 0.51590  0.12910  0.03640  Biso   1.000  C
  H31      1.0000 0.54310  0.16070  0.05510  Biso   1.000  H
  H32      1.0000 0.50430  0.09660  0.05720  Biso   1.000  H
  H33      1.0000 0.48470  0.13350  0.02900  Biso   1.000  H
  O3       1.0000 0.48700  0.07390  0.97260  Biso   1.000  O
  C19      1.0000 0.51440  0.07110  0.92130  Biso   1.000  C
  H34      1.0000 0.51050  0.09130  0.89240  Biso   1.000  H
  H35      1.0000 0.55210  0.07910  0.92510  Biso   1.000  H
  C20      1.0000 0.54050  0.12340  0.98520  Biso   1.000  C
  H36      1.0000 0.55080  0.15380  0.96130  Biso   1.000  H
  H37      1.0000 0.57040  0.11580  0.98990  Biso   1.000  H
  C21      1.0000 0.51500  0.03200  0.96400  Biso   1.000  C
  C22      1.0000 0.53790  0.09250  0.01900  Biso   1.000  C
  Cs2      1.0000 0.34630  0.05513  0.97953  Biso   1.000  Cs
  H38      1.0000 0.47250  0.98100  0.90320  Biso   1.000  H
  H39      1.0000 0.47700  0.03900  0.89930  Biso   1.000  H
  H40      1.0000 0.43570  0.99510  0.93890  Biso   1.000  H
  H41      1.0000 0.55160  0.05830  0.95130  Biso   1.000  H
  H42      1.0000 0.51680  0.00300  0.98440  Biso   1.000  H
  H43      1.0000 0.54460  0.07390  0.04800  Biso   1.000  H
  H44      1.0000 0.56980  0.11050  0.99660  Biso   1.000  H
  H45      1.0000 0.54190  0.15720  0.05930  Biso   1.000  H
  H46      1.0000 0.48160  0.10750  0.05450  Biso   1.000  H
  H47      1.0000 0.51000  0.14590  0.00620  Biso   1.000  H
  O4       1.0000 0.48490  0.05670  0.99070  Biso   1.000  O
  Cs3      1.0000 0.03932  0.38824  0.31411  Biso   1.000  Cs
  P4       1.0000 0.05155  0.52095  0.33753  Biso   1.000  P
  O5       1.0000 0.03897  0.36983  0.43228  Biso   1.000  O
  C23      1.0000 0.99287  0.52503  0.33293  Biso   1.000  C
  P5       1.0000 0.99689  0.58889  0.32825  Biso   1.000  P
  O6       1.0000 0.00687  0.31903  0.53064  Biso   1.000  O
  C24      1.0000 0.10147  0.58913  0.33703  Biso   1.000  C
  P6       1.0000 0.08164  0.63950  0.33346  Biso   1.000  P
  C25      1.0000 0.93377  0.47163  0.33273  Biso   1.000  C
  C26      1.0000 0.90977  0.45123  0.28993  Biso   1.000  C
  H48      1.0000 0.87527  0.42023  0.29483  Biso   1.000  H
  C27      1.0000 0.90737  0.44923  0.38653  Biso   1.000  C
  C28      1.0000 0.85117  0.40063  0.38513  Biso   1.000  C
  H49      1.0000 0.84317  0.38183  0.41823  Biso   1.000  H
  H50      1.0000 0.84907  0.37603  0.35793  Biso   1.000  H
  H51      1.0000 0.82497  0.41233  0.37853  Biso   1.000  H
  C29      1.0000 0.89917  0.49103  0.41263  Biso   1.000  C
  H52      1.0000 0.86277  0.47403  0.42713  Biso   1.000  H
  H53      1.0000 0.90367  0.51853  0.38773  Biso   1.000  H
  H54      1.0000 0.92587  0.50783  0.44013  Biso   1.000  H
  C30      1.0000 0.93667  0.42633  0.41263  Biso   1.000  C
  H55      1.0000 0.91757  0.40823  0.44413  Biso   1.000  H
  H56      1.0000 0.97317  0.45533  0.42123  Biso   1.000  H
  H57      1.0000 0.93907  0.40023  0.39003  Biso   1.000  H
  C31      1.0000 0.92367  0.46503  0.23213  Biso   1.000  C
  C32      1.0000 0.89357  0.41343  0.20203  Biso   1.000  C
  H58      1.0000 0.85477  0.39783  0.20743  Biso   1.000  H
  H59      1.0000 0.90477  0.38783  0.21353  Biso   1.000  H
  H60      1.0000 0.90177  0.42103  0.16553  Biso   1.000  H
  C33      1.0000 0.90997  0.50713  0.21543  Biso   1.000  C
  H61      1.0000 0.87117  0.49293  0.21943  Biso   1.000  H
  H62      1.0000 0.92017  0.51643  0.17943  Biso   1.000  H
  H63      1.0000 0.92977  0.53953  0.23673  Biso   1.000  H
  C34      1.0000 0.98617  0.48813  0.21653  Biso   1.000  C
  H64      1.0000 0.99007  0.49253  0.17923  Biso   1.000  H
  H65      1.0000 0.99757  0.46263  0.22773  Biso   1.000  H
  H66      1.0000 0.00867  0.52303  0.23313  Biso   1.000  H
  C35      1.0000 0.03807  0.39893  0.47693  Biso   1.000  C
  H67      1.0000 0.02987  0.42743  0.46663  Biso   1.000  H
  H68      1.0000 0.07397  0.41663  0.49353  Biso   1.000  H
  C36      1.0000 0.99587  0.36093  0.51443  Biso   1.000  C
  H69      1.0000 0.99537  0.38153  0.54473  Biso   1.000  H
  H70      1.0000 0.95987  0.34433  0.49813  Biso   1.000  H
  C37      1.0000 0.00867  0.28993  0.48553  Biso   1.000  C
  H71      1.0000 0.97267  0.27133  0.46893  Biso   1.000  H
  H72      1.0000 0.01777  0.26213  0.49593  Biso   1.000  H
  C38      1.0000 0.05007  0.32813  0.44773  Biso   1.000  C
  H73      1.0000 0.08637  0.34473  0.46353  Biso   1.000  H
  H74      1.0000 0.05017  0.30763  0.41713  Biso   1.000  H
  C39      1.0000 0.13777  0.34303  0.25593  Biso   1.000  C
  H75      1.0000 0.14137  0.32533  0.22523  Biso   1.000  H
  H76      1.0000 0.10157  0.33873  0.25693  Biso   1.000  H
  H77      1.0000 0.14327  0.32643  0.28653  Biso   1.000  H
  C40      1.0000 0.18257  0.46243  0.36973  Biso   1.000  C
  H78      1.0000 0.20977  0.49403  0.38843  Biso   1.000  H
  H79      1.0000 0.17097  0.42993  0.39053  Biso   1.000  H
  H80      1.0000 0.15137  0.46683  0.36233  Biso   1.000  H
  O7       1.0000 0.15367  0.40723  0.30593  Biso   1.000  O
  C41      1.0000 0.18107  0.40443  0.25463  Biso   1.000  C
  H81      1.0000 0.17717  0.42463  0.22573  Biso   1.000  H
  H82      1.0000 0.21877  0.41243  0.25843  Biso   1.000  H
  C42      1.0000 0.20717  0.45673  0.31853  Biso   1.000  C
  H83      1.0000 0.21747  0.48713  0.29463  Biso   1.000  H
  H84      1.0000 0.23707  0.44913  0.32323  Biso   1.000  H
  C43      1.0000 0.18167  0.36533  0.29733  Biso   1.000  C
  C44      1.0000 0.20457  0.42583  0.35233  Biso   1.000  C
  Cs4      1.0000 0.01297  0.38846  0.31286  Biso   1.000  Cs
  H85      1.0000 0.13917  0.31433  0.23653  Biso   1.000  H
  H86      1.0000 0.14367  0.37233  0.23263  Biso   1.000  H
  H87      1.0000 0.10237  0.32843  0.27223  Biso   1.000  H
  H88      1.0000 0.21827  0.39163  0.28463  Biso   1.000  H
  H89      1.0000 0.18347  0.33633  0.31773  Biso   1.000  H
  H90      1.0000 0.21127  0.40723  0.38133  Biso   1.000  H
  H91      1.0000 0.23647  0.44383  0.32993  Biso   1.000  H
  H92      1.0000 0.20857  0.49053  0.39263  Biso   1.000  H
  H93      1.0000 0.14827  0.44083  0.38783  Biso   1.000  H
  H94      1.0000 0.17667  0.47923  0.33953  Biso   1.000  H
  O8       1.0000 0.15157  0.39003  0.32403  Biso   1.000  O
  Cs5      1.0000 0.70598  0.72157  0.64745  Biso   1.000  Cs
  P7       1.0000 0.71821  0.85429  0.67087  Biso   1.000  P
  O9       1.0000 0.70563  0.70317  0.76562  Biso   1.000  O
  C45      1.0000 0.65953  0.85837  0.66627  Biso   1.000  C
  P8       1.0000 0.66355  0.92223  0.66159  Biso   1.000  P
  O10      1.0000 0.67353  0.65237  0.86398  Biso   1.000  O
  C46      1.0000 0.76813  0.92247  0.67037  Biso   1.000  C
  P9       1.0000 0.74830  0.97284  0.66680  Biso   1.000  P
  C47      1.0000 0.60043  0.80497  0.66607  Biso   1.000  C
  C48      1.0000 0.57643  0.78457  0.62327  Biso   1.000  C
  H95      1.0000 0.54193  0.75357  0.62817  Biso   1.000  H
  C49      1.0000 0.57403  0.78257  0.71987  Biso   1.000  C
  C50      1.0000 0.51783  0.73397  0.71847  Biso   1.000  C
  H96      1.0000 0.50983  0.71517  0.75157  Biso   1.000  H
  H97      1.0000 0.51573  0.70937  0.69127  Biso   1.000  H
  H98      1.0000 0.49163  0.74567  0.71187  Biso   1.000  H
  C51      1.0000 0.56583  0.82437  0.74597  Biso   1.000  C
  H99      1.0000 0.52943  0.80737  0.76047  Biso   1.000  H
  H100     1.0000 0.57033  0.85187  0.72107  Biso   1.000  H
  H101     1.0000 0.59253  0.84117  0.77347  Biso   1.000  H
  C52      1.0000 0.60333  0.75967  0.74597  Biso   1.000  C
  H102     1.0000 0.58423  0.74157  0.77747  Biso   1.000  H
  H103     1.0000 0.63983  0.78867  0.75457  Biso   1.000  H
  H104     1.0000 0.60573  0.73357  0.72337  Biso   1.000  H
  C53      1.0000 0.59033  0.79837  0.56547  Biso   1.000  C
  C54      1.0000 0.56023  0.74677  0.53537  Biso   1.000  C
  H105     1.0000 0.52143  0.73117  0.54077  Biso   1.000  H
  H106     1.0000 0.57143  0.72117  0.54687  Biso   1.000  H
  H107     1.0000 0.56843  0.75437  0.49887  Biso   1.000  H
  C55      1.0000 0.57663  0.84047  0.54877  Biso   1.000  C
  H108     1.0000 0.53783  0.82627  0.55277  Biso   1.000  H
  H109     1.0000 0.58683  0.84977  0.51277  Biso   1.000  H
  H110     1.0000 0.59643  0.87287  0.57007  Biso   1.000  H
  C56      1.0000 0.65283  0.82147  0.54987  Biso   1.000  C
  H111     1.0000 0.65673  0.82587  0.51257  Biso   1.000  H
  H112     1.0000 0.66423  0.79597  0.56107  Biso   1.000  H
  H113     1.0000 0.67533  0.85637  0.56647  Biso   1.000  H
  C57      1.0000 0.70473  0.73227  0.81027  Biso   1.000  C
  H114     1.0000 0.69653  0.76077  0.79997  Biso   1.000  H
  H115     1.0000 0.74063  0.74997  0.82687  Biso   1.000  H
  C58      1.0000 0.66253  0.69427  0.84777  Biso   1.000  C
  H116     1.0000 0.66203  0.71487  0.87807  Biso   1.000  H
  H117     1.0000 0.62653  0.67767  0.83147  Biso   1.000  H
  C59      1.0000 0.67533  0.62327  0.81887  Biso   1.000  C
  H118     1.0000 0.63933  0.60467  0.80227  Biso   1.000  H
  H119     1.0000 0.68443  0.59547  0.82927  Biso   1.000  H
  C60      1.0000 0.71673  0.66147  0.78107  Biso   1.000  C
  H120     1.0000 0.75303  0.67807  0.79687  Biso   1.000  H
  H121     1.0000 0.71683  0.64097  0.75047  Biso   1.000  H
  C61      1.0000 0.80443  0.67637  0.58927  Biso   1.000  C
  H122     1.0000 0.80803  0.65867  0.55857  Biso   1.000  H
  H123     1.0000 0.76823  0.67207  0.59027  Biso   1.000  H
  H124     1.0000 0.80993  0.65977  0.61987  Biso   1.000  H
  C62      1.0000 0.84923  0.79577  0.70307  Biso   1.000  C
  H125     1.0000 0.87643  0.82737  0.72177  Biso   1.000  H
  H126     1.0000 0.83763  0.76327  0.72387  Biso   1.000  H
  H127     1.0000 0.81803  0.80017  0.69567  Biso   1.000  H
  O11      1.0000 0.82033  0.74057  0.63927  Biso   1.000  O
  C63      1.0000 0.84773  0.73777  0.58797  Biso   1.000  C
  H128     1.0000 0.84383  0.75797  0.55907  Biso   1.000  H
  H129     1.0000 0.88543  0.74577  0.59177  Biso   1.000  H
  C64      1.0000 0.87383  0.79007  0.65187  Biso   1.000  C
  H130     1.0000 0.88413  0.82047  0.62797  Biso   1.000  H
  H131     1.0000 0.90373  0.78247  0.65657  Biso   1.000  H
  C65      1.0000 0.84833  0.69867  0.63067  Biso   1.000  C
  C66      1.0000 0.87123  0.75917  0.68567  Biso   1.000  C
  Cs6      1.0000 0.67963  0.72180  0.64620  Biso   1.000  Cs
  H132     1.0000 0.80583  0.64767  0.56987  Biso   1.000  H
  H133     1.0000 0.81033  0.70567  0.56597  Biso   1.000  H
  H134     1.0000 0.76903  0.66177  0.60557  Biso   1.000  H
  H135     1.0000 0.88493  0.72497  0.61797  Biso   1.000  H
  H136     1.0000 0.85013  0.66967  0.65107  Biso   1.000  H
  H137     1.0000 0.87793  0.74057  0.71467  Biso   1.000  H
  H138     1.0000 0.90313  0.77717  0.66327  Biso   1.000  H
  H139     1.0000 0.87523  0.82387  0.72597  Biso   1.000  H
  H140     1.0000 0.81493  0.77417  0.72117  Biso   1.000  H
  H141     1.0000 0.84333  0.81257  0.67287  Biso   1.000  H
  O12      1.0000 0.81823  0.72337  0.65737  Biso   1.000  O
  Cs7      1.0000 0.94509  0.31774  0.98078  Biso   1.000  Cs
  P10      1.0000 0.81238  0.19726  0.00420  Biso   1.000  P
  O13      1.0000 0.96350  0.33580  0.09895  Biso   1.000  O
  C67      1.0000 0.80830  0.13450  0.99960  Biso   1.000  C
  P11      1.0000 0.74444  0.07466  0.99492  Biso   1.000  P
  O14      1.0000 0.01430  0.35450  0.19731  Biso   1.000  O
  C68      1.0000 0.74420  0.17900  0.00370  Biso   1.000  C
  P12      1.0000 0.69383  0.10880  0.00013  Biso   1.000  P
  C69      1.0000 0.86170  0.12880  0.99940  Biso   1.000  C
  C70      1.0000 0.88210  0.12520  0.95660  Biso   1.000  C
  H142     1.0000 0.91310  0.12170  0.96150  Biso   1.000  H
  C71      1.0000 0.88410  0.12480  0.05320  Biso   1.000  C
  C72      1.0000 0.93270  0.11720  0.05180  Biso   1.000  C
  H143     1.0000 0.95150  0.12800  0.08490  Biso   1.000  H
  H144     1.0000 0.95730  0.13970  0.02460  Biso   1.000  H
  H145     1.0000 0.92100  0.07930  0.04520  Biso   1.000  H
  C73      1.0000 0.84230  0.07480  0.07930  Biso   1.000  C
  H146     1.0000 0.85930  0.05540  0.09380  Biso   1.000  H
  H147     1.0000 0.81480  0.05180  0.05440  Biso   1.000  H
  H148     1.0000 0.82550  0.08470  0.10680  Biso   1.000  H
  C74      1.0000 0.90700  0.17700  0.07930  Biso   1.000  C
  H149     1.0000 0.92510  0.17600  0.11080  Biso   1.000  H
  H150     1.0000 0.87800  0.18450  0.08790  Biso   1.000  H
  H151     1.0000 0.93310  0.20550  0.05670  Biso   1.000  H
  C75      1.0000 0.86830  0.12530  0.89880  Biso   1.000  C
  C76      1.0000 0.91990  0.14680  0.86870  Biso   1.000  C
  H152     1.0000 0.93550  0.12360  0.87410  Biso   1.000  H
  H153     1.0000 0.94550  0.18360  0.88020  Biso   1.000  H
  H154     1.0000 0.91230  0.14740  0.83220  Biso   1.000  H
  C77      1.0000 0.82620  0.06950  0.88210  Biso   1.000  C
  H155     1.0000 0.84040  0.04490  0.88610  Biso   1.000  H
  H156     1.0000 0.81690  0.07040  0.84610  Biso   1.000  H
  H157     1.0000 0.79380  0.05690  0.90340  Biso   1.000  H
  C78      1.0000 0.84520  0.16470  0.88320  Biso   1.000  C
  H158     1.0000 0.84080  0.16420  0.84590  Biso   1.000  H
  H159     1.0000 0.87070  0.20160  0.89440  Biso   1.000  H
  H160     1.0000 0.81030  0.15230  0.89980  Biso   1.000  H
  C79      1.0000 0.93440  0.30580  0.14360  Biso   1.000  C
  H161     1.0000 0.90590  0.26910  0.13330  Biso   1.000  H
  H162     1.0000 0.91670  0.32400  0.16020  Biso   1.000  H
  C80      1.0000 0.97240  0.30160  0.18110  Biso   1.000  C
  H163     1.0000 0.95180  0.28050  0.21140  Biso   1.000  H
  H164     1.0000 0.98900  0.28220  0.16480  Biso   1.000  H
  C81      1.0000 0.04340  0.38540  0.15220  Biso   1.000  C
  H165     1.0000 0.06200  0.36800  0.13560  Biso   1.000  H
  H166     1.0000 0.07120  0.42230  0.16260  Biso   1.000  H
  C82      1.0000 0.00520  0.38860  0.11440  Biso   1.000  C
  H167     1.0000 0.98860  0.40830  0.13020  Biso   1.000  H
  H168     1.0000 0.02570  0.40920  0.08380  Biso   1.000  H
  C83      1.0000 0.99030  0.46140  0.92260  Biso   1.000  C
  H169     1.0000 0.00800  0.48270  0.89190  Biso   1.000  H
  H170     1.0000 0.99460  0.42950  0.92360  Biso   1.000  H
  H171     1.0000 0.00690  0.48350  0.95320  Biso   1.000  H
  C84      1.0000 0.87090  0.38680  0.03640  Biso   1.000  C
  H172     1.0000 0.83930  0.38240  0.05510  Biso   1.000  H
  H173     1.0000 0.90340  0.40770  0.05720  Biso   1.000  H
  H174     1.0000 0.86650  0.35120  0.02900  Biso   1.000  H
  O15      1.0000 0.92610  0.41310  0.97260  Biso   1.000  O
  C85      1.0000 0.92890  0.44330  0.92130  Biso   1.000  C
  H175     1.0000 0.90870  0.41920  0.89240  Biso   1.000  H
  H176     1.0000 0.92090  0.47300  0.92510  Biso   1.000  H
  C86      1.0000 0.87660  0.41710  0.98520  Biso   1.000  C
  H177     1.0000 0.84620  0.39700  0.96130  Biso   1.000  H
  H178     1.0000 0.88420  0.45460  0.98990  Biso   1.000  H
  C87      1.0000 0.96800  0.48300  0.96400  Biso   1.000  C
  C88      1.0000 0.90750  0.44540  0.01900  Biso   1.000  C
  Cs8      1.0000 0.94487  0.29117  0.97953  Biso   1.000  Cs
  H179     1.0000 0.01900  0.49150  0.90320  Biso   1.000  H
  H180     1.0000 0.96100  0.43800  0.89930  Biso   1.000  H
  H181     1.0000 0.00490  0.44060  0.93890  Biso   1.000  H
  H182     1.0000 0.94170  0.49330  0.95130  Biso   1.000  H
  H183     1.0000 0.99700  0.51380  0.98440  Biso   1.000  H
  H184     1.0000 0.92610  0.47070  0.04800  Biso   1.000  H
  H185     1.0000 0.88950  0.45930  0.99660  Biso   1.000  H
  H186     1.0000 0.84280  0.38470  0.05930  Biso   1.000  H
  H187     1.0000 0.89250  0.37410  0.05450  Biso   1.000  H
  H188     1.0000 0.85410  0.36410  0.00620  Biso   1.000  H
  O16      1.0000 0.94330  0.42820  0.99070  Biso   1.000  O
  Cs9      1.0000 0.61176  0.65108  0.31411  Biso   1.000  Cs
  P13      1.0000 0.47905  0.53059  0.33753  Biso   1.000  P
  O17      1.0000 0.63017  0.66913  0.43228  Biso   1.000  O
  C89      1.0000 0.47497  0.46783  0.33293  Biso   1.000  C
  P14      1.0000 0.41111  0.40799  0.32825  Biso   1.000  P
  O18      1.0000 0.68097  0.68783  0.53064  Biso   1.000  O
  C90      1.0000 0.41087  0.51233  0.33703  Biso   1.000  C
  P15      1.0000 0.36050  0.44213  0.33346  Biso   1.000  P
  C91      1.0000 0.52837  0.46213  0.33273  Biso   1.000  C
  C92      1.0000 0.54877  0.45853  0.28993  Biso   1.000  C
  H189     1.0000 0.57977  0.45503  0.29483  Biso   1.000  H
  C93      1.0000 0.55077  0.45813  0.38653  Biso   1.000  C
  C94      1.0000 0.59937  0.45053  0.38513  Biso   1.000  C
  H190     1.0000 0.61817  0.46133  0.41823  Biso   1.000  H
  H191     1.0000 0.62397  0.47303  0.35793  Biso   1.000  H
  H192     1.0000 0.58767  0.41263  0.37853  Biso   1.000  H
  C95      1.0000 0.50897  0.40813  0.41263  Biso   1.000  C
  H193     1.0000 0.52597  0.38873  0.42713  Biso   1.000  H
  H194     1.0000 0.48147  0.38513  0.38773  Biso   1.000  H
  H195     1.0000 0.49217  0.41803  0.44013  Biso   1.000  H
  C96      1.0000 0.57367  0.51033  0.41263  Biso   1.000  C
  H196     1.0000 0.59177  0.50933  0.44413  Biso   1.000  H
  H197     1.0000 0.54467  0.51783  0.42123  Biso   1.000  H
  H198     1.0000 0.59977  0.53883  0.39003  Biso   1.000  H
  C97      1.0000 0.53497  0.45863  0.23213  Biso   1.000  C
  C98      1.0000 0.58657  0.48013  0.20203  Biso   1.000  C
  H199     1.0000 0.60217  0.45693  0.20743  Biso   1.000  H
  H200     1.0000 0.61217  0.51693  0.21353  Biso   1.000  H
  H201     1.0000 0.57897  0.48073  0.16553  Biso   1.000  H
  C99      1.0000 0.49287  0.40283  0.21543  Biso   1.000  C
  H202     1.0000 0.50707  0.37823  0.21943  Biso   1.000  H
  H203     1.0000 0.48357  0.40373  0.17943  Biso   1.000  H
  H204     1.0000 0.46047  0.39023  0.23673  Biso   1.000  H
  C100     1.0000 0.51187  0.49803  0.21653  Biso   1.000  C
  H205     1.0000 0.50747  0.49753  0.17923  Biso   1.000  H
  H206     1.0000 0.53737  0.53493  0.22773  Biso   1.000  H
  H207     1.0000 0.47697  0.48563  0.23313  Biso   1.000  H
  C101     1.0000 0.60107  0.63913  0.47693  Biso   1.000  C
  H208     1.0000 0.57257  0.60243  0.46663  Biso   1.000  H
  H209     1.0000 0.58337  0.65733  0.49353  Biso   1.000  H
  C102     1.0000 0.63907  0.63493  0.51443  Biso   1.000  C
  H210     1.0000 0.61847  0.61383  0.54473  Biso   1.000  H
  H211     1.0000 0.65567  0.61553  0.49813  Biso   1.000  H
  C103     1.0000 0.71007  0.71873  0.48553  Biso   1.000  C
  H212     1.0000 0.72867  0.70133  0.46893  Biso   1.000  H
  H213     1.0000 0.73787  0.75563  0.49593  Biso   1.000  H
  C104     1.0000 0.67187  0.72193  0.44773  Biso   1.000  C
  H214     1.0000 0.65527  0.74163  0.46353  Biso   1.000  H
  H215     1.0000 0.69237  0.74253  0.41713  Biso   1.000  H
  C105     1.0000 0.65697  0.79473  0.25593  Biso   1.000  C
  H216     1.0000 0.67467  0.81603  0.22523  Biso   1.000  H
  H217     1.0000 0.66127  0.76283  0.25693  Biso   1.000  H
  H218     1.0000 0.67357  0.81683  0.28653  Biso   1.000  H
  C106     1.0000 0.53757  0.72013  0.36973  Biso   1.000  C
  H219     1.0000 0.50597  0.71573  0.38843  Biso   1.000  H
  H220     1.0000 0.57007  0.74103  0.39053  Biso   1.000  H
  H221     1.0000 0.53317  0.68453  0.36233  Biso   1.000  H
  O19      1.0000 0.59277  0.74643  0.30593  Biso   1.000  O
  C107     1.0000 0.59557  0.77663  0.25463  Biso   1.000  C
  H222     1.0000 0.57537  0.75253  0.22573  Biso   1.000  H
  H223     1.0000 0.58757  0.80633  0.25843  Biso   1.000  H
  C108     1.0000 0.54327  0.75043  0.31853  Biso   1.000  C
  H224     1.0000 0.51287  0.73033  0.29463  Biso   1.000  H
  H225     1.0000 0.55087  0.78793  0.32323  Biso   1.000  H
  C109     1.0000 0.63467  0.81633  0.29733  Biso   1.000  C
  C110     1.0000 0.57417  0.77873  0.35233  Biso   1.000  C
  Cs10     1.0000 0.61154  0.62450  0.31286  Biso   1.000  Cs
  H226     1.0000 0.68567  0.82483  0.23653  Biso   1.000  H
  H227     1.0000 0.62767  0.77133  0.23263  Biso   1.000  H
  H228     1.0000 0.67157  0.77393  0.27223  Biso   1.000  H
  H229     1.0000 0.60837  0.82663  0.28463  Biso   1.000  H
  H230     1.0000 0.66367  0.84713  0.31773  Biso   1.000  H
  H231     1.0000 0.59277  0.80403  0.38133  Biso   1.000  H
  H232     1.0000 0.55617  0.79263  0.32993  Biso   1.000  H
  H233     1.0000 0.50947  0.71803  0.39263  Biso   1.000  H
  H234     1.0000 0.55917  0.70743  0.38783  Biso   1.000  H
  H235     1.0000 0.52077  0.69743  0.33953  Biso   1.000  H
  O20      1.0000 0.60997  0.76153  0.32403  Biso   1.000  O
  Cs11     1.0000 0.27843  0.98441  0.64745  Biso   1.000  Cs
  P16      1.0000 0.14571  0.86393  0.67087  Biso   1.000  P
  O21      1.0000 0.29683  0.00247  0.76562  Biso   1.000  O
  C111     1.0000 0.14163  0.80117  0.66627  Biso   1.000  C
  P17      1.0000 0.07777  0.74133  0.66159  Biso   1.000  P
  O22      1.0000 0.34763  0.02117  0.86398  Biso   1.000  O
  C112     1.0000 0.07753  0.84567  0.67037  Biso   1.000  C
  P18      1.0000 0.02716  0.77547  0.66680  Biso   1.000  P
  C113     1.0000 0.19503  0.79547  0.66607  Biso   1.000  C
  C114     1.0000 0.21543  0.79187  0.62327  Biso   1.000  C
  H236     1.0000 0.24643  0.78837  0.62817  Biso   1.000  H
  C115     1.0000 0.21743  0.79147  0.71987  Biso   1.000  C
  C116     1.0000 0.26603  0.78387  0.71847  Biso   1.000  C
  H237     1.0000 0.28483  0.79467  0.75157  Biso   1.000  H
  H238     1.0000 0.29063  0.80637  0.69127  Biso   1.000  H
  H239     1.0000 0.25433  0.74597  0.71187  Biso   1.000  H
  C117     1.0000 0.17563  0.74147  0.74597  Biso   1.000  C
  H240     1.0000 0.19263  0.72207  0.76047  Biso   1.000  H
  H241     1.0000 0.14813  0.71847  0.72107  Biso   1.000  H
  H242     1.0000 0.15883  0.75137  0.77347  Biso   1.000  H
  C118     1.0000 0.24033  0.84367  0.74597  Biso   1.000  C
  H243     1.0000 0.25843  0.84267  0.77747  Biso   1.000  H
  H244     1.0000 0.21133  0.85117  0.75457  Biso   1.000  H
  H245     1.0000 0.26643  0.87217  0.72337  Biso   1.000  H
  C119     1.0000 0.20163  0.79197  0.56547  Biso   1.000  C
  C120     1.0000 0.25323  0.81347  0.53537  Biso   1.000  C
  H246     1.0000 0.26883  0.79027  0.54077  Biso   1.000  H
  H247     1.0000 0.27883  0.85027  0.54687  Biso   1.000  H
  H248     1.0000 0.24563  0.81407  0.49887  Biso   1.000  H
  C121     1.0000 0.15953  0.73617  0.54877  Biso   1.000  C
  H249     1.0000 0.17373  0.71157  0.55277  Biso   1.000  H
  H250     1.0000 0.15023  0.73707  0.51277  Biso   1.000  H
  H251     1.0000 0.12713  0.72357  0.57007  Biso   1.000  H
  C122     1.0000 0.17853  0.83137  0.54987  Biso   1.000  C
  H252     1.0000 0.17413  0.83087  0.51257  Biso   1.000  H
  H253     1.0000 0.20403  0.86827  0.56107  Biso   1.000  H
  H254     1.0000 0.14363  0.81897  0.56647  Biso   1.000  H
  C123     1.0000 0.26773  0.97247  0.81027  Biso   1.000  C
  H255     1.0000 0.23923  0.93577  0.79997  Biso   1.000  H
  H256     1.0000 0.25003  0.99067  0.82687  Biso   1.000  H
  C124     1.0000 0.30573  0.96827  0.84777  Biso   1.000  C
  H257     1.0000 0.28513  0.94717  0.87807  Biso   1.000  H
  H258     1.0000 0.32233  0.94887  0.83147  Biso   1.000  H
  C125     1.0000 0.37673  0.05207  0.81887  Biso   1.000  C
  H259     1.0000 0.39533  0.03467  0.80227  Biso   1.000  H
  H260     1.0000 0.40453  0.08897  0.82927  Biso   1.000  H
  C126     1.0000 0.33853  0.05527  0.78107  Biso   1.000  C
  H261     1.0000 0.32193  0.07497  0.79687  Biso   1.000  H
  H262     1.0000 0.35903  0.07587  0.75047  Biso   1.000  H
  C127     1.0000 0.32363  0.12807  0.58927  Biso   1.000  C
  H263     1.0000 0.34133  0.14937  0.55857  Biso   1.000  H
  H264     1.0000 0.32793  0.09617  0.59027  Biso   1.000  H
  H265     1.0000 0.34023  0.15017  0.61987  Biso   1.000  H
  C128     1.0000 0.20423  0.05347  0.70307  Biso   1.000  C
  H266     1.0000 0.17263  0.04907  0.72177  Biso   1.000  H
  H267     1.0000 0.23673  0.07437  0.72387  Biso   1.000  H
  H268     1.0000 0.19983  0.01787  0.69567  Biso   1.000  H
  O23      1.0000 0.25943  0.07977  0.63927  Biso   1.000  O
  C129     1.0000 0.26223  0.10997  0.58797  Biso   1.000  C
  H269     1.0000 0.24203  0.08587  0.55907  Biso   1.000  H
  H270     1.0000 0.25423  0.13967  0.59177  Biso   1.000  H
  C130     1.0000 0.20993  0.08377  0.65187  Biso   1.000  C
  H271     1.0000 0.17953  0.06367  0.62797  Biso   1.000  H
  H272     1.0000 0.21753  0.12127  0.65657  Biso   1.000  H
  C131     1.0000 0.30133  0.14967  0.63067  Biso   1.000  C
  C132     1.0000 0.24083  0.11207  0.68567  Biso   1.000  C
  Cs12     1.0000 0.27820  0.95784  0.64620  Biso   1.000  Cs
  H273     1.0000 0.35233  0.15817  0.56987  Biso   1.000  H
  H274     1.0000 0.29433  0.10467  0.56597  Biso   1.000  H
  H275     1.0000 0.33823  0.10727  0.60557  Biso   1.000  H
  H276     1.0000 0.27503  0.15997  0.61797  Biso   1.000  H
  H277     1.0000 0.33033  0.18047  0.65107  Biso   1.000  H
  H278     1.0000 0.25943  0.13737  0.71467  Biso   1.000  H
  H279     1.0000 0.22283  0.12597  0.66327  Biso   1.000  H
  H280     1.0000 0.17613  0.05137  0.72597  Biso   1.000  H
  H281     1.0000 0.22583  0.04077  0.72117  Biso   1.000  H
  H282     1.0000 0.18743  0.03077  0.67287  Biso   1.000  H
  O24      1.0000 0.27663  0.09487  0.65737  Biso   1.000  O
  Cs13     1.0000 0.68226  0.62735  0.98078  Biso   1.000  Cs
  P19      1.0000 0.80274  0.61512  0.00420  Biso   1.000  P
  O25      1.0000 0.66420  0.62770  0.09895  Biso   1.000  O
  C133     1.0000 0.86550  0.67380  0.99960  Biso   1.000  C
  P20      1.0000 0.92534  0.66978  0.99492  Biso   1.000  P
  O26      1.0000 0.64550  0.65980  0.19731  Biso   1.000  O
  C134     1.0000 0.82100  0.56520  0.00370  Biso   1.000  C
  P21      1.0000 0.89120  0.58503  0.00013  Biso   1.000  P
  C135     1.0000 0.87120  0.73290  0.99940  Biso   1.000  C
  C136     1.0000 0.87480  0.75690  0.95660  Biso   1.000  C
  H283     1.0000 0.87830  0.79140  0.96150  Biso   1.000  H
  C137     1.0000 0.87520  0.75930  0.05320  Biso   1.000  C
  C138     1.0000 0.88280  0.81550  0.05180  Biso   1.000  C
  H284     1.0000 0.87200  0.82350  0.08490  Biso   1.000  H
  H285     1.0000 0.86030  0.81760  0.02460  Biso   1.000  H
  H286     1.0000 0.92070  0.84170  0.04520  Biso   1.000  H
  C139     1.0000 0.92520  0.76750  0.07930  Biso   1.000  C
  H287     1.0000 0.94460  0.80390  0.09380  Biso   1.000  H
  H288     1.0000 0.94820  0.76300  0.05440  Biso   1.000  H
  H289     1.0000 0.91530  0.74080  0.10680  Biso   1.000  H
  C140     1.0000 0.82300  0.73000  0.07930  Biso   1.000  C
  H290     1.0000 0.82400  0.74910  0.11080  Biso   1.000  H
  H291     1.0000 0.81550  0.69350  0.08790  Biso   1.000  H
  H292     1.0000 0.79450  0.72760  0.05670  Biso   1.000  H
  C141     1.0000 0.87470  0.74300  0.89880  Biso   1.000  C
  C142     1.0000 0.85320  0.77310  0.86870  Biso   1.000  C
  H293     1.0000 0.87640  0.81190  0.87410  Biso   1.000  H
  H294     1.0000 0.81640  0.76190  0.88020  Biso   1.000  H
  H295     1.0000 0.85260  0.76490  0.83220  Biso   1.000  H
  C143     1.0000 0.93050  0.75670  0.88210  Biso   1.000  C
  H296     1.0000 0.95510  0.79550  0.88610  Biso   1.000  H
  H297     1.0000 0.92960  0.74650  0.84610  Biso   1.000  H
  H298     1.0000 0.94310  0.73690  0.90340  Biso   1.000  H
  C144     1.0000 0.83530  0.68050  0.88320  Biso   1.000  C
  H299     1.0000 0.83580  0.67660  0.84590  Biso   1.000  H
  H300     1.0000 0.79840  0.66910  0.89440  Biso   1.000  H
  H301     1.0000 0.84770  0.65800  0.89980  Biso   1.000  H
  C145     1.0000 0.69420  0.62860  0.14360  Biso   1.000  C
  H302     1.0000 0.73090  0.63680  0.13330  Biso   1.000  H
  H303     1.0000 0.67600  0.59270  0.16020  Biso   1.000  H
  C146     1.0000 0.69840  0.67080  0.18110  Biso   1.000  C
  H304     1.0000 0.71950  0.67130  0.21140  Biso   1.000  H
  H305     1.0000 0.71780  0.70680  0.16480  Biso   1.000  H
  C147     1.0000 0.61460  0.65800  0.15220  Biso   1.000  C
  H306     1.0000 0.63200  0.69400  0.13560  Biso   1.000  H
  H307     1.0000 0.57770  0.64890  0.16260  Biso   1.000  H
  C148     1.0000 0.61140  0.61660  0.11440  Biso   1.000  C
  H308     1.0000 0.59170  0.58030  0.13020  Biso   1.000  H
  H309     1.0000 0.59080  0.61650  0.08380  Biso   1.000  H
  C149     1.0000 0.53860  0.52890  0.92260  Biso   1.000  C
  H310     1.0000 0.51730  0.52530  0.89190  Biso   1.000  H
  H311     1.0000 0.57050  0.56510  0.92360  Biso   1.000  H
  H312     1.0000 0.51650  0.52340  0.95320  Biso   1.000  H
  C150     1.0000 0.61320  0.48410  0.03640  Biso   1.000  C
  H313     1.0000 0.61760  0.45690  0.05510  Biso   1.000  H
  H314     1.0000 0.59230  0.49570  0.05720  Biso   1.000  H
  H315     1.0000 0.64880  0.51530  0.02900  Biso   1.000  H
  O27      1.0000 0.58690  0.51300  0.97260  Biso   1.000  O
  C151     1.0000 0.55670  0.48560  0.92130  Biso   1.000  C
  H316     1.0000 0.58080  0.48950  0.89240  Biso   1.000  H
  H317     1.0000 0.52700  0.44790  0.92510  Biso   1.000  H
  C152     1.0000 0.58290  0.45950  0.98520  Biso   1.000  C
  H318     1.0000 0.60300  0.44920  0.96130  Biso   1.000  H
  H319     1.0000 0.54540  0.42960  0.98990  Biso   1.000  H
  C153     1.0000 0.51700  0.48500  0.96400  Biso   1.000  C
  C154     1.0000 0.55460  0.46210  0.01900  Biso   1.000  C
  Cs14     1.0000 0.70883  0.65370  0.97953  Biso   1.000  Cs
  H320     1.0000 0.50850  0.52750  0.90320  Biso   1.000  H
  H321     1.0000 0.56200  0.52300  0.89930  Biso   1.000  H
  H322     1.0000 0.55940  0.56430  0.93890  Biso   1.000  H
  H323     1.0000 0.50670  0.44840  0.95130  Biso   1.000  H
  H324     1.0000 0.48620  0.48320  0.98440  Biso   1.000  H
  H325     1.0000 0.52930  0.45540  0.04800  Biso   1.000  H
  H326     1.0000 0.54070  0.43020  0.99660  Biso   1.000  H
  H327     1.0000 0.61530  0.45810  0.05930  Biso   1.000  H
  H328     1.0000 0.62590  0.51840  0.05450  Biso   1.000  H
  H329     1.0000 0.63590  0.49000  0.00620  Biso   1.000  H
  O28      1.0000 0.57180  0.51510  0.99070  Biso   1.000  O
  Cs15     1.0000 0.34892  0.96068  0.31411  Biso   1.000  Cs
  P22      1.0000 0.46941  0.94845  0.33753  Biso   1.000  P
  O29      1.0000 0.33087  0.96103  0.43228  Biso   1.000  O
  C155     1.0000 0.53217  0.00713  0.33293  Biso   1.000  C
  P23      1.0000 0.59201  0.00311  0.32825  Biso   1.000  P
  O30      1.0000 0.31217  0.99313  0.53064  Biso   1.000  O
  C156     1.0000 0.48767  0.89853  0.33703  Biso   1.000  C
  P24      1.0000 0.55787  0.91836  0.33346  Biso   1.000  P
  C157     1.0000 0.53787  0.06623  0.33273  Biso   1.000  C
  C158     1.0000 0.54147  0.09023  0.28993  Biso   1.000  C
  H330     1.0000 0.54497  0.12473  0.29483  Biso   1.000  H
  C159     1.0000 0.54187  0.09263  0.38653  Biso   1.000  C
  C160     1.0000 0.54947  0.14883  0.38513  Biso   1.000  C
  H331     1.0000 0.53867  0.15683  0.41823  Biso   1.000  H
  H332     1.0000 0.52697  0.15093  0.35793  Biso   1.000  H
  H333     1.0000 0.58737  0.17503  0.37853  Biso   1.000  H
  C161     1.0000 0.59187  0.10083  0.41263  Biso   1.000  C
  H334     1.0000 0.61127  0.13723  0.42713  Biso   1.000  H
  H335     1.0000 0.61487  0.09633  0.38773  Biso   1.000  H
  H336     1.0000 0.58197  0.07413  0.44013  Biso   1.000  H
  C162     1.0000 0.48967  0.06333  0.41263  Biso   1.000  C
  H337     1.0000 0.49067  0.08243  0.44413  Biso   1.000  H
  H338     1.0000 0.48217  0.02683  0.42123  Biso   1.000  H
  H339     1.0000 0.46117  0.06093  0.39003  Biso   1.000  H
  C163     1.0000 0.54137  0.07633  0.23213  Biso   1.000  C
  C164     1.0000 0.51987  0.10643  0.20203  Biso   1.000  C
  H340     1.0000 0.54307  0.14523  0.20743  Biso   1.000  H
  H341     1.0000 0.48307  0.09523  0.21353  Biso   1.000  H
  H342     1.0000 0.51927  0.09823  0.16553  Biso   1.000  H
  C165     1.0000 0.59717  0.09003  0.21543  Biso   1.000  C
  H343     1.0000 0.62177  0.12883  0.21943  Biso   1.000  H
  H344     1.0000 0.59627  0.07983  0.17943  Biso   1.000  H
  H345     1.0000 0.60977  0.07023  0.23673  Biso   1.000  H
  C166     1.0000 0.50197  0.01383  0.21653  Biso   1.000  C
  H346     1.0000 0.50247  0.00993  0.17923  Biso   1.000  H
  H347     1.0000 0.46507  0.00243  0.22773  Biso   1.000  H
  H348     1.0000 0.51437  0.99133  0.23313  Biso   1.000  H
  C167     1.0000 0.36087  0.96193  0.47693  Biso   1.000  C
  H349     1.0000 0.39757  0.97013  0.46663  Biso   1.000  H
  H350     1.0000 0.34267  0.92603  0.49353  Biso   1.000  H
  C168     1.0000 0.36507  0.00413  0.51443  Biso   1.000  C
  H351     1.0000 0.38617  0.00463  0.54473  Biso   1.000  H
  H352     1.0000 0.38447  0.04013  0.49813  Biso   1.000  H
  C169     1.0000 0.28127  0.99133  0.48553  Biso   1.000  C
  H353     1.0000 0.29867  0.02733  0.46893  Biso   1.000  H
  H354     1.0000 0.24437  0.98223  0.49593  Biso   1.000  H
  C170     1.0000 0.27807  0.94993  0.44773  Biso   1.000  C
  H355     1.0000 0.25837  0.91363  0.46353  Biso   1.000  H
  H356     1.0000 0.25747  0.94983  0.41713  Biso   1.000  H
  C171     1.0000 0.20527  0.86223  0.25593  Biso   1.000  C
  H357     1.0000 0.18397  0.85863  0.22523  Biso   1.000  H
  H358     1.0000 0.23717  0.89843  0.25693  Biso   1.000  H
  H359     1.0000 0.18317  0.85673  0.28653  Biso   1.000  H
  C172     1.0000 0.27987  0.81743  0.36973  Biso   1.000  C
  H360     1.0000 0.28427  0.79023  0.38843  Biso   1.000  H
  H361     1.0000 0.25897  0.82903  0.39053  Biso   1.000  H
  H362     1.0000 0.31547  0.84863  0.36233  Biso   1.000  H
  O31      1.0000 0.25357  0.84633  0.30593  Biso   1.000  O
  C173     1.0000 0.22337  0.81893  0.25463  Biso   1.000  C
  H363     1.0000 0.24747  0.82283  0.22573  Biso   1.000  H
  H364     1.0000 0.19367  0.78123  0.25843  Biso   1.000  H
  C174     1.0000 0.24957  0.79283  0.31853  Biso   1.000  C
  H365     1.0000 0.26967  0.78253  0.29463  Biso   1.000  H
  H366     1.0000 0.21207  0.76293  0.32323  Biso   1.000  H
  C175     1.0000 0.18367  0.81833  0.29733  Biso   1.000  C
  C176     1.0000 0.22127  0.79543  0.35233  Biso   1.000  C
  Cs16     1.0000 0.37550  0.98703  0.31286  Biso   1.000  Cs
  H367     1.0000 0.17517  0.86083  0.23653  Biso   1.000  H
  H368     1.0000 0.22867  0.85633  0.23263  Biso   1.000  H
  H369     1.0000 0.22607  0.89763  0.27223  Biso   1.000  H
  H370     1.0000 0.17337  0.78173  0.28463  Biso   1.000  H
  H371     1.0000 0.15287  0.81653  0.31773  Biso   1.000  H
  H372     1.0000 0.19597  0.78873  0.38133  Biso   1.000  H
  H373     1.0000 0.20737  0.76353  0.32993  Biso   1.000  H
  H374     1.0000 0.28197  0.79143  0.39263  Biso   1.000  H
  H375     1.0000 0.29257  0.85173  0.38783  Biso   1.000  H
  H376     1.0000 0.30257  0.82333  0.33953  Biso   1.000  H
  O32      1.0000 0.23847  0.84843  0.32403  Biso   1.000  O
  Cs17     1.0000 0.01559  0.29402  0.64745  Biso   1.000  Cs
  P25      1.0000 0.13607  0.28179  0.67087  Biso   1.000  P
  O33      1.0000 0.99753  0.29437  0.76562  Biso   1.000  O
  C177     1.0000 0.19883  0.34047  0.66627  Biso   1.000  C
  P26      1.0000 0.25867  0.33645  0.66159  Biso   1.000  P
  O34      1.0000 0.97883  0.32647  0.86398  Biso   1.000  O
  C178     1.0000 0.15433  0.23187  0.67037  Biso   1.000  C
  P27      1.0000 0.22453  0.25170  0.66680  Biso   1.000  P
  C179     1.0000 0.20453  0.39957  0.66607  Biso   1.000  C
  C180     1.0000 0.20813  0.42357  0.62327  Biso   1.000  C
  H377     1.0000 0.21163  0.45807  0.62817  Biso   1.000  H
  C181     1.0000 0.20853  0.42597  0.71987  Biso   1.000  C
  C182     1.0000 0.21613  0.48217  0.71847  Biso   1.000  C
  H378     1.0000 0.20533  0.49017  0.75157  Biso   1.000  H
  H379     1.0000 0.19363  0.48427  0.69127  Biso   1.000  H
  H380     1.0000 0.25403  0.50837  0.71187  Biso   1.000  H
  C183     1.0000 0.25853  0.43417  0.74597  Biso   1.000  C
  H381     1.0000 0.27793  0.47057  0.76047  Biso   1.000  H
  H382     1.0000 0.28153  0.42967  0.72107  Biso   1.000  H
  H383     1.0000 0.24863  0.40747  0.77347  Biso   1.000  H
  C184     1.0000 0.15633  0.39667  0.74597  Biso   1.000  C
  H384     1.0000 0.15733  0.41577  0.77747  Biso   1.000  H
  H385     1.0000 0.14883  0.36017  0.75457  Biso   1.000  H
  H386     1.0000 0.12783  0.39427  0.72337  Biso   1.000  H
  C185     1.0000 0.20803  0.40967  0.56547  Biso   1.000  C
  C186     1.0000 0.18653  0.43977  0.53537  Biso   1.000  C
  H387     1.0000 0.20973  0.47857  0.54077  Biso   1.000  H
  H388     1.0000 0.14973  0.42857  0.54687  Biso   1.000  H
  H389     1.0000 0.18593  0.43157  0.49887  Biso   1.000  H
  C187     1.0000 0.26383  0.42337  0.54877  Biso   1.000  C
  H390     1.0000 0.28843  0.46217  0.55277  Biso   1.000  H
  H391     1.0000 0.26293  0.41317  0.51277  Biso   1.000  H
  H392     1.0000 0.27643  0.40357  0.57007  Biso   1.000  H
  C188     1.0000 0.16863  0.34717  0.54987  Biso   1.000  C
  H393     1.0000 0.16913  0.34327  0.51257  Biso   1.000  H
  H394     1.0000 0.13173  0.33577  0.56107  Biso   1.000  H
  H395     1.0000 0.18103  0.32467  0.56647  Biso   1.000  H
  C189     1.0000 0.02753  0.29527  0.81027  Biso   1.000  C
  H396     1.0000 0.06423  0.30347  0.79997  Biso   1.000  H
  H397     1.0000 0.00933  0.25937  0.82687  Biso   1.000  H
  C190     1.0000 0.03173  0.33747  0.84777  Biso   1.000  C
  H398     1.0000 0.05283  0.33797  0.87807  Biso   1.000  H
  H399     1.0000 0.05113  0.37347  0.83147  Biso   1.000  H
  C191     1.0000 0.94793  0.32467  0.81887  Biso   1.000  C
  H400     1.0000 0.96533  0.36067  0.80227  Biso   1.000  H
  H401     1.0000 0.91103  0.31557  0.82927  Biso   1.000  H
  C192     1.0000 0.94473  0.28327  0.78107  Biso   1.000  C
  H402     1.0000 0.92503  0.24697  0.79687  Biso   1.000  H
  H403     1.0000 0.92413  0.28317  0.75047  Biso   1.000  H
  C193     1.0000 0.87193  0.19557  0.58927  Biso   1.000  C
  H404     1.0000 0.85063  0.19197  0.55857  Biso   1.000  H
  H405     1.0000 0.90383  0.23177  0.59027  Biso   1.000  H
  H406     1.0000 0.84983  0.19007  0.61987  Biso   1.000  H
  C194     1.0000 0.94653  0.15077  0.70307  Biso   1.000  C
  H407     1.0000 0.95093  0.12357  0.72177  Biso   1.000  H
  H408     1.0000 0.92563  0.16237  0.72387  Biso   1.000  H
  H409     1.0000 0.98213  0.18197  0.69567  Biso   1.000  H
  O35      1.0000 0.92023  0.17967  0.63927  Biso   1.000  O
  C195     1.0000 0.89003  0.15227  0.58797  Biso   1.000  C
  H410     1.0000 0.91413  0.15617  0.55907  Biso   1.000  H
  H411     1.0000 0.86033  0.11457  0.59177  Biso   1.000  H
  C196     1.0000 0.91623  0.12617  0.65187  Biso   1.000  C
  H412     1.0000 0.93633  0.11587  0.62797  Biso   1.000  H
  H413     1.0000 0.87873  0.09627  0.65657  Biso   1.000  H
  C197     1.0000 0.85033  0.15167  0.63067  Biso   1.000  C
  C198     1.0000 0.88793  0.12877  0.68567  Biso   1.000  C
  Cs18     1.0000 0.04216  0.32037  0.64620  Biso   1.000  Cs
  H414     1.0000 0.84183  0.19417  0.56987  Biso   1.000  H
  H415     1.0000 0.89533  0.18967  0.56597  Biso   1.000  H
  H416     1.0000 0.89273  0.23097  0.60557  Biso   1.000  H
  H417     1.0000 0.84003  0.11507  0.61797  Biso   1.000  H
  H418     1.0000 0.81953  0.14987  0.65107  Biso   1.000  H
  H419     1.0000 0.86263  0.12207  0.71467  Biso   1.000  H
  H420     1.0000 0.87403  0.09687  0.66327  Biso   1.000  H
  H421     1.0000 0.94863  0.12477  0.72597  Biso   1.000  H
  H422     1.0000 0.95923  0.18507  0.72117  Biso   1.000  H
  H423     1.0000 0.96923  0.15667  0.67287  Biso   1.000  H
  O36      1.0000 0.90513  0.18177  0.65737  Biso   1.000  O
  Cs19     1.0000 0.62735  0.94509  0.01922  Biso   1.000  Cs
  P28      1.0000 0.61512  0.81238  0.99580  Biso   1.000  P
  O37      1.0000 0.62770  0.96350  0.90105  Biso   1.000  O
  C199     1.0000 0.67380  0.80830  0.00040  Biso   1.000  C
  P29      1.0000 0.66978  0.74444  0.00508  Biso   1.000  P
  O38      1.0000 0.65980  0.01430  0.80269  Biso   1.000  O
  C200     1.0000 0.56520  0.74420  0.99630  Biso   1.000  C
  P30      1.0000 0.58503  0.69383  0.99987  Biso   1.000  P
  C201     1.0000 0.73290  0.86170  0.00060  Biso   1.000  C
  C202     1.0000 0.75690  0.88210  0.04340  Biso   1.000  C
  H424     1.0000 0.79140  0.91310  0.03850  Biso   1.000  H
  C203     1.0000 0.75930  0.88410  0.94680  Biso   1.000  C
  C204     1.0000 0.81550  0.93270  0.94820  Biso   1.000  C
  H425     1.0000 0.82350  0.95150  0.91510  Biso   1.000  H
  H426     1.0000 0.81760  0.95730  0.97540  Biso   1.000  H
  H427     1.0000 0.84170  0.92100  0.95480  Biso   1.000  H
  C205     1.0000 0.76750  0.84230  0.92070  Biso   1.000  C
  H428     1.0000 0.80390  0.85930  0.90620  Biso   1.000  H
  H429     1.0000 0.76300  0.81480  0.94560  Biso   1.000  H
  H430     1.0000 0.74080  0.82550  0.89320  Biso   1.000  H
  C206     1.0000 0.73000  0.90700  0.92070  Biso   1.000  C
  H431     1.0000 0.74910  0.92510  0.88920  Biso   1.000  H
  H432     1.0000 0.69350  0.87800  0.91210  Biso   1.000  H
  H433     1.0000 0.72760  0.93310  0.94330  Biso   1.000  H
  C207     1.0000 0.74300  0.86830  0.10120  Biso   1.000  C
  C208     1.0000 0.77310  0.91990  0.13130  Biso   1.000  C
  H434     1.0000 0.81190  0.93550  0.12590  Biso   1.000  H
  H435     1.0000 0.76190  0.94550  0.11980  Biso   1.000  H
  H436     1.0000 0.76490  0.91230  0.16780  Biso   1.000  H
  C209     1.0000 0.75670  0.82620  0.11790  Biso   1.000  C
  H437     1.0000 0.79550  0.84040  0.11390  Biso   1.000  H
  H438     1.0000 0.74650  0.81690  0.15390  Biso   1.000  H
  H439     1.0000 0.73690  0.79380  0.09660  Biso   1.000  H
  C210     1.0000 0.68050  0.84520  0.11680  Biso   1.000  C
  H440     1.0000 0.67660  0.84080  0.15410  Biso   1.000  H
  H441     1.0000 0.66910  0.87070  0.10560  Biso   1.000  H
  H442     1.0000 0.65800  0.81030  0.10020  Biso   1.000  H
  C211     1.0000 0.62860  0.93440  0.85640  Biso   1.000  C
  H443     1.0000 0.63680  0.90590  0.86670  Biso   1.000  H
  H444     1.0000 0.59270  0.91670  0.83980  Biso   1.000  H
  C212     1.0000 0.67080  0.97240  0.81890  Biso   1.000  C
  H445     1.0000 0.67130  0.95180  0.78860  Biso   1.000  H
  H446     1.0000 0.70680  0.98900  0.83520  Biso   1.000  H
  C213     1.0000 0.65800  0.04340  0.84780  Biso   1.000  C
  H447     1.0000 0.69400  0.06200  0.86440  Biso   1.000  H
  H448     1.0000 0.64890  0.07120  0.83740  Biso   1.000  H
  C214     1.0000 0.61660  0.00520  0.88560  Biso   1.000  C
  H449     1.0000 0.58030  0.98860  0.86980  Biso   1.000  H
  H450     1.0000 0.61650  0.02570  0.91620  Biso   1.000  H
  C215     1.0000 0.52890  0.99030  0.07740  Biso   1.000  C
  H451     1.0000 0.52530  0.00800  0.10810  Biso   1.000  H
  H452     1.0000 0.56510  0.99460  0.07640  Biso   1.000  H
  H453     1.0000 0.52340  0.00690  0.04680  Biso   1.000  H
  C216     1.0000 0.48410  0.87090  0.96360  Biso   1.000  C
  H454     1.0000 0.45690  0.83930  0.94490  Biso   1.000  H
  H455     1.0000 0.49570  0.90340  0.94280  Biso   1.000  H
  H456     1.0000 0.51530  0.86650  0.97100  Biso   1.000  H
  O39      1.0000 0.51300  0.92610  0.02740  Biso   1.000  O
  C217     1.0000 0.48560  0.92890  0.07870  Biso   1.000  C
  H457     1.0000 0.48950  0.90870  0.10760  Biso   1.000  H
  H458     1.0000 0.44790  0.92090  0.07490  Biso   1.000  H
  C218     1.0000 0.45950  0.87660  0.01480  Biso   1.000  C
  H459     1.0000 0.44920  0.84620  0.03870  Biso   1.000  H
  H460     1.0000 0.42960  0.88420  0.01010  Biso   1.000  H
  C219     1.0000 0.48500  0.96800  0.03600  Biso   1.000  C
  C220     1.0000 0.46210  0.90750  0.98100  Biso   1.000  C
  Cs20     1.0000 0.65370  0.94487  0.02047  Biso   1.000  Cs
  H461     1.0000 0.52750  0.01900  0.09680  Biso   1.000  H
  H462     1.0000 0.52300  0.96100  0.10070  Biso   1.000  H
  H463     1.0000 0.56430  0.00490  0.06110  Biso   1.000  H
  H464     1.0000 0.44840  0.94170  0.04870  Biso   1.000  H
  H465     1.0000 0.48320  0.99700  0.01560  Biso   1.000  H
  H466     1.0000 0.45540  0.92610  0.95200  Biso   1.000  H
  H467     1.0000 0.43020  0.88950  0.00340  Biso   1.000  H
  H468     1.0000 0.45810  0.84280  0.94070  Biso   1.000  H
  H469     1.0000 0.51840  0.89250  0.94550  Biso   1.000  H
  H470     1.0000 0.49000  0.85410  0.99380  Biso   1.000  H
  O40      1.0000 0.51510  0.94330  0.00930  Biso   1.000  O
  Cs21     1.0000 0.29402  0.27843  0.35255  Biso   1.000  Cs
  P31      1.0000 0.28179  0.14571  0.32913  Biso   1.000  P
  O41      1.0000 0.29437  0.29683  0.23438  Biso   1.000  O
  C221     1.0000 0.34047  0.14163  0.33373  Biso   1.000  C
  P32      1.0000 0.33645  0.07777  0.33841  Biso   1.000  P
  O42      1.0000 0.32647  0.34763  0.13602  Biso   1.000  O
  C222     1.0000 0.23187  0.07753  0.32963  Biso   1.000  C
  P33      1.0000 0.25170  0.02716  0.33320  Biso   1.000  P
  C223     1.0000 0.39957  0.19503  0.33393  Biso   1.000  C
  C224     1.0000 0.42357  0.21543  0.37673  Biso   1.000  C
  H471     1.0000 0.45807  0.24643  0.37183  Biso   1.000  H
  C225     1.0000 0.42597  0.21743  0.28013  Biso   1.000  C
  C226     1.0000 0.48217  0.26603  0.28153  Biso   1.000  C
  H472     1.0000 0.49017  0.28483  0.24843  Biso   1.000  H
  H473     1.0000 0.48427  0.29063  0.30873  Biso   1.000  H
  H474     1.0000 0.50837  0.25433  0.28813  Biso   1.000  H
  C227     1.0000 0.43417  0.17563  0.25403  Biso   1.000  C
  H475     1.0000 0.47057  0.19263  0.23953  Biso   1.000  H
  H476     1.0000 0.42967  0.14813  0.27893  Biso   1.000  H
  H477     1.0000 0.40747  0.15883  0.22653  Biso   1.000  H
  C228     1.0000 0.39667  0.24033  0.25403  Biso   1.000  C
  H478     1.0000 0.41577  0.25843  0.22253  Biso   1.000  H
  H479     1.0000 0.36017  0.21133  0.24543  Biso   1.000  H
  H480     1.0000 0.39427  0.26643  0.27663  Biso   1.000  H
  C229     1.0000 0.40967  0.20163  0.43453  Biso   1.000  C
  C230     1.0000 0.43977  0.25323  0.46463  Biso   1.000  C
  H481     1.0000 0.47857  0.26883  0.45923  Biso   1.000  H
  H482     1.0000 0.42857  0.27883  0.45313  Biso   1.000  H
  H483     1.0000 0.43157  0.24563  0.50113  Biso   1.000  H
  C231     1.0000 0.42337  0.15953  0.45123  Biso   1.000  C
  H484     1.0000 0.46217  0.17373  0.44723  Biso   1.000  H
  H485     1.0000 0.41317  0.15023  0.48723  Biso   1.000  H
  H486     1.0000 0.40357  0.12713  0.42993  Biso   1.000  H
  C232     1.0000 0.34717  0.17853  0.45013  Biso   1.000  C
  H487     1.0000 0.34327  0.17413  0.48743  Biso   1.000  H
  H488     1.0000 0.33577  0.20403  0.43893  Biso   1.000  H
  H489     1.0000 0.32467  0.14363  0.43353  Biso   1.000  H
  C233     1.0000 0.29527  0.26773  0.18973  Biso   1.000  C
  H490     1.0000 0.30347  0.23923  0.20003  Biso   1.000  H
  H491     1.0000 0.25937  0.25003  0.17313  Biso   1.000  H
  C234     1.0000 0.33747  0.30573  0.15223  Biso   1.000  C
  H492     1.0000 0.33797  0.28513  0.12193  Biso   1.000  H
  H493     1.0000 0.37347  0.32233  0.16853  Biso   1.000  H
  C235     1.0000 0.32467  0.37673  0.18113  Biso   1.000  C
  H494     1.0000 0.36067  0.39533  0.19773  Biso   1.000  H
  H495     1.0000 0.31557  0.40453  0.17073  Biso   1.000  H
  C236     1.0000 0.28327  0.33853  0.21893  Biso   1.000  C
  H496     1.0000 0.24697  0.32193  0.20313  Biso   1.000  H
  H497     1.0000 0.28317  0.35903  0.24953  Biso   1.000  H
  C237     1.0000 0.19557  0.32363  0.41073  Biso   1.000  C
  H498     1.0000 0.19197  0.34133  0.44143  Biso   1.000  H
  H499     1.0000 0.23177  0.32793  0.40973  Biso   1.000  H
  H500     1.0000 0.19007  0.34023  0.38013  Biso   1.000  H
  C238     1.0000 0.15077  0.20423  0.29693  Biso   1.000  C
  H501     1.0000 0.12357  0.17263  0.27823  Biso   1.000  H
  H502     1.0000 0.16237  0.23673  0.27613  Biso   1.000  H
  H503     1.0000 0.18197  0.19983  0.30433  Biso   1.000  H
  O43      1.0000 0.17967  0.25943  0.36073  Biso   1.000  O
  C239     1.0000 0.15227  0.26223  0.41203  Biso   1.000  C
  H504     1.0000 0.15617  0.24203  0.44093  Biso   1.000  H
  H505     1.0000 0.11457  0.25423  0.40823  Biso   1.000  H
  C240     1.0000 0.12617  0.20993  0.34813  Biso   1.000  C
  H506     1.0000 0.11587  0.17953  0.37203  Biso   1.000  H
  H507     1.0000 0.09627  0.21753  0.34343  Biso   1.000  H
  C241     1.0000 0.15167  0.30133  0.36933  Biso   1.000  C
  C242     1.0000 0.12877  0.24083  0.31433  Biso   1.000  C
  Cs22     1.0000 0.32037  0.27820  0.35380  Biso   1.000  Cs
  H508     1.0000 0.19417  0.35233  0.43013  Biso   1.000  H
  H509     1.0000 0.18967  0.29433  0.43403  Biso   1.000  H
  H510     1.0000 0.23097  0.33823  0.39443  Biso   1.000  H
  H511     1.0000 0.11507  0.27503  0.38203  Biso   1.000  H
  H512     1.0000 0.14987  0.33033  0.34893  Biso   1.000  H
  H513     1.0000 0.12207  0.25943  0.28533  Biso   1.000  H
  H514     1.0000 0.09687  0.22283  0.33673  Biso   1.000  H
  H515     1.0000 0.12477  0.17613  0.27403  Biso   1.000  H
  H516     1.0000 0.18507  0.22583  0.27883  Biso   1.000  H
  H517     1.0000 0.15667  0.18743  0.32713  Biso   1.000  H
  O44      1.0000 0.18177  0.27663  0.34263  Biso   1.000  O
  Cs23     1.0000 0.96068  0.61176  0.68589  Biso   1.000  Cs
  P34      1.0000 0.94845  0.47905  0.66247  Biso   1.000  P
  O45      1.0000 0.96103  0.63017  0.56772  Biso   1.000  O
  C243     1.0000 0.00713  0.47497  0.66707  Biso   1.000  C
  P35      1.0000 0.00311  0.41111  0.67175  Biso   1.000  P
  O46      1.0000 0.99313  0.68097  0.46936  Biso   1.000  O
  C244     1.0000 0.89853  0.41087  0.66297  Biso   1.000  C
  P36      1.0000 0.91836  0.36050  0.66654  Biso   1.000  P
  C245     1.0000 0.06623  0.52837  0.66727  Biso   1.000  C
  C246     1.0000 0.09023  0.54877  0.71007  Biso   1.000  C
  H518     1.0000 0.12473  0.57977  0.70517  Biso   1.000  H
  C247     1.0000 0.09263  0.55077  0.61347  Biso   1.000  C
  C248     1.0000 0.14883  0.59937  0.61487  Biso   1.000  C
  H519     1.0000 0.15683  0.61817  0.58177  Biso   1.000  H
  H520     1.0000 0.15093  0.62397  0.64207  Biso   1.000  H
  H521     1.0000 0.17503  0.58767  0.62147  Biso   1.000  H
  C249     1.0000 0.10083  0.50897  0.58737  Biso   1.000  C
  H522     1.0000 0.13723  0.52597  0.57287  Biso   1.000  H
  H523     1.0000 0.09633  0.48147  0.61227  Biso   1.000  H
  H524     1.0000 0.07413  0.49217  0.55987  Biso   1.000  H
  C250     1.0000 0.06333  0.57367  0.58737  Biso   1.000  C
  H525     1.0000 0.08243  0.59177  0.55587  Biso   1.000  H
  H526     1.0000 0.02683  0.54467  0.57877  Biso   1.000  H
  H527     1.0000 0.06093  0.59977  0.60997  Biso   1.000  H
  C251     1.0000 0.07633  0.53497  0.76787  Biso   1.000  C
  C252     1.0000 0.10643  0.58657  0.79797  Biso   1.000  C
  H528     1.0000 0.14523  0.60217  0.79257  Biso   1.000  H
  H529     1.0000 0.09523  0.61217  0.78647  Biso   1.000  H
  H530     1.0000 0.09823  0.57897  0.83447  Biso   1.000  H
  C253     1.0000 0.09003  0.49287  0.78457  Biso   1.000  C
  H531     1.0000 0.12883  0.50707  0.78057  Biso   1.000  H
  H532     1.0000 0.07983  0.48357  0.82057  Biso   1.000  H
  H533     1.0000 0.07023  0.46047  0.76327  Biso   1.000  H
  C254     1.0000 0.01383  0.51187  0.78347  Biso   1.000  C
  H534     1.0000 0.00993  0.50747  0.82077  Biso   1.000  H
  H535     1.0000 0.00243  0.53737  0.77227  Biso   1.000  H
  H536     1.0000 0.99133  0.47697  0.76687  Biso   1.000  H
  C255     1.0000 0.96193  0.60107  0.52307  Biso   1.000  C
  H537     1.0000 0.97013  0.57257  0.53337  Biso   1.000  H
  H538     1.0000 0.92603  0.58337  0.50647  Biso   1.000  H
  C256     1.0000 0.00413  0.63907  0.48557  Biso   1.000  C
  H539     1.0000 0.00463  0.61847  0.45527  Biso   1.000  H
  H540     1.0000 0.04013  0.65567  0.50187  Biso   1.000  H
  C257     1.0000 0.99133  0.71007  0.51447  Biso   1.000  C
  H541     1.0000 0.02733  0.72867  0.53107  Biso   1.000  H
  H542     1.0000 0.98223  0.73787  0.50407  Biso   1.000  H
  C258     1.0000 0.94993  0.67187  0.55227  Biso   1.000  C
  H543     1.0000 0.91363  0.65527  0.53647  Biso   1.000  H
  H544     1.0000 0.94983  0.69237  0.58287  Biso   1.000  H
  C259     1.0000 0.86223  0.65697  0.74407  Biso   1.000  C
  H545     1.0000 0.85863  0.67467  0.77477  Biso   1.000  H
  H546     1.0000 0.89843  0.66127  0.74307  Biso   1.000  H
  H547     1.0000 0.85673  0.67357  0.71347  Biso   1.000  H
  C260     1.0000 0.81743  0.53757  0.63027  Biso   1.000  C
  H548     1.0000 0.79023  0.50597  0.61157  Biso   1.000  H
  H549     1.0000 0.82903  0.57007  0.60947  Biso   1.000  H
  H550     1.0000 0.84863  0.53317  0.63767  Biso   1.000  H
  O47      1.0000 0.84633  0.59277  0.69407  Biso   1.000  O
  C261     1.0000 0.81893  0.59557  0.74537  Biso   1.000  C
  H551     1.0000 0.82283  0.57537  0.77427  Biso   1.000  H
  H552     1.0000 0.78123  0.58757  0.74157  Biso   1.000  H
  C262     1.0000 0.79283  0.54327  0.68147  Biso   1.000  C
  H553     1.0000 0.78253  0.51287  0.70537  Biso   1.000  H
  H554     1.0000 0.76293  0.55087  0.67677  Biso   1.000  H
  C263     1.0000 0.81833  0.63467  0.70267  Biso   1.000  C
  C264     1.0000 0.79543  0.57417  0.64767  Biso   1.000  C
  Cs24     1.0000 0.98703  0.61154  0.68714  Biso   1.000  Cs
  H555     1.0000 0.86083  0.68567  0.76347  Biso   1.000  H
  H556     1.0000 0.85633  0.62767  0.76737  Biso   1.000  H
  H557     1.0000 0.89763  0.67157  0.72777  Biso   1.000  H
  H558     1.0000 0.78173  0.60837  0.71537  Biso   1.000  H
  H559     1.0000 0.81653  0.66367  0.68227  Biso   1.000  H
  H560     1.0000 0.78873  0.59277  0.61867  Biso   1.000  H
  H561     1.0000 0.76353  0.55617  0.67007  Biso   1.000  H
  H562     1.0000 0.79143  0.50947  0.60737  Biso   1.000  H
  H563     1.0000 0.85173  0.55917  0.61217  Biso   1.000  H
  H564     1.0000 0.82333  0.52077  0.66047  Biso   1.000  H
  O48      1.0000 0.84843  0.60997  0.67597  Biso   1.000  O
  Cs25     1.0000 0.05491  0.68226  0.01922  Biso   1.000  Cs
  P37      1.0000 0.18762  0.80274  0.99580  Biso   1.000  P
  O49      1.0000 0.03650  0.66420  0.90105  Biso   1.000  O
  C265     1.0000 0.19170  0.86550  0.00040  Biso   1.000  C
  P38      1.0000 0.25556  0.92534  0.00508  Biso   1.000  P
  O50      1.0000 0.98570  0.64550  0.80269  Biso   1.000  O
  C266     1.0000 0.25580  0.82100  0.99630  Biso   1.000  C
  P39      1.0000 0.30617  0.89120  0.99987  Biso   1.000  P
  C267     1.0000 0.13830  0.87120  0.00060  Biso   1.000  C
  C268     1.0000 0.11790  0.87480  0.04340  Biso   1.000  C
  H565     1.0000 0.08690  0.87830  0.03850  Biso   1.000  H
  C269     1.0000 0.11590  0.87520  0.94680  Biso   1.000  C
  C270     1.0000 0.06730  0.88280  0.94820  Biso   1.000  C
  H566     1.0000 0.04850  0.87200  0.91510  Biso   1.000  H
  H567     1.0000 0.04270  0.86030  0.97540  Biso   1.000  H
  H568     1.0000 0.07900  0.92070  0.95480  Biso   1.000  H
  C271     1.0000 0.15770  0.92520  0.92070  Biso   1.000  C
  H569     1.0000 0.14070  0.94460  0.90620  Biso   1.000  H
  H570     1.0000 0.18520  0.94820  0.94560  Biso   1.000  H
  H571     1.0000 0.17450  0.91530  0.89320  Biso   1.000  H
  C272     1.0000 0.09300  0.82300  0.92070  Biso   1.000  C
  H572     1.0000 0.07490  0.82400  0.88920  Biso   1.000  H
  H573     1.0000 0.12200  0.81550  0.91210  Biso   1.000  H
  H574     1.0000 0.06690  0.79450  0.94330  Biso   1.000  H
  C273     1.0000 0.13170  0.87470  0.10120  Biso   1.000  C
  C274     1.0000 0.08010  0.85320  0.13130  Biso   1.000  C
  H575     1.0000 0.06450  0.87640  0.12590  Biso   1.000  H
  H576     1.0000 0.05450  0.81640  0.11980  Biso   1.000  H
  H577     1.0000 0.08770  0.85260  0.16780  Biso   1.000  H
  C275     1.0000 0.17380  0.93050  0.11790  Biso   1.000  C
  H578     1.0000 0.15960  0.95510  0.11390  Biso   1.000  H
  H579     1.0000 0.18310  0.92960  0.15390  Biso   1.000  H
  H580     1.0000 0.20620  0.94310  0.09660  Biso   1.000  H
  C276     1.0000 0.15480  0.83530  0.11680  Biso   1.000  C
  H581     1.0000 0.15920  0.83580  0.15410  Biso   1.000  H
  H582     1.0000 0.12930  0.79840  0.10560  Biso   1.000  H
  H583     1.0000 0.18970  0.84770  0.10020  Biso   1.000  H
  C277     1.0000 0.06560  0.69420  0.85640  Biso   1.000  C
  H584     1.0000 0.09410  0.73090  0.86670  Biso   1.000  H
  H585     1.0000 0.08330  0.67600  0.83980  Biso   1.000  H
  C278     1.0000 0.02760  0.69840  0.81890  Biso   1.000  C
  H586     1.0000 0.04820  0.71950  0.78860  Biso   1.000  H
  H587     1.0000 0.01100  0.71780  0.83520  Biso   1.000  H
  C279     1.0000 0.95660  0.61460  0.84780  Biso   1.000  C
  H588     1.0000 0.93800  0.63200  0.86440  Biso   1.000  H
  H589     1.0000 0.92880  0.57770  0.83740  Biso   1.000  H
  C280     1.0000 0.99480  0.61140  0.88560  Biso   1.000  C
  H590     1.0000 0.01140  0.59170  0.86980  Biso   1.000  H
  H591     1.0000 0.97430  0.59080  0.91620  Biso   1.000  H
  C281     1.0000 0.00970  0.53860  0.07740  Biso   1.000  C
  H592     1.0000 0.99200  0.51730  0.10810  Biso   1.000  H
  H593     1.0000 0.00540  0.57050  0.07640  Biso   1.000  H
  H594     1.0000 0.99310  0.51650  0.04680  Biso   1.000  H
  C282     1.0000 0.12910  0.61320  0.96360  Biso   1.000  C
  H595     1.0000 0.16070  0.61760  0.94490  Biso   1.000  H
  H596     1.0000 0.09660  0.59230  0.94280  Biso   1.000  H
  H597     1.0000 0.13350  0.64880  0.97100  Biso   1.000  H
  O51      1.0000 0.07390  0.58690  0.02740  Biso   1.000  O
  C283     1.0000 0.07110  0.55670  0.07870  Biso   1.000  C
  H598     1.0000 0.09130  0.58080  0.10760  Biso   1.000  H
  H599     1.0000 0.07910  0.52700  0.07490  Biso   1.000  H
  C284     1.0000 0.12340  0.58290  0.01480  Biso   1.000  C
  H600     1.0000 0.15380  0.60300  0.03870  Biso   1.000  H
  H601     1.0000 0.11580  0.54540  0.01010  Biso   1.000  H
  C285     1.0000 0.03200  0.51700  0.03600  Biso   1.000  C
  C286     1.0000 0.09250  0.55460  0.98100  Biso   1.000  C
  Cs26     1.0000 0.05513  0.70883  0.02047  Biso   1.000  Cs
  H602     1.0000 0.98100  0.50850  0.09680  Biso   1.000  H
  H603     1.0000 0.03900  0.56200  0.10070  Biso   1.000  H
  H604     1.0000 0.99510  0.55940  0.06110  Biso   1.000  H
  H605     1.0000 0.05830  0.50670  0.04870  Biso   1.000  H
  H606     1.0000 0.00300  0.48620  0.01560  Biso   1.000  H
  H607     1.0000 0.07390  0.52930  0.95200  Biso   1.000  H
  H608     1.0000 0.11050  0.54070  0.00340  Biso   1.000  H
  H609     1.0000 0.15720  0.61530  0.94070  Biso   1.000  H
  H610     1.0000 0.10750  0.62590  0.94550  Biso   1.000  H
  H611     1.0000 0.14590  0.63590  0.99380  Biso   1.000  H
  O52      1.0000 0.05670  0.57180  0.00930  Biso   1.000  O
  Cs27     1.0000 0.72157  0.01559  0.35255  Biso   1.000  Cs
  P40      1.0000 0.85429  0.13607  0.32913  Biso   1.000  P
  O53      1.0000 0.70317  0.99753  0.23438  Biso   1.000  O
  C287     1.0000 0.85837  0.19883  0.33373  Biso   1.000  C
  P41      1.0000 0.92223  0.25867  0.33841  Biso   1.000  P
  O54      1.0000 0.65237  0.97883  0.13602  Biso   1.000  O
  C288     1.0000 0.92247  0.15433  0.32963  Biso   1.000  C
  P42      1.0000 0.97284  0.22453  0.33320  Biso   1.000  P
  C289     1.0000 0.80497  0.20453  0.33393  Biso   1.000  C
  C290     1.0000 0.78457  0.20813  0.37673  Biso   1.000  C
  H612     1.0000 0.75357  0.21163  0.37183  Biso   1.000  H
  C291     1.0000 0.78257  0.20853  0.28013  Biso   1.000  C
  C292     1.0000 0.73397  0.21613  0.28153  Biso   1.000  C
  H613     1.0000 0.71517  0.20533  0.24843  Biso   1.000  H
  H614     1.0000 0.70937  0.19363  0.30873  Biso   1.000  H
  H615     1.0000 0.74567  0.25403  0.28813  Biso   1.000  H
  C293     1.0000 0.82437  0.25853  0.25403  Biso   1.000  C
  H616     1.0000 0.80737  0.27793  0.23953  Biso   1.000  H
  H617     1.0000 0.85187  0.28153  0.27893  Biso   1.000  H
  H618     1.0000 0.84117  0.24863  0.22653  Biso   1.000  H
  C294     1.0000 0.75967  0.15633  0.25403  Biso   1.000  C
  H619     1.0000 0.74157  0.15733  0.22253  Biso   1.000  H
  H620     1.0000 0.78867  0.14883  0.24543  Biso   1.000  H
  H621     1.0000 0.73357  0.12783  0.27663  Biso   1.000  H
  C295     1.0000 0.79837  0.20803  0.43453  Biso   1.000  C
  C296     1.0000 0.74677  0.18653  0.46463  Biso   1.000  C
  H622     1.0000 0.73117  0.20973  0.45923  Biso   1.000  H
  H623     1.0000 0.72117  0.14973  0.45313  Biso   1.000  H
  H624     1.0000 0.75437  0.18593  0.50113  Biso   1.000  H
  C297     1.0000 0.84047  0.26383  0.45123  Biso   1.000  C
  H625     1.0000 0.82627  0.28843  0.44723  Biso   1.000  H
  H626     1.0000 0.84977  0.26293  0.48723  Biso   1.000  H
  H627     1.0000 0.87287  0.27643  0.42993  Biso   1.000  H
  C298     1.0000 0.82147  0.16863  0.45013  Biso   1.000  C
  H628     1.0000 0.82587  0.16913  0.48743  Biso   1.000  H
  H629     1.0000 0.79597  0.13173  0.43893  Biso   1.000  H
  H630     1.0000 0.85637  0.18103  0.43353  Biso   1.000  H
  C299     1.0000 0.73227  0.02753  0.18973  Biso   1.000  C
  H631     1.0000 0.76077  0.06423  0.20003  Biso   1.000  H
  H632     1.0000 0.74997  0.00933  0.17313  Biso   1.000  H
  C300     1.0000 0.69427  0.03173  0.15223  Biso   1.000  C
  H633     1.0000 0.71487  0.05283  0.12193  Biso   1.000  H
  H634     1.0000 0.67767  0.05113  0.16853  Biso   1.000  H
  C301     1.0000 0.62327  0.94793  0.18113  Biso   1.000  C
  H635     1.0000 0.60467  0.96533  0.19773  Biso   1.000  H
  H636     1.0000 0.59547  0.91103  0.17073  Biso   1.000  H
  C302     1.0000 0.66147  0.94473  0.21893  Biso   1.000  C
  H637     1.0000 0.67807  0.92503  0.20313  Biso   1.000  H
  H638     1.0000 0.64097  0.92413  0.24953  Biso   1.000  H
  C303     1.0000 0.67637  0.87193  0.41073  Biso   1.000  C
  H639     1.0000 0.65867  0.85063  0.44143  Biso   1.000  H
  H640     1.0000 0.67207  0.90383  0.40973  Biso   1.000  H
  H641     1.0000 0.65977  0.84983  0.38013  Biso   1.000  H
  C304     1.0000 0.79577  0.94653  0.29693  Biso   1.000  C
  H642     1.0000 0.82737  0.95093  0.27823  Biso   1.000  H
  H643     1.0000 0.76327  0.92563  0.27613  Biso   1.000  H
  H644     1.0000 0.80017  0.98213  0.30433  Biso   1.000  H
  O55      1.0000 0.74057  0.92023  0.36073  Biso   1.000  O
  C305     1.0000 0.73777  0.89003  0.41203  Biso   1.000  C
  H645     1.0000 0.75797  0.91413  0.44093  Biso   1.000  H
  H646     1.0000 0.74577  0.86033  0.40823  Biso   1.000  H
  C306     1.0000 0.79007  0.91623  0.34813  Biso   1.000  C
  H647     1.0000 0.82047  0.93633  0.37203  Biso   1.000  H
  H648     1.0000 0.78247  0.87873  0.34343  Biso   1.000  H
  C307     1.0000 0.69867  0.85033  0.36933  Biso   1.000  C
  C308     1.0000 0.75917  0.88793  0.31433  Biso   1.000  C
  Cs28     1.0000 0.72180  0.04216  0.35380  Biso   1.000  Cs
  H649     1.0000 0.64767  0.84183  0.43013  Biso   1.000  H
  H650     1.0000 0.70567  0.89533  0.43403  Biso   1.000  H
  H651     1.0000 0.66177  0.89273  0.39443  Biso   1.000  H
  H652     1.0000 0.72497  0.84003  0.38203  Biso   1.000  H
  H653     1.0000 0.66967  0.81953  0.34893  Biso   1.000  H
  H654     1.0000 0.74057  0.86263  0.28533  Biso   1.000  H
  H655     1.0000 0.77717  0.87403  0.33673  Biso   1.000  H
  H656     1.0000 0.82387  0.94863  0.27403  Biso   1.000  H
  H657     1.0000 0.77417  0.95923  0.27883  Biso   1.000  H
  H658     1.0000 0.81257  0.96923  0.32713  Biso   1.000  H
  O56      1.0000 0.72337  0.90513  0.34263  Biso   1.000  O
  Cs29     1.0000 0.38824  0.34892  0.68589  Biso   1.000  Cs
  P43      1.0000 0.52095  0.46941  0.66247  Biso   1.000  P
  O57      1.0000 0.36983  0.33087  0.56772  Biso   1.000  O
  C309     1.0000 0.52503  0.53217  0.66707  Biso   1.000  C
  P44      1.0000 0.58889  0.59201  0.67175  Biso   1.000  P
  O58      1.0000 0.31903  0.31217  0.46936  Biso   1.000  O
  C310     1.0000 0.58913  0.48767  0.66297  Biso   1.000  C
  P45      1.0000 0.63950  0.55787  0.66654  Biso   1.000  P
  C311     1.0000 0.47163  0.53787  0.66727  Biso   1.000  C
  C312     1.0000 0.45123  0.54147  0.71007  Biso   1.000  C
  H659     1.0000 0.42023  0.54497  0.70517  Biso   1.000  H
  C313     1.0000 0.44923  0.54187  0.61347  Biso   1.000  C
  C314     1.0000 0.40063  0.54947  0.61487  Biso   1.000  C
  H660     1.0000 0.38183  0.53867  0.58177  Biso   1.000  H
  H661     1.0000 0.37603  0.52697  0.64207  Biso   1.000  H
  H662     1.0000 0.41233  0.58737  0.62147  Biso   1.000  H
  C315     1.0000 0.49103  0.59187  0.58737  Biso   1.000  C
  H663     1.0000 0.47403  0.61127  0.57287  Biso   1.000  H
  H664     1.0000 0.51853  0.61487  0.61227  Biso   1.000  H
  H665     1.0000 0.50783  0.58197  0.55987  Biso   1.000  H
  C316     1.0000 0.42633  0.48967  0.58737  Biso   1.000  C
  H666     1.0000 0.40823  0.49067  0.55587  Biso   1.000  H
  H667     1.0000 0.45533  0.48217  0.57877  Biso   1.000  H
  H668     1.0000 0.40023  0.46117  0.60997  Biso   1.000  H
  C317     1.0000 0.46503  0.54137  0.76787  Biso   1.000  C
  C318     1.0000 0.41343  0.51987  0.79797  Biso   1.000  C
  H669     1.0000 0.39783  0.54307  0.79257  Biso   1.000  H
  H670     1.0000 0.38783  0.48307  0.78647  Biso   1.000  H
  H671     1.0000 0.42103  0.51927  0.83447  Biso   1.000  H
  C319     1.0000 0.50713  0.59717  0.78457  Biso   1.000  C
  H672     1.0000 0.49293  0.62177  0.78057  Biso   1.000  H
  H673     1.0000 0.51643  0.59627  0.82057  Biso   1.000  H
  H674     1.0000 0.53953  0.60977  0.76327  Biso   1.000  H
  C320     1.0000 0.48813  0.50197  0.78347  Biso   1.000  C
  H675     1.0000 0.49253  0.50247  0.82077  Biso   1.000  H
  H676     1.0000 0.46263  0.46507  0.77227  Biso   1.000  H
  H677     1.0000 0.52303  0.51437  0.76687  Biso   1.000  H
  C321     1.0000 0.39893  0.36087  0.52307  Biso   1.000  C
  H678     1.0000 0.42743  0.39757  0.53337  Biso   1.000  H
  H679     1.0000 0.41663  0.34267  0.50647  Biso   1.000  H
  C322     1.0000 0.36093  0.36507  0.48557  Biso   1.000  C
  H680     1.0000 0.38153  0.38617  0.45527  Biso   1.000  H
  H681     1.0000 0.34433  0.38447  0.50187  Biso   1.000  H
  C323     1.0000 0.28993  0.28127  0.51447  Biso   1.000  C
  H682     1.0000 0.27133  0.29867  0.53107  Biso   1.000  H
  H683     1.0000 0.26213  0.24437  0.50407  Biso   1.000  H
  C324     1.0000 0.32813  0.27807  0.55227  Biso   1.000  C
  H684     1.0000 0.34473  0.25837  0.53647  Biso   1.000  H
  H685     1.0000 0.30763  0.25747  0.58287  Biso   1.000  H
  C325     1.0000 0.34303  0.20527  0.74407  Biso   1.000  C
  H686     1.0000 0.32533  0.18397  0.77477  Biso   1.000  H
  H687     1.0000 0.33873  0.23717  0.74307  Biso   1.000  H
  H688     1.0000 0.32643  0.18317  0.71347  Biso   1.000  H
  C326     1.0000 0.46243  0.27987  0.63027  Biso   1.000  C
  H689     1.0000 0.49403  0.28427  0.61157  Biso   1.000  H
  H690     1.0000 0.42993  0.25897  0.60947  Biso   1.000  H
  H691     1.0000 0.46683  0.31547  0.63767  Biso   1.000  H
  O59      1.0000 0.40723  0.25357  0.69407  Biso   1.000  O
  C327     1.0000 0.40443  0.22337  0.74537  Biso   1.000  C
  H692     1.0000 0.42463  0.24747  0.77427  Biso   1.000  H
  H693     1.0000 0.41243  0.19367  0.74157  Biso   1.000  H
  C328     1.0000 0.45673  0.24957  0.68147  Biso   1.000  C
  H694     1.0000 0.48713  0.26967  0.70537  Biso   1.000  H
  H695     1.0000 0.44913  0.21207  0.67677  Biso   1.000  H
  C329     1.0000 0.36533  0.18367  0.70267  Biso   1.000  C
  C330     1.0000 0.42583  0.22127  0.64767  Biso   1.000  C
  Cs30     1.0000 0.38846  0.37550  0.68714  Biso   1.000  Cs
  H696     1.0000 0.31433  0.17517  0.76347  Biso   1.000  H
  H697     1.0000 0.37233  0.22867  0.76737  Biso   1.000  H
  H698     1.0000 0.32843  0.22607  0.72777  Biso   1.000  H
  H699     1.0000 0.39163  0.17337  0.71537  Biso   1.000  H
  H700     1.0000 0.33633  0.15287  0.68227  Biso   1.000  H
  H701     1.0000 0.40723  0.19597  0.61867  Biso   1.000  H
  H702     1.0000 0.44383  0.20737  0.67007  Biso   1.000  H
  H703     1.0000 0.49053  0.28197  0.60737  Biso   1.000  H
  H704     1.0000 0.44083  0.29257  0.61217  Biso   1.000  H
  H705     1.0000 0.47923  0.30257  0.66047  Biso   1.000  H
  O60      1.0000 0.39003  0.23847  0.67597  Biso   1.000  O
  Cs31     1.0000 0.31774  0.37265  0.01922  Biso   1.000  Cs
  P46      1.0000 0.19726  0.38488  0.99580  Biso   1.000  P
  O61      1.0000 0.33580  0.37230  0.90105  Biso   1.000  O
  C331     1.0000 0.13450  0.32620  0.00040  Biso   1.000  C
  P47      1.0000 0.07466  0.33022  0.00508  Biso   1.000  P
  O62      1.0000 0.35450  0.34020  0.80269  Biso   1.000  O
  C332     1.0000 0.17900  0.43480  0.99630  Biso   1.000  C
  P48      1.0000 0.10880  0.41497  0.99987  Biso   1.000  P
  C333     1.0000 0.12880  0.26710  0.00060  Biso   1.000  C
  C334     1.0000 0.12520  0.24310  0.04340  Biso   1.000  C
  H706     1.0000 0.12170  0.20860  0.03850  Biso   1.000  H
  C335     1.0000 0.12480  0.24070  0.94680  Biso   1.000  C
  C336     1.0000 0.11720  0.18450  0.94820  Biso   1.000  C
  H707     1.0000 0.12800  0.17650  0.91510  Biso   1.000  H
  H708     1.0000 0.13970  0.18240  0.97540  Biso   1.000  H
  H709     1.0000 0.07930  0.15830  0.95480  Biso   1.000  H
  C337     1.0000 0.07480  0.23250  0.92070  Biso   1.000  C
  H710     1.0000 0.05540  0.19610  0.90620  Biso   1.000  H
  H711     1.0000 0.05180  0.23700  0.94560  Biso   1.000  H
  H712     1.0000 0.08470  0.25920  0.89320  Biso   1.000  H
  C338     1.0000 0.17700  0.27000  0.92070  Biso   1.000  C
  H713     1.0000 0.17600  0.25090  0.88920  Biso   1.000  H
  H714     1.0000 0.18450  0.30650  0.91210  Biso   1.000  H
  H715     1.0000 0.20550  0.27240  0.94330  Biso   1.000  H
  C339     1.0000 0.12530  0.25700  0.10120  Biso   1.000  C
  C340     1.0000 0.14680  0.22690  0.13130  Biso   1.000  C
  H716     1.0000 0.12360  0.18810  0.12590  Biso   1.000  H
  H717     1.0000 0.18360  0.23810  0.11980  Biso   1.000  H
  H718     1.0000 0.14740  0.23510  0.16780  Biso   1.000  H
  C341     1.0000 0.06950  0.24330  0.11790  Biso   1.000  C
  H719     1.0000 0.04490  0.20450  0.11390  Biso   1.000  H
  H720     1.0000 0.07040  0.25350  0.15390  Biso   1.000  H
  H721     1.0000 0.05690  0.26310  0.09660  Biso   1.000  H
  C342     1.0000 0.16470  0.31950  0.11680  Biso   1.000  C
  H722     1.0000 0.16420  0.32340  0.15410  Biso   1.000  H
  H723     1.0000 0.20160  0.33090  0.10560  Biso   1.000  H
  H724     1.0000 0.15230  0.34200  0.10020  Biso   1.000  H
  C343     1.0000 0.30580  0.37140  0.85640  Biso   1.000  C
  H725     1.0000 0.26910  0.36320  0.86670  Biso   1.000  H
  H726     1.0000 0.32400  0.40730  0.83980  Biso   1.000  H
  C344     1.0000 0.30160  0.32920  0.81890  Biso   1.000  C
  H727     1.0000 0.28050  0.32870  0.78860  Biso   1.000  H
  H728     1.0000 0.28220  0.29320  0.83520  Biso   1.000  H
  C345     1.0000 0.38540  0.34200  0.84780  Biso   1.000  C
  H729     1.0000 0.36800  0.30600  0.86440  Biso   1.000  H
  H730     1.0000 0.42230  0.35110  0.83740  Biso   1.000  H
  C346     1.0000 0.38860  0.38340  0.88560  Biso   1.000  C
  H731     1.0000 0.40830  0.41970  0.86980  Biso   1.000  H
  H732     1.0000 0.40920  0.38350  0.91620  Biso   1.000  H
  C347     1.0000 0.46140  0.47110  0.07740  Biso   1.000  C
  H733     1.0000 0.48270  0.47470  0.10810  Biso   1.000  H
  H734     1.0000 0.42950  0.43490  0.07640  Biso   1.000  H
  H735     1.0000 0.48350  0.47660  0.04680  Biso   1.000  H
  C348     1.0000 0.38680  0.51590  0.96360  Biso   1.000  C
  H736     1.0000 0.38240  0.54310  0.94490  Biso   1.000  H
  H737     1.0000 0.40770  0.50430  0.94280  Biso   1.000  H
  H738     1.0000 0.35120  0.48470  0.97100  Biso   1.000  H
  O63      1.0000 0.41310  0.48700  0.02740  Biso   1.000  O
  C349     1.0000 0.44330  0.51440  0.07870  Biso   1.000  C
  H739     1.0000 0.41920  0.51050  0.10760  Biso   1.000  H
  H740     1.0000 0.47300  0.55210  0.07490  Biso   1.000  H
  C350     1.0000 0.41710  0.54050  0.01480  Biso   1.000  C
  H741     1.0000 0.39700  0.55080  0.03870  Biso   1.000  H
  H742     1.0000 0.45460  0.57040  0.01010  Biso   1.000  H
  C351     1.0000 0.48300  0.51500  0.03600  Biso   1.000  C
  C352     1.0000 0.44540  0.53790  0.98100  Biso   1.000  C
  Cs32     1.0000 0.29117  0.34630  0.02047  Biso   1.000  Cs
  H743     1.0000 0.49150  0.47250  0.09680  Biso   1.000  H
  H744     1.0000 0.43800  0.47700  0.10070  Biso   1.000  H
  H745     1.0000 0.44060  0.43570  0.06110  Biso   1.000  H
  H746     1.0000 0.49330  0.55160  0.04870  Biso   1.000  H
  H747     1.0000 0.51380  0.51680  0.01560  Biso   1.000  H
  H748     1.0000 0.47070  0.54460  0.95200  Biso   1.000  H
  H749     1.0000 0.45930  0.56980  0.00340  Biso   1.000  H
  H750     1.0000 0.38470  0.54190  0.94070  Biso   1.000  H
  H751     1.0000 0.37410  0.48160  0.94550  Biso   1.000  H
  H752     1.0000 0.36410  0.51000  0.99380  Biso   1.000  H
  O64      1.0000 0.42820  0.48490  0.00930  Biso   1.000  O
  Cs33     1.0000 0.98441  0.70598  0.35255  Biso   1.000  Cs
  P49      1.0000 0.86393  0.71821  0.32913  Biso   1.000  P
  O65      1.0000 0.00247  0.70563  0.23438  Biso   1.000  O
  C353     1.0000 0.80117  0.65953  0.33373  Biso   1.000  C
  P50      1.0000 0.74133  0.66355  0.33841  Biso   1.000  P
  O66      1.0000 0.02117  0.67353  0.13602  Biso   1.000  O
  C354     1.0000 0.84567  0.76813  0.32963  Biso   1.000  C
  P51      1.0000 0.77547  0.74830  0.33320  Biso   1.000  P
  C355     1.0000 0.79547  0.60043  0.33393  Biso   1.000  C
  C356     1.0000 0.79187  0.57643  0.37673  Biso   1.000  C
  H753     1.0000 0.78837  0.54193  0.37183  Biso   1.000  H
  C357     1.0000 0.79147  0.57403  0.28013  Biso   1.000  C
  C358     1.0000 0.78387  0.51783  0.28153  Biso   1.000  C
  H754     1.0000 0.79467  0.50983  0.24843  Biso   1.000  H
  H755     1.0000 0.80637  0.51573  0.30873  Biso   1.000  H
  H756     1.0000 0.74597  0.49163  0.28813  Biso   1.000  H
  C359     1.0000 0.74147  0.56583  0.25403  Biso   1.000  C
  H757     1.0000 0.72207  0.52943  0.23953  Biso   1.000  H
  H758     1.0000 0.71847  0.57033  0.27893  Biso   1.000  H
  H759     1.0000 0.75137  0.59253  0.22653  Biso   1.000  H
  C360     1.0000 0.84367  0.60333  0.25403  Biso   1.000  C
  H760     1.0000 0.84267  0.58423  0.22253  Biso   1.000  H
  H761     1.0000 0.85117  0.63983  0.24543  Biso   1.000  H
  H762     1.0000 0.87217  0.60573  0.27663  Biso   1.000  H
  C361     1.0000 0.79197  0.59033  0.43453  Biso   1.000  C
  C362     1.0000 0.81347  0.56023  0.46463  Biso   1.000  C
  H763     1.0000 0.79027  0.52143  0.45923  Biso   1.000  H
  H764     1.0000 0.85027  0.57143  0.45313  Biso   1.000  H
  H765     1.0000 0.81407  0.56843  0.50113  Biso   1.000  H
  C363     1.0000 0.73617  0.57663  0.45123  Biso   1.000  C
  H766     1.0000 0.71157  0.53783  0.44723  Biso   1.000  H
  H767     1.0000 0.73707  0.58683  0.48723  Biso   1.000  H
  H768     1.0000 0.72357  0.59643  0.42993  Biso   1.000  H
  C364     1.0000 0.83137  0.65283  0.45013  Biso   1.000  C
  H769     1.0000 0.83087  0.65673  0.48743  Biso   1.000  H
  H770     1.0000 0.86827  0.66423  0.43893  Biso   1.000  H
  H771     1.0000 0.81897  0.67533  0.43353  Biso   1.000  H
  C365     1.0000 0.97247  0.70473  0.18973  Biso   1.000  C
  H772     1.0000 0.93577  0.69653  0.20003  Biso   1.000  H
  H773     1.0000 0.99067  0.74063  0.17313  Biso   1.000  H
  C366     1.0000 0.96827  0.66253  0.15223  Biso   1.000  C
  H774     1.0000 0.94717  0.66203  0.12193  Biso   1.000  H
  H775     1.0000 0.94887  0.62653  0.16853  Biso   1.000  H
  C367     1.0000 0.05207  0.67533  0.18113  Biso   1.000  C
  H776     1.0000 0.03467  0.63933  0.19773  Biso   1.000  H
  H777     1.0000 0.08897  0.68443  0.17073  Biso   1.000  H
  C368     1.0000 0.05527  0.71673  0.21893  Biso   1.000  C
  H778     1.0000 0.07497  0.75303  0.20313  Biso   1.000  H
  H779     1.0000 0.07587  0.71683  0.24953  Biso   1.000  H
  C369     1.0000 0.12807  0.80443  0.41073  Biso   1.000  C
  H780     1.0000 0.14937  0.80803  0.44143  Biso   1.000  H
  H781     1.0000 0.09617  0.76823  0.40973  Biso   1.000  H
  H782     1.0000 0.15017  0.80993  0.38013  Biso   1.000  H
  C370     1.0000 0.05347  0.84923  0.29693  Biso   1.000  C
  H783     1.0000 0.04907  0.87643  0.27823  Biso   1.000  H
  H784     1.0000 0.07437  0.83763  0.27613  Biso   1.000  H
  H785     1.0000 0.01787  0.81803  0.30433  Biso   1.000  H
  O67      1.0000 0.07977  0.82033  0.36073  Biso   1.000  O
  C371     1.0000 0.10997  0.84773  0.41203  Biso   1.000  C
  H786     1.0000 0.08587  0.84383  0.44093  Biso   1.000  H
  H787     1.0000 0.13967  0.88543  0.40823  Biso   1.000  H
  C372     1.0000 0.08377  0.87383  0.34813  Biso   1.000  C
  H788     1.0000 0.06367  0.88413  0.37203  Biso   1.000  H
  H789     1.0000 0.12127  0.90373  0.34343  Biso   1.000  H
  C373     1.0000 0.14967  0.84833  0.36933  Biso   1.000  C
  C374     1.0000 0.11207  0.87123  0.31433  Biso   1.000  C
  Cs34     1.0000 0.95784  0.67963  0.35380  Biso   1.000  Cs
  H790     1.0000 0.15817  0.80583  0.43013  Biso   1.000  H
  H791     1.0000 0.10467  0.81033  0.43403  Biso   1.000  H
  H792     1.0000 0.10727  0.76903  0.39443  Biso   1.000  H
  H793     1.0000 0.15997  0.88493  0.38203  Biso   1.000  H
  H794     1.0000 0.18047  0.85013  0.34893  Biso   1.000  H
  H795     1.0000 0.13737  0.87793  0.28533  Biso   1.000  H
  H796     1.0000 0.12597  0.90313  0.33673  Biso   1.000  H
  H797     1.0000 0.05137  0.87523  0.27403  Biso   1.000  H
  H798     1.0000 0.04077  0.81493  0.27883  Biso   1.000  H
  H799     1.0000 0.03077  0.84333  0.32713  Biso   1.000  H
  O68      1.0000 0.09487  0.81823  0.34263  Biso   1.000  O
  Cs35     1.0000 0.65108  0.03932  0.68589  Biso   1.000  Cs
  P52      1.0000 0.53059  0.05155  0.66247  Biso   1.000  P
  O69      1.0000 0.66913  0.03897  0.56772  Biso   1.000  O
  C375     1.0000 0.46783  0.99287  0.66707  Biso   1.000  C
  P53      1.0000 0.40799  0.99689  0.67175  Biso   1.000  P
  O70      1.0000 0.68783  0.00687  0.46936  Biso   1.000  O
  C376     1.0000 0.51233  0.10147  0.66297  Biso   1.000  C
  P54      1.0000 0.44213  0.08164  0.66654  Biso   1.000  P
  C377     1.0000 0.46213  0.93377  0.66727  Biso   1.000  C
  C378     1.0000 0.45853  0.90977  0.71007  Biso   1.000  C
  H800     1.0000 0.45503  0.87527  0.70517  Biso   1.000  H
  C379     1.0000 0.45813  0.90737  0.61347  Biso   1.000  C
  C380     1.0000 0.45053  0.85117  0.61487  Biso   1.000  C
  H801     1.0000 0.46133  0.84317  0.58177  Biso   1.000  H
  H802     1.0000 0.47303  0.84907  0.64207  Biso   1.000  H
  H803     1.0000 0.41263  0.82497  0.62147  Biso   1.000  H
  C381     1.0000 0.40813  0.89917  0.58737  Biso   1.000  C
  H804     1.0000 0.38873  0.86277  0.57287  Biso   1.000  H
  H805     1.0000 0.38513  0.90367  0.61227  Biso   1.000  H
  H806     1.0000 0.41803  0.92587  0.55987  Biso   1.000  H
  C382     1.0000 0.51033  0.93667  0.58737  Biso   1.000  C
  H807     1.0000 0.50933  0.91757  0.55587  Biso   1.000  H
  H808     1.0000 0.51783  0.97317  0.57877  Biso   1.000  H
  H809     1.0000 0.53883  0.93907  0.60997  Biso   1.000  H
  C383     1.0000 0.45863  0.92367  0.76787  Biso   1.000  C
  C384     1.0000 0.48013  0.89357  0.79797  Biso   1.000  C
  H810     1.0000 0.45693  0.85477  0.79257  Biso   1.000  H
  H811     1.0000 0.51693  0.90477  0.78647  Biso   1.000  H
  H812     1.0000 0.48073  0.90177  0.83447  Biso   1.000  H
  C385     1.0000 0.40283  0.90997  0.78457  Biso   1.000  C
  H813     1.0000 0.37823  0.87117  0.78057  Biso   1.000  H
  H814     1.0000 0.40373  0.92017  0.82057  Biso   1.000  H
  H815     1.0000 0.39023  0.92977  0.76327  Biso   1.000  H
  C386     1.0000 0.49803  0.98617  0.78347  Biso   1.000  C
  H816     1.0000 0.49753  0.99007  0.82077  Biso   1.000  H
  H817     1.0000 0.53493  0.99757  0.77227  Biso   1.000  H
  H818     1.0000 0.48563  0.00867  0.76687  Biso   1.000  H
  C387     1.0000 0.63913  0.03807  0.52307  Biso   1.000  C
  H819     1.0000 0.60243  0.02987  0.53337  Biso   1.000  H
  H820     1.0000 0.65733  0.07397  0.50647  Biso   1.000  H
  C388     1.0000 0.63493  0.99587  0.48557  Biso   1.000  C
  H821     1.0000 0.61383  0.99537  0.45527  Biso   1.000  H
  H822     1.0000 0.61553  0.95987  0.50187  Biso   1.000  H
  C389     1.0000 0.71873  0.00867  0.51447  Biso   1.000  C
  H823     1.0000 0.70133  0.97267  0.53107  Biso   1.000  H
  H824     1.0000 0.75563  0.01777  0.50407  Biso   1.000  H
  C390     1.0000 0.72193  0.05007  0.55227  Biso   1.000  C
  H825     1.0000 0.74163  0.08637  0.53647  Biso   1.000  H
  H826     1.0000 0.74253  0.05017  0.58287  Biso   1.000  H
  C391     1.0000 0.79473  0.13777  0.74407  Biso   1.000  C
  H827     1.0000 0.81603  0.14137  0.77477  Biso   1.000  H
  H828     1.0000 0.76283  0.10157  0.74307  Biso   1.000  H
  H829     1.0000 0.81683  0.14327  0.71347  Biso   1.000  H
  C392     1.0000 0.72013  0.18257  0.63027  Biso   1.000  C
  H830     1.0000 0.71573  0.20977  0.61157  Biso   1.000  H
  H831     1.0000 0.74103  0.17097  0.60947  Biso   1.000  H
  H832     1.0000 0.68453  0.15137  0.63767  Biso   1.000  H
  O71      1.0000 0.74643  0.15367  0.69407  Biso   1.000  O
  C393     1.0000 0.77663  0.18107  0.74537  Biso   1.000  C
  H833     1.0000 0.75253  0.17717  0.77427  Biso   1.000  H
  H834     1.0000 0.80633  0.21877  0.74157  Biso   1.000  H
  C394     1.0000 0.75043  0.20717  0.68147  Biso   1.000  C
  H835     1.0000 0.73033  0.21747  0.70537  Biso   1.000  H
  H836     1.0000 0.78793  0.23707  0.67677  Biso   1.000  H
  C395     1.0000 0.81633  0.18167  0.70267  Biso   1.000  C
  C396     1.0000 0.77873  0.20457  0.64767  Biso   1.000  C
  Cs36     1.0000 0.62450  0.01297  0.68714  Biso   1.000  Cs
  H837     1.0000 0.82483  0.13917  0.76347  Biso   1.000  H
  H838     1.0000 0.77133  0.14367  0.76737  Biso   1.000  H
  H839     1.0000 0.77393  0.10237  0.72777  Biso   1.000  H
  H840     1.0000 0.82663  0.21827  0.71537  Biso   1.000  H
  H841     1.0000 0.84713  0.18347  0.68227  Biso   1.000  H
  H842     1.0000 0.80403  0.21127  0.61867  Biso   1.000  H
  H843     1.0000 0.79263  0.23647  0.67007  Biso   1.000  H
  H844     1.0000 0.71803  0.20857  0.60737  Biso   1.000  H
  H845     1.0000 0.70743  0.14827  0.61217  Biso   1.000  H
  H846     1.0000 0.69743  0.17667  0.66047  Biso   1.000  H
  O72      1.0000 0.76153  0.15157  0.67597  Biso   1.000  O
