data_image0
_cell_length_a       26.8901
_cell_length_b       26.8901
_cell_length_c       13.2591
_cell_angle_alpha    90
_cell_angle_beta     90
_cell_angle_gamma    90

_symmetry_space_group_name_H-M    "P 1"
_symmetry_int_tables_number       1

loop_
  _symmetry_equiv_pos_as_xyz
  'x, y, z'

loop_
  _atom_site_label
  _atom_site_occupancy
  _atom_site_fract_x
  _atom_site_fract_y
  _atom_site_fract_z
  _atom_site_thermal_displace_type
  _atom_site_B_iso_or_equiv
  _atom_site_type_symbol
  Ti1      1.0000 0.30573  0.77418  0.67871  Biso   1.000  Ti
  O1       1.0000 0.32250  0.82570  0.58090  Biso   1.000  O
  N1       1.0000 0.23670  0.77320  0.58980  Biso   1.000  N
  H1       1.0000 0.21170  0.75380  0.62970  Biso   1.000  H
  N2       1.0000 0.32080  0.71620  0.55890  Biso   1.000  N
  H2       1.0000 0.34370  0.73100  0.50770  Biso   1.000  H
  O2       1.0000 0.37220  0.76250  0.70950  Biso   1.000  O
  C1       1.0000 0.27430  0.70080  0.50660  Biso   1.000  C
  H3       1.0000 0.25590  0.67750  0.55210  Biso   1.000  H
  C2       1.0000 0.34580  0.67150  0.60360  Biso   1.000  C
  H4       1.0000 0.35190  0.64720  0.54900  Biso   1.000  H
  H5       1.0000 0.32260  0.65590  0.65210  Biso   1.000  H
  C3       1.0000 0.30286  0.91070  0.37290  Biso   1.000  C
  H6       1.0000 0.32150  0.92990  0.32600  Biso   1.000  H
  C4       1.0000 0.32723  0.88200  0.44470  Biso   1.000  C
  C5       1.0000 0.29993  0.85402  0.51320  Biso   1.000  C
  C6       1.0000 0.24827  0.85470  0.50990  Biso   1.000  C
  C7       1.0000 0.22390  0.88340  0.43810  Biso   1.000  C
  H7       1.0000 0.18860  0.88390  0.43590  Biso   1.000  H
  C8       1.0000 0.25120  0.91140  0.36960  Biso   1.000  C
  C9       1.0000 0.42760  0.64177  0.66130  Biso   1.000  C
  H8       1.0000 0.42020  0.61180  0.62650  Biso   1.000  H
  C10      1.0000 0.47150  0.64600  0.71600  Biso   1.000  C
  C11      1.0000 0.48229  0.68990  0.76690  Biso   1.000  C
  H9       1.0000 0.51230  0.69270  0.80430  Biso   1.000  H
  C12      1.0000 0.44920  0.72950  0.76300  Biso   1.000  C
  C13      1.0000 0.40535  0.72534  0.70830  Biso   1.000  C
  C14      1.0000 0.39454  0.68150  0.65740  Biso   1.000  C
  Cd1      1.0000 0.62627  0.45282  0.71110  Biso   1.000  Cd
  C15      1.0000 0.21720  0.82470  0.58150  Biso   1.000  C
  H10      1.0000 0.21750  0.84060  0.64880  Biso   1.000  H
  H11      1.0000 0.18240  0.82380  0.55720  Biso   1.000  H
  C16      1.0000 0.38560  0.88220  0.44870  Biso   1.000  C
  C17      1.0000 0.28160  0.67530  0.40690  Biso   1.000  C
  H12      1.0000 0.30100  0.64440  0.41720  Biso   1.000  H
  H13      1.0000 0.30080  0.69730  0.36150  Biso   1.000  H
  C18      1.0000 0.46170  0.77910  0.82040  Biso   1.000  C
  C19      1.0000 0.40520  0.82830  0.43540  Biso   1.000  C
  H14      1.0000 0.39560  0.80830  0.49410  Biso   1.000  H
  H15      1.0000 0.44150  0.82880  0.42950  Biso   1.000  H
  H16      1.0000 0.39080  0.81370  0.37430  Biso   1.000  H
  C20      1.0000 0.19860  0.70750  0.34600  Biso   1.000  C
  H17      1.0000 0.21330  0.73030  0.29550  Biso   1.000  H
  H18      1.0000 0.16580  0.69650  0.32010  Biso   1.000  H
  C21      1.0000 0.24220  0.74750  0.49170  Biso   1.000  C
  H19      1.0000 0.26040  0.77040  0.44520  Biso   1.000  H
  C22      1.0000 0.46130  0.82290  0.75040  Biso   1.000  C
  H20      1.0000 0.48790  0.81920  0.70030  Biso   1.000  H
  H21      1.0000 0.46670  0.85350  0.78910  Biso   1.000  H
  H22      1.0000 0.42910  0.82470  0.71590  Biso   1.000  H
  C23      1.0000 0.51420  0.77660  0.87470  Biso   1.000  C
  H23      1.0000 0.51570  0.74690  0.91740  Biso   1.000  H
  H24      1.0000 0.51880  0.80640  0.91640  Biso   1.000  H
  H25      1.0000 0.54060  0.77510  0.82370  Biso   1.000  H
  C24      1.0000 0.42270  0.78700  0.90390  Biso   1.000  C
  H26      1.0000 0.39040  0.79440  0.87320  Biso   1.000  H
  H27      1.0000 0.43290  0.81480  0.94690  Biso   1.000  H
  H28      1.0000 0.42000  0.75670  0.94480  Biso   1.000  H
  C25      1.0000 0.19130  0.73470  0.44190  Biso   1.000  C
  H29      1.0000 0.17140  0.71410  0.48880  Biso   1.000  H
  H30      1.0000 0.17270  0.76580  0.42880  Biso   1.000  H
  C26      1.0000 0.40250  0.90370  0.54590  Biso   1.000  C
  H31      1.0000 0.38940  0.93750  0.55290  Biso   1.000  H
  H32      1.0000 0.43890  0.90460  0.54730  Biso   1.000  H
  H33      1.0000 0.39040  0.88310  0.60170  Biso   1.000  H
  C27      1.0000 0.23300  0.99030  0.28000  Biso   1.000  C
  H34      1.0000 0.26200  0.00440  0.30970  Biso   1.000  H
  C28      1.0000 0.40810  0.91250  0.36290  Biso   1.000  C
  H35      1.0000 0.40530  0.89380  0.29970  Biso   1.000  H
  H36      1.0000 0.44330  0.91900  0.37740  Biso   1.000  H
  H37      1.0000 0.39030  0.94410  0.35650  Biso   1.000  H
  C29      1.0000 0.23210  0.66240  0.35760  Biso   1.000  C
  H38      1.0000 0.23850  0.64770  0.29040  Biso   1.000  H
  H39      1.0000 0.21490  0.63700  0.39910  Biso   1.000  H
  Br1      1.0000 0.59170  0.39750  0.86920  Biso   1.000  Br
  O3       1.0000 0.70580  0.42650  0.74180  Biso   1.000  O
  C30      1.0000 0.71550  0.46660  0.79000  Biso   1.000  C
  O4       1.0000 0.68480  0.49820  0.81290  Biso   1.000  O
  C31      1.0000 0.76830  0.47690  0.82200  Biso   1.000  C
  H40      1.0000 0.78970  0.44950  0.79980  Biso   1.000  H
  H41      1.0000 0.77970  0.50800  0.79050  Biso   1.000  H
  H42      1.0000 0.76990  0.48010  0.89520  Biso   1.000  H
  C32      1.0000 0.49980  0.56200  0.63650  Biso   1.000  C
  H43      1.0000 0.47670  0.56500  0.58270  Biso   1.000  H
  C33      1.0000 0.50240  0.59870  0.71000  Biso   1.000  C
  C34      1.0000 0.53620  0.59430  0.78900  Biso   1.000  C
  H44      1.0000 0.53790  0.61940  0.83920  Biso   1.000  H
  C35      1.0000 0.56740  0.55320  0.79410  Biso   1.000  C
  H45      1.0000 0.59050  0.55020  0.84800  Biso   1.000  H
  N3       1.0000 0.56480  0.51650  0.72050  Biso   1.000  N
  C36      1.0000 0.53100  0.52090  0.64170  Biso   1.000  C
  H46      1.0000 0.52920  0.49580  0.59140  Biso   1.000  H
  N4       1.0000 0.16660  0.00240  0.17640  Biso   1.000  N
  C37      1.0000 0.17790  0.92820  0.25860  Biso   1.000  C
  H47      1.0000 0.16610  0.89560  0.27270  Biso   1.000  H
  C38      1.0000 0.15210  0.95710  0.19500  Biso   1.000  C
  H48      1.0000 0.12300  0.94440  0.16380  Biso   1.000  H
  C39      1.0000 0.21960  0.94360  0.30260  Biso   1.000  C
  C40      1.0000 0.20540  0.01690  0.21600  Biso   1.000  C
  H49      1.0000 0.21650  0.04950  0.20050  Biso   1.000  H
  Cd2      1.0000 0.64210  0.47139  0.76480  Biso   1.000  Cd
  Br2      1.0000 0.60360  0.42580  0.92590  Biso   1.000  Br
  O5       1.0000 0.69980  0.52400  0.86290  Biso   1.000  O
  O6       1.0000 0.71840  0.44630  0.78600  Biso   1.000  O
  C41      1.0000 0.78310  0.49740  0.84500  Biso   1.000  C
  H50      1.0000 0.80090  0.46760  0.82210  Biso   1.000  H
  H51      1.0000 0.79270  0.52580  0.80330  Biso   1.000  H
  H52      1.0000 0.79160  0.50410  0.91560  Biso   1.000  H
  C42      1.0000 0.72780  0.48890  0.83600  Biso   1.000  C
  N5       1.0000 0.57970  0.52770  0.75660  Biso   1.000  N
  C43      1.0000 0.57660  0.56330  0.83230  Biso   1.000  C
  H53      1.0000 0.59770  0.56120  0.88960  Biso   1.000  H
  C44      1.0000 0.54250  0.60190  0.82430  Biso   1.000  C
  H54      1.0000 0.54030  0.62630  0.87600  Biso   1.000  H
  C45      1.0000 0.51160  0.60500  0.74100  Biso   1.000  C
  C46      1.0000 0.51470  0.56940  0.66480  Biso   1.000  C
  H55      1.0000 0.49360  0.57150  0.60750  Biso   1.000  H
  C47      1.0000 0.54880  0.53070  0.67280  Biso   1.000  C
  H56      1.0000 0.55090  0.50640  0.62110  Biso   1.000  H
  C48      1.0000 0.23960  0.98800  0.25600  Biso   1.000  C
  H57      1.0000 0.26460  0.00500  0.29280  Biso   1.000  H
  C49      1.0000 0.22980  0.93820  0.27570  Biso   1.000  C
  C50      1.0000 0.19320  0.91330  0.22170  Biso   1.000  C
  H58      1.0000 0.18650  0.87930  0.23520  Biso   1.000  H
  C51      1.0000 0.16620  0.93830  0.14790  Biso   1.000  C
  H59      1.0000 0.14120  0.92130  0.11100  Biso   1.000  H
  N6       1.0000 0.17600  0.98810  0.12810  Biso   1.000  N
  C52      1.0000 0.21260  0.01300  0.18200  Biso   1.000  C
  H60      1.0000 0.21930  0.04700  0.16850  Biso   1.000  H
  Ti2      1.0000 0.69427  0.22582  0.17871  Biso   1.000  Ti
  O7       1.0000 0.67750  0.17430  0.08090  Biso   1.000  O
  N7       1.0000 0.76330  0.22680  0.08980  Biso   1.000  N
  H61      1.0000 0.78830  0.24620  0.12970  Biso   1.000  H
  N8       1.0000 0.67920  0.28380  0.05890  Biso   1.000  N
  H62      1.0000 0.65630  0.26900  0.00770  Biso   1.000  H
  O8       1.0000 0.62780  0.23750  0.20950  Biso   1.000  O
  C53      1.0000 0.72570  0.29920  0.00660  Biso   1.000  C
  H63      1.0000 0.74410  0.32250  0.05210  Biso   1.000  H
  C54      1.0000 0.65420  0.32850  0.10360  Biso   1.000  C
  H64      1.0000 0.64810  0.35280  0.04900  Biso   1.000  H
  H65      1.0000 0.67740  0.34410  0.15210  Biso   1.000  H
  C55      1.0000 0.69714  0.08930  0.87290  Biso   1.000  C
  H66      1.0000 0.67850  0.07010  0.82600  Biso   1.000  H
  C56      1.0000 0.67277  0.11800  0.94470  Biso   1.000  C
  C57      1.0000 0.70007  0.14598  0.01320  Biso   1.000  C
  C58      1.0000 0.75173  0.14530  0.00990  Biso   1.000  C
  C59      1.0000 0.77610  0.11660  0.93810  Biso   1.000  C
  H67      1.0000 0.81140  0.11610  0.93590  Biso   1.000  H
  C60      1.0000 0.74880  0.08860  0.86960  Biso   1.000  C
  C61      1.0000 0.57240  0.35823  0.16130  Biso   1.000  C
  H68      1.0000 0.57980  0.38820  0.12650  Biso   1.000  H
  C62      1.0000 0.52850  0.35400  0.21600  Biso   1.000  C
  C63      1.0000 0.51771  0.31010  0.26690  Biso   1.000  C
  H69      1.0000 0.48770  0.30730  0.30430  Biso   1.000  H
  C64      1.0000 0.55080  0.27050  0.26300  Biso   1.000  C
  C65      1.0000 0.59465  0.27466  0.20830  Biso   1.000  C
  C66      1.0000 0.60546  0.31850  0.15740  Biso   1.000  C
  Cd3      1.0000 0.37373  0.54718  0.21110  Biso   1.000  Cd
  C67      1.0000 0.78280  0.17530  0.08150  Biso   1.000  C
  H70      1.0000 0.78250  0.15940  0.14880  Biso   1.000  H
  H71      1.0000 0.81760  0.17620  0.05720  Biso   1.000  H
  C68      1.0000 0.61440  0.11780  0.94870  Biso   1.000  C
  C69      1.0000 0.71840  0.32470  0.90690  Biso   1.000  C
  H72      1.0000 0.69900  0.35560  0.91720  Biso   1.000  H
  H73      1.0000 0.69920  0.30270  0.86150  Biso   1.000  H
  C70      1.0000 0.53830  0.22090  0.32040  Biso   1.000  C
  C71      1.0000 0.59480  0.17170  0.93540  Biso   1.000  C
  H74      1.0000 0.60440  0.19170  0.99410  Biso   1.000  H
  H75      1.0000 0.55850  0.17120  0.92950  Biso   1.000  H
  H76      1.0000 0.60920  0.18630  0.87430  Biso   1.000  H
  C72      1.0000 0.80140  0.29250  0.84600  Biso   1.000  C
  H77      1.0000 0.78670  0.26970  0.79550  Biso   1.000  H
  H78      1.0000 0.83420  0.30350  0.82010  Biso   1.000  H
  C73      1.0000 0.75780  0.25250  0.99170  Biso   1.000  C
  H79      1.0000 0.73960  0.22960  0.94520  Biso   1.000  H
  C74      1.0000 0.53870  0.17710  0.25040  Biso   1.000  C
  H80      1.0000 0.51210  0.18080  0.20030  Biso   1.000  H
  H81      1.0000 0.53330  0.14650  0.28910  Biso   1.000  H
  H82      1.0000 0.57090  0.17530  0.21590  Biso   1.000  H
  C75      1.0000 0.48580  0.22340  0.37470  Biso   1.000  C
  H83      1.0000 0.48430  0.25310  0.41740  Biso   1.000  H
  H84      1.0000 0.48120  0.19360  0.41640  Biso   1.000  H
  H85      1.0000 0.45940  0.22490  0.32370  Biso   1.000  H
  C76      1.0000 0.57730  0.21300  0.40390  Biso   1.000  C
  H86      1.0000 0.60960  0.20560  0.37320  Biso   1.000  H
  H87      1.0000 0.56710  0.18520  0.44690  Biso   1.000  H
  H88      1.0000 0.58000  0.24330  0.44480  Biso   1.000  H
  C77      1.0000 0.80870  0.26530  0.94190  Biso   1.000  C
  H89      1.0000 0.82860  0.28590  0.98880  Biso   1.000  H
  H90      1.0000 0.82730  0.23420  0.92880  Biso   1.000  H
  C78      1.0000 0.59750  0.09630  0.04590  Biso   1.000  C
  H91      1.0000 0.61060  0.06250  0.05290  Biso   1.000  H
  H92      1.0000 0.56110  0.09540  0.04730  Biso   1.000  H
  H93      1.0000 0.60960  0.11690  0.10170  Biso   1.000  H
  C79      1.0000 0.76700  0.00970  0.78000  Biso   1.000  C
  H94      1.0000 0.73800  0.99560  0.80970  Biso   1.000  H
  C80      1.0000 0.59190  0.08750  0.86290  Biso   1.000  C
  H95      1.0000 0.59470  0.10620  0.79970  Biso   1.000  H
  H96      1.0000 0.55670  0.08100  0.87740  Biso   1.000  H
  H97      1.0000 0.60970  0.05590  0.85650  Biso   1.000  H
  C81      1.0000 0.76790  0.33760  0.85760  Biso   1.000  C
  H98      1.0000 0.76150  0.35230  0.79040  Biso   1.000  H
  H99      1.0000 0.78510  0.36300  0.89910  Biso   1.000  H
  Br3      1.0000 0.40830  0.60250  0.36920  Biso   1.000  Br
  O9       1.0000 0.29420  0.57350  0.24180  Biso   1.000  O
  C82      1.0000 0.28450  0.53340  0.29000  Biso   1.000  C
  O10      1.0000 0.31520  0.50180  0.31290  Biso   1.000  O
  C83      1.0000 0.23170  0.52310  0.32200  Biso   1.000  C
  H100     1.0000 0.21030  0.55050  0.29980  Biso   1.000  H
  H101     1.0000 0.22030  0.49200  0.29050  Biso   1.000  H
  H102     1.0000 0.23010  0.51990  0.39520  Biso   1.000  H
  C84      1.0000 0.50020  0.43800  0.13650  Biso   1.000  C
  H103     1.0000 0.52330  0.43500  0.08270  Biso   1.000  H
  C85      1.0000 0.49760  0.40130  0.21000  Biso   1.000  C
  C86      1.0000 0.46380  0.40570  0.28900  Biso   1.000  C
  H104     1.0000 0.46210  0.38060  0.33920  Biso   1.000  H
  C87      1.0000 0.43260  0.44680  0.29410  Biso   1.000  C
  H105     1.0000 0.40950  0.44980  0.34800  Biso   1.000  H
  N9       1.0000 0.43520  0.48350  0.22050  Biso   1.000  N
  C88      1.0000 0.46900  0.47910  0.14170  Biso   1.000  C
  H106     1.0000 0.47080  0.50420  0.09140  Biso   1.000  H
  N10      1.0000 0.83340  0.99760  0.67640  Biso   1.000  N
  C89      1.0000 0.82210  0.07180  0.75860  Biso   1.000  C
  H107     1.0000 0.83390  0.10440  0.77270  Biso   1.000  H
  C90      1.0000 0.84790  0.04290  0.69500  Biso   1.000  C
  H108     1.0000 0.87700  0.05560  0.66380  Biso   1.000  H
  C91      1.0000 0.78040  0.05640  0.80260  Biso   1.000  C
  C92      1.0000 0.79460  0.98310  0.71600  Biso   1.000  C
  H109     1.0000 0.78350  0.95050  0.70050  Biso   1.000  H
  Cd4      1.0000 0.35790  0.52861  0.26480  Biso   1.000  Cd
  Br4      1.0000 0.39640  0.57420  0.42590  Biso   1.000  Br
  O11      1.0000 0.30020  0.47600  0.36290  Biso   1.000  O
  O12      1.0000 0.28160  0.55370  0.28600  Biso   1.000  O
  C93      1.0000 0.21690  0.50260  0.34500  Biso   1.000  C
  H110     1.0000 0.19910  0.53240  0.32210  Biso   1.000  H
  H111     1.0000 0.20730  0.47420  0.30330  Biso   1.000  H
  H112     1.0000 0.20840  0.49590  0.41560  Biso   1.000  H
  C94      1.0000 0.27220  0.51110  0.33600  Biso   1.000  C
  N11      1.0000 0.42030  0.47230  0.25660  Biso   1.000  N
  C95      1.0000 0.42340  0.43670  0.33230  Biso   1.000  C
  H113     1.0000 0.40230  0.43880  0.38960  Biso   1.000  H
  C96      1.0000 0.45750  0.39810  0.32430  Biso   1.000  C
  H114     1.0000 0.45970  0.37370  0.37600  Biso   1.000  H
  C97      1.0000 0.48840  0.39500  0.24100  Biso   1.000  C
  C98      1.0000 0.48530  0.43060  0.16480  Biso   1.000  C
  H115     1.0000 0.50640  0.42850  0.10750  Biso   1.000  H
  C99      1.0000 0.45120  0.46930  0.17280  Biso   1.000  C
  H116     1.0000 0.44910  0.49360  0.12110  Biso   1.000  H
  C100     1.0000 0.76040  0.01200  0.75600  Biso   1.000  C
  H117     1.0000 0.73540  0.99500  0.79280  Biso   1.000  H
  C101     1.0000 0.77020  0.06180  0.77570  Biso   1.000  C
  C102     1.0000 0.80680  0.08670  0.72170  Biso   1.000  C
  H118     1.0000 0.81350  0.12070  0.73520  Biso   1.000  H
  C103     1.0000 0.83380  0.06170  0.64790  Biso   1.000  C
  H119     1.0000 0.85880  0.07870  0.61100  Biso   1.000  H
  N12      1.0000 0.82400  0.01190  0.62810  Biso   1.000  N
  C104     1.0000 0.78740  0.98700  0.68200  Biso   1.000  C
  H120     1.0000 0.78070  0.95300  0.66850  Biso   1.000  H
  Ti3      1.0000 0.72582  0.80573  0.92871  Biso   1.000  Ti
  O13      1.0000 0.67430  0.82250  0.83090  Biso   1.000  O
  N13      1.0000 0.72680  0.73670  0.83980  Biso   1.000  N
  H121     1.0000 0.74620  0.71170  0.87970  Biso   1.000  H
  N14      1.0000 0.78380  0.82080  0.80890  Biso   1.000  N
  H122     1.0000 0.76900  0.84370  0.75770  Biso   1.000  H
  O14      1.0000 0.73750  0.87220  0.95950  Biso   1.000  O
  C105     1.0000 0.79920  0.77430  0.75660  Biso   1.000  C
  H123     1.0000 0.82250  0.75590  0.80210  Biso   1.000  H
  C106     1.0000 0.82850  0.84580  0.85360  Biso   1.000  C
  H124     1.0000 0.85280  0.85190  0.79900  Biso   1.000  H
  H125     1.0000 0.84410  0.82260  0.90210  Biso   1.000  H
  C107     1.0000 0.58930  0.80286  0.62290  Biso   1.000  C
  H126     1.0000 0.57010  0.82150  0.57600  Biso   1.000  H
  C108     1.0000 0.61800  0.82723  0.69470  Biso   1.000  C
  C109     1.0000 0.64598  0.79993  0.76320  Biso   1.000  C
  C110     1.0000 0.64530  0.74827  0.75990  Biso   1.000  C
  C111     1.0000 0.61660  0.72390  0.68810  Biso   1.000  C
  H127     1.0000 0.61610  0.68860  0.68590  Biso   1.000  H
  C112     1.0000 0.58860  0.75120  0.61960  Biso   1.000  C
  C113     1.0000 0.85823  0.92760  0.91130  Biso   1.000  C
  H128     1.0000 0.88820  0.92020  0.87650  Biso   1.000  H
  C114     1.0000 0.85400  0.97150  0.96600  Biso   1.000  C
  C115     1.0000 0.81010  0.98229  0.01690  Biso   1.000  C
  H129     1.0000 0.80730  0.01230  0.05430  Biso   1.000  H
  C116     1.0000 0.77050  0.94920  0.01300  Biso   1.000  C
  C117     1.0000 0.77466  0.90535  0.95830  Biso   1.000  C
  C118     1.0000 0.81850  0.89454  0.90740  Biso   1.000  C
  Cd5      1.0000 0.04718  0.12627  0.96110  Biso   1.000  Cd
  C119     1.0000 0.67530  0.71720  0.83150  Biso   1.000  C
  H130     1.0000 0.65940  0.71750  0.89880  Biso   1.000  H
  H131     1.0000 0.67620  0.68240  0.80720  Biso   1.000  H
  C120     1.0000 0.61780  0.88560  0.69870  Biso   1.000  C
  C121     1.0000 0.82470  0.78160  0.65690  Biso   1.000  C
  H132     1.0000 0.85560  0.80100  0.66720  Biso   1.000  H
  H133     1.0000 0.80270  0.80080  0.61150  Biso   1.000  H
  C122     1.0000 0.72090  0.96170  0.07040  Biso   1.000  C
  C123     1.0000 0.67170  0.90520  0.68540  Biso   1.000  C
  H134     1.0000 0.69170  0.89560  0.74410  Biso   1.000  H
  H135     1.0000 0.67120  0.94150  0.67950  Biso   1.000  H
  H136     1.0000 0.68630  0.89080  0.62430  Biso   1.000  H
  C124     1.0000 0.79250  0.69860  0.59600  Biso   1.000  C
  H137     1.0000 0.76970  0.71330  0.54550  Biso   1.000  H
  H138     1.0000 0.80350  0.66580  0.57010  Biso   1.000  H
  C125     1.0000 0.75250  0.74220  0.74170  Biso   1.000  C
  H139     1.0000 0.72960  0.76040  0.69520  Biso   1.000  H
  C126     1.0000 0.67710  0.96130  0.00040  Biso   1.000  C
  H140     1.0000 0.68080  0.98790  0.95030  Biso   1.000  H
  H141     1.0000 0.64650  0.96670  0.03910  Biso   1.000  H
  H142     1.0000 0.67530  0.92910  0.96590  Biso   1.000  H
  C127     1.0000 0.72340  0.01420  0.12470  Biso   1.000  C
  H143     1.0000 0.75310  0.01570  0.16740  Biso   1.000  H
  H144     1.0000 0.69360  0.01880  0.16640  Biso   1.000  H
  H145     1.0000 0.72490  0.04060  0.07370  Biso   1.000  H
  C128     1.0000 0.71300  0.92270  0.15390  Biso   1.000  C
  H146     1.0000 0.70560  0.89040  0.12320  Biso   1.000  H
  H147     1.0000 0.68520  0.93290  0.19690  Biso   1.000  H
  H148     1.0000 0.74330  0.92000  0.19480  Biso   1.000  H
  C129     1.0000 0.76530  0.69130  0.69190  Biso   1.000  C
  H149     1.0000 0.78590  0.67140  0.73880  Biso   1.000  H
  H150     1.0000 0.73420  0.67270  0.67880  Biso   1.000  H
  C130     1.0000 0.59630  0.90250  0.79590  Biso   1.000  C
  H151     1.0000 0.56250  0.88940  0.80290  Biso   1.000  H
  H152     1.0000 0.59540  0.93890  0.79730  Biso   1.000  H
  H153     1.0000 0.61690  0.89040  0.85170  Biso   1.000  H
  C131     1.0000 0.50970  0.73300  0.53000  Biso   1.000  C
  H154     1.0000 0.49560  0.76200  0.55970  Biso   1.000  H
  C132     1.0000 0.58750  0.90810  0.61290  Biso   1.000  C
  H155     1.0000 0.60620  0.90530  0.54970  Biso   1.000  H
  H156     1.0000 0.58100  0.94330  0.62740  Biso   1.000  H
  H157     1.0000 0.55590  0.89030  0.60650  Biso   1.000  H
  C133     1.0000 0.83760  0.73210  0.60760  Biso   1.000  C
  H158     1.0000 0.85230  0.73850  0.54040  Biso   1.000  H
  H159     1.0000 0.86300  0.71490  0.64910  Biso   1.000  H
  Br5      1.0000 0.10250  0.09170  0.11920  Biso   1.000  Br
  O15      1.0000 0.07350  0.20580  0.99180  Biso   1.000  O
  C134     1.0000 0.03340  0.21550  0.04000  Biso   1.000  C
  O16      1.0000 0.00180  0.18480  0.06290  Biso   1.000  O
  C135     1.0000 0.02310  0.26830  0.07200  Biso   1.000  C
  H160     1.0000 0.05050  0.28970  0.04980  Biso   1.000  H
  H161     1.0000 0.99200  0.27970  0.04050  Biso   1.000  H
  H162     1.0000 0.01990  0.26990  0.14520  Biso   1.000  H
  C136     1.0000 0.93800  0.99980  0.88650  Biso   1.000  C
  H163     1.0000 0.93500  0.97670  0.83270  Biso   1.000  H
  C137     1.0000 0.90130  0.00240  0.96000  Biso   1.000  C
  C138     1.0000 0.90570  0.03620  0.03900  Biso   1.000  C
  H164     1.0000 0.88060  0.03790  0.08920  Biso   1.000  H
  C139     1.0000 0.94680  0.06740  0.04410  Biso   1.000  C
  H165     1.0000 0.94980  0.09050  0.09800  Biso   1.000  H
  N15      1.0000 0.98350  0.06480  0.97050  Biso   1.000  N
  C140     1.0000 0.97910  0.03100  0.89170  Biso   1.000  C
  H166     1.0000 0.00420  0.02920  0.84140  Biso   1.000  H
  N16      1.0000 0.49760  0.66660  0.42640  Biso   1.000  N
  C141     1.0000 0.57180  0.67790  0.50860  Biso   1.000  C
  H167     1.0000 0.60440  0.66610  0.52270  Biso   1.000  H
  C142     1.0000 0.54290  0.65210  0.44500  Biso   1.000  C
  H168     1.0000 0.55560  0.62300  0.41380  Biso   1.000  H
  C143     1.0000 0.55640  0.71960  0.55260  Biso   1.000  C
  C144     1.0000 0.48310  0.70540  0.46600  Biso   1.000  C
  H169     1.0000 0.45050  0.71650  0.45050  Biso   1.000  H
  Cd6      1.0000 0.02861  0.14210  0.01480  Biso   1.000  Cd
  Br6      1.0000 0.07420  0.10360  0.17590  Biso   1.000  Br
  O17      1.0000 0.97600  0.19980  0.11290  Biso   1.000  O
  O18      1.0000 0.05370  0.21840  0.03600  Biso   1.000  O
  C145     1.0000 0.00260  0.28310  0.09500  Biso   1.000  C
  H170     1.0000 0.03240  0.30090  0.07210  Biso   1.000  H
  H171     1.0000 0.97420  0.29270  0.05330  Biso   1.000  H
  H172     1.0000 0.99590  0.29160  0.16560  Biso   1.000  H
  C146     1.0000 0.01110  0.22780  0.08600  Biso   1.000  C
  N17      1.0000 0.97230  0.07970  0.00660  Biso   1.000  N
  C147     1.0000 0.93670  0.07660  0.08230  Biso   1.000  C
  H173     1.0000 0.93880  0.09770  0.13960  Biso   1.000  H
  C148     1.0000 0.89810  0.04250  0.07430  Biso   1.000  C
  H174     1.0000 0.87370  0.04030  0.12600  Biso   1.000  H
  C149     1.0000 0.89500  0.01160  0.99100  Biso   1.000  C
  C150     1.0000 0.93060  0.01470  0.91480  Biso   1.000  C
  H175     1.0000 0.92850  0.99360  0.85750  Biso   1.000  H
  C151     1.0000 0.96930  0.04880  0.92280  Biso   1.000  C
  H176     1.0000 0.99360  0.05090  0.87110  Biso   1.000  H
  C152     1.0000 0.51200  0.73960  0.50600  Biso   1.000  C
  H177     1.0000 0.49500  0.76460  0.54280  Biso   1.000  H
  C153     1.0000 0.56180  0.72980  0.52570  Biso   1.000  C
  C154     1.0000 0.58670  0.69320  0.47170  Biso   1.000  C
  H178     1.0000 0.62070  0.68650  0.48520  Biso   1.000  H
  C155     1.0000 0.56170  0.66620  0.39790  Biso   1.000  C
  H179     1.0000 0.57870  0.64120  0.36100  Biso   1.000  H
  N18      1.0000 0.51190  0.67600  0.37810  Biso   1.000  N
  C156     1.0000 0.48700  0.71260  0.43200  Biso   1.000  C
  H180     1.0000 0.45300  0.71930  0.41850  Biso   1.000  H
  Ti4      1.0000 0.27418  0.19427  0.42871  Biso   1.000  Ti
  O19      1.0000 0.32570  0.17750  0.33090  Biso   1.000  O
  N19      1.0000 0.27320  0.26330  0.33980  Biso   1.000  N
  H181     1.0000 0.25380  0.28830  0.37970  Biso   1.000  H
  N20      1.0000 0.21620  0.17920  0.30890  Biso   1.000  N
  H182     1.0000 0.23100  0.15630  0.25770  Biso   1.000  H
  O20      1.0000 0.26250  0.12780  0.45950  Biso   1.000  O
  C157     1.0000 0.20080  0.22570  0.25660  Biso   1.000  C
  H183     1.0000 0.17750  0.24410  0.30210  Biso   1.000  H
  C158     1.0000 0.17150  0.15420  0.35360  Biso   1.000  C
  H184     1.0000 0.14720  0.14810  0.29900  Biso   1.000  H
  H185     1.0000 0.15590  0.17740  0.40210  Biso   1.000  H
  C159     1.0000 0.41070  0.19714  0.12290  Biso   1.000  C
  H186     1.0000 0.42990  0.17850  0.07600  Biso   1.000  H
  C160     1.0000 0.38200  0.17277  0.19470  Biso   1.000  C
  C161     1.0000 0.35402  0.20007  0.26320  Biso   1.000  C
  C162     1.0000 0.35470  0.25173  0.25990  Biso   1.000  C
  C163     1.0000 0.38340  0.27610  0.18810  Biso   1.000  C
  H187     1.0000 0.38390  0.31140  0.18590  Biso   1.000  H
  C164     1.0000 0.41140  0.24880  0.11960  Biso   1.000  C
  C165     1.0000 0.14177  0.07240  0.41130  Biso   1.000  C
  H188     1.0000 0.11180  0.07980  0.37650  Biso   1.000  H
  C166     1.0000 0.14600  0.02850  0.46600  Biso   1.000  C
  C167     1.0000 0.18990  0.01771  0.51690  Biso   1.000  C
  H189     1.0000 0.19270  0.98770  0.55430  Biso   1.000  H
  C168     1.0000 0.22950  0.05080  0.51300  Biso   1.000  C
  C169     1.0000 0.22534  0.09465  0.45830  Biso   1.000  C
  C170     1.0000 0.18150  0.10546  0.40740  Biso   1.000  C
  Cd7      1.0000 0.95282  0.87373  0.46110  Biso   1.000  Cd
  C171     1.0000 0.32470  0.28280  0.33150  Biso   1.000  C
  H190     1.0000 0.34060  0.28250  0.39880  Biso   1.000  H
  H191     1.0000 0.32380  0.31760  0.30720  Biso   1.000  H
  C172     1.0000 0.38220  0.11440  0.19870  Biso   1.000  C
  C173     1.0000 0.17530  0.21840  0.15690  Biso   1.000  C
  H192     1.0000 0.14440  0.19900  0.16720  Biso   1.000  H
  H193     1.0000 0.19730  0.19920  0.11150  Biso   1.000  H
  C174     1.0000 0.27910  0.03830  0.57040  Biso   1.000  C
  C175     1.0000 0.32830  0.09480  0.18540  Biso   1.000  C
  H194     1.0000 0.30830  0.10440  0.24410  Biso   1.000  H
  H195     1.0000 0.32880  0.05850  0.17950  Biso   1.000  H
  H196     1.0000 0.31370  0.10920  0.12430  Biso   1.000  H
  C176     1.0000 0.20750  0.30140  0.09600  Biso   1.000  C
  H197     1.0000 0.23030  0.28670  0.04550  Biso   1.000  H
  H198     1.0000 0.19650  0.33420  0.07010  Biso   1.000  H
  C177     1.0000 0.24750  0.25780  0.24170  Biso   1.000  C
  H199     1.0000 0.27040  0.23960  0.19520  Biso   1.000  H
  C178     1.0000 0.32290  0.03870  0.50040  Biso   1.000  C
  H200     1.0000 0.31920  0.01210  0.45030  Biso   1.000  H
  H201     1.0000 0.35350  0.03330  0.53910  Biso   1.000  H
  H202     1.0000 0.32470  0.07090  0.46590  Biso   1.000  H
  C179     1.0000 0.27660  0.98580  0.62470  Biso   1.000  C
  H203     1.0000 0.24690  0.98430  0.66740  Biso   1.000  H
  H204     1.0000 0.30640  0.98120  0.66640  Biso   1.000  H
  H205     1.0000 0.27510  0.95940  0.57370  Biso   1.000  H
  C180     1.0000 0.28700  0.07730  0.65390  Biso   1.000  C
  H206     1.0000 0.29440  0.10960  0.62320  Biso   1.000  H
  H207     1.0000 0.31480  0.06710  0.69690  Biso   1.000  H
  H208     1.0000 0.25670  0.08000  0.69480  Biso   1.000  H
  C181     1.0000 0.23470  0.30870  0.19190  Biso   1.000  C
  H209     1.0000 0.21410  0.32860  0.23880  Biso   1.000  H
  H210     1.0000 0.26580  0.32730  0.17880  Biso   1.000  H
  C182     1.0000 0.40370  0.09750  0.29590  Biso   1.000  C
  H211     1.0000 0.43750  0.11060  0.30290  Biso   1.000  H
  H212     1.0000 0.40460  0.06110  0.29730  Biso   1.000  H
  H213     1.0000 0.38310  0.10960  0.35170  Biso   1.000  H
  C183     1.0000 0.49030  0.26700  0.03000  Biso   1.000  C
  H214     1.0000 0.50440  0.23800  0.05970  Biso   1.000  H
  C184     1.0000 0.41250  0.09190  0.11290  Biso   1.000  C
  H215     1.0000 0.39380  0.09470  0.04970  Biso   1.000  H
  H216     1.0000 0.41900  0.05670  0.12740  Biso   1.000  H
  H217     1.0000 0.44410  0.10970  0.10650  Biso   1.000  H
  C185     1.0000 0.16240  0.26790  0.10760  Biso   1.000  C
  H218     1.0000 0.14770  0.26150  0.04040  Biso   1.000  H
  H219     1.0000 0.13700  0.28510  0.14910  Biso   1.000  H
  Br7      1.0000 0.89750  0.90830  0.61920  Biso   1.000  Br
  O21      1.0000 0.92650  0.79420  0.49180  Biso   1.000  O
  C186     1.0000 0.96660  0.78450  0.54000  Biso   1.000  C
  O22      1.0000 0.99820  0.81520  0.56290  Biso   1.000  O
  C187     1.0000 0.97690  0.73170  0.57200  Biso   1.000  C
  H220     1.0000 0.94950  0.71030  0.54980  Biso   1.000  H
  H221     1.0000 0.00800  0.72030  0.54050  Biso   1.000  H
  H222     1.0000 0.98010  0.73010  0.64520  Biso   1.000  H
  C188     1.0000 0.06200  0.00020  0.38650  Biso   1.000  C
  H223     1.0000 0.06500  0.02330  0.33270  Biso   1.000  H
  C189     1.0000 0.09870  0.99760  0.46000  Biso   1.000  C
  C190     1.0000 0.09430  0.96380  0.53900  Biso   1.000  C
  H224     1.0000 0.11940  0.96210  0.58920  Biso   1.000  H
  C191     1.0000 0.05320  0.93260  0.54410  Biso   1.000  C
  H225     1.0000 0.05020  0.90950  0.59800  Biso   1.000  H
  N21      1.0000 0.01650  0.93520  0.47050  Biso   1.000  N
  C192     1.0000 0.02090  0.96900  0.39170  Biso   1.000  C
  H226     1.0000 0.99580  0.97080  0.34140  Biso   1.000  H
  N22      1.0000 0.50240  0.33340  0.92640  Biso   1.000  N
  C193     1.0000 0.42820  0.32210  0.00860  Biso   1.000  C
  H227     1.0000 0.39560  0.33390  0.02270  Biso   1.000  H
  C194     1.0000 0.45710  0.34790  0.94500  Biso   1.000  C
  H228     1.0000 0.44440  0.37700  0.91380  Biso   1.000  H
  C195     1.0000 0.44360  0.28040  0.05260  Biso   1.000  C
  C196     1.0000 0.51690  0.29460  0.96600  Biso   1.000  C
  H229     1.0000 0.54950  0.28350  0.95050  Biso   1.000  H
  Cd8      1.0000 0.97139  0.85790  0.51480  Biso   1.000  Cd
  Br8      1.0000 0.92580  0.89640  0.67590  Biso   1.000  Br
  O23      1.0000 0.02400  0.80020  0.61290  Biso   1.000  O
  O24      1.0000 0.94630  0.78160  0.53600  Biso   1.000  O
  C197     1.0000 0.99740  0.71690  0.59500  Biso   1.000  C
  H230     1.0000 0.96760  0.69910  0.57210  Biso   1.000  H
  H231     1.0000 0.02580  0.70730  0.55330  Biso   1.000  H
  H232     1.0000 0.00410  0.70840  0.66560  Biso   1.000  H
  C198     1.0000 0.98890  0.77220  0.58600  Biso   1.000  C
  N23      1.0000 0.02770  0.92030  0.50660  Biso   1.000  N
  C199     1.0000 0.06330  0.92340  0.58230  Biso   1.000  C
  H233     1.0000 0.06120  0.90230  0.63960  Biso   1.000  H
  C200     1.0000 0.10190  0.95750  0.57430  Biso   1.000  C
  H234     1.0000 0.12630  0.95970  0.62600  Biso   1.000  H
  C201     1.0000 0.10500  0.98840  0.49100  Biso   1.000  C
  C202     1.0000 0.06940  0.98530  0.41480  Biso   1.000  C
  H235     1.0000 0.07150  0.00640  0.35750  Biso   1.000  H
  C203     1.0000 0.03070  0.95120  0.42280  Biso   1.000  C
  H236     1.0000 0.00640  0.94910  0.37110  Biso   1.000  H
  C204     1.0000 0.48800  0.26040  0.00600  Biso   1.000  C
  H237     1.0000 0.50500  0.23540  0.04280  Biso   1.000  H
  C205     1.0000 0.43820  0.27020  0.02570  Biso   1.000  C
  C206     1.0000 0.41330  0.30680  0.97170  Biso   1.000  C
  H238     1.0000 0.37930  0.31350  0.98520  Biso   1.000  H
  C207     1.0000 0.43830  0.33380  0.89790  Biso   1.000  C
  H239     1.0000 0.42130  0.35880  0.86100  Biso   1.000  H
  N24      1.0000 0.48810  0.32400  0.87810  Biso   1.000  N
  C208     1.0000 0.51300  0.28740  0.93200  Biso   1.000  C
  H240     1.0000 0.54700  0.28070  0.91850  Biso   1.000  H
  Ti5      1.0000 0.19427  0.27418  0.57129  Biso   1.000  Ti
  O25      1.0000 0.17750  0.32570  0.66910  Biso   1.000  O
  N25      1.0000 0.26330  0.27320  0.66020  Biso   1.000  N
  H241     1.0000 0.28830  0.25380  0.62030  Biso   1.000  H
  N26      1.0000 0.17920  0.21620  0.69110  Biso   1.000  N
  H242     1.0000 0.15630  0.23100  0.74230  Biso   1.000  H
  O26      1.0000 0.12780  0.26250  0.54050  Biso   1.000  O
  C209     1.0000 0.22570  0.20080  0.74340  Biso   1.000  C
  H243     1.0000 0.24410  0.17750  0.69790  Biso   1.000  H
  C210     1.0000 0.15420  0.17150  0.64640  Biso   1.000  C
  H244     1.0000 0.14810  0.14720  0.70100  Biso   1.000  H
  H245     1.0000 0.17740  0.15590  0.59790  Biso   1.000  H
  C211     1.0000 0.19714  0.41070  0.87710  Biso   1.000  C
  H246     1.0000 0.17850  0.42990  0.92400  Biso   1.000  H
  C212     1.0000 0.17277  0.38200  0.80530  Biso   1.000  C
  C213     1.0000 0.20007  0.35402  0.73680  Biso   1.000  C
  C214     1.0000 0.25173  0.35470  0.74010  Biso   1.000  C
  C215     1.0000 0.27610  0.38340  0.81190  Biso   1.000  C
  H247     1.0000 0.31140  0.38390  0.81410  Biso   1.000  H
  C216     1.0000 0.24880  0.41140  0.88040  Biso   1.000  C
  C217     1.0000 0.07240  0.14177  0.58870  Biso   1.000  C
  H248     1.0000 0.07980  0.11180  0.62350  Biso   1.000  H
  C218     1.0000 0.02850  0.14600  0.53400  Biso   1.000  C
  C219     1.0000 0.01771  0.18990  0.48310  Biso   1.000  C
  H249     1.0000 0.98770  0.19270  0.44570  Biso   1.000  H
  C220     1.0000 0.05080  0.22950  0.48700  Biso   1.000  C
  C221     1.0000 0.09465  0.22534  0.54170  Biso   1.000  C
  C222     1.0000 0.10546  0.18150  0.59260  Biso   1.000  C
  Cd9      1.0000 0.87373  0.95282  0.53890  Biso   1.000  Cd
  C223     1.0000 0.28280  0.32470  0.66850  Biso   1.000  C
  H250     1.0000 0.28250  0.34060  0.60120  Biso   1.000  H
  H251     1.0000 0.31760  0.32380  0.69280  Biso   1.000  H
  C224     1.0000 0.11440  0.38220  0.80130  Biso   1.000  C
  C225     1.0000 0.21840  0.17530  0.84310  Biso   1.000  C
  H252     1.0000 0.19900  0.14440  0.83280  Biso   1.000  H
  H253     1.0000 0.19920  0.19730  0.88850  Biso   1.000  H
  C226     1.0000 0.03830  0.27910  0.42960  Biso   1.000  C
  C227     1.0000 0.09480  0.32830  0.81460  Biso   1.000  C
  H254     1.0000 0.10440  0.30830  0.75590  Biso   1.000  H
  H255     1.0000 0.05850  0.32880  0.82050  Biso   1.000  H
  H256     1.0000 0.10920  0.31370  0.87570  Biso   1.000  H
  C228     1.0000 0.30140  0.20750  0.90400  Biso   1.000  C
  H257     1.0000 0.28670  0.23030  0.95450  Biso   1.000  H
  H258     1.0000 0.33420  0.19650  0.92990  Biso   1.000  H
  C229     1.0000 0.25780  0.24750  0.75830  Biso   1.000  C
  H259     1.0000 0.23960  0.27040  0.80480  Biso   1.000  H
  C230     1.0000 0.03870  0.32290  0.49960  Biso   1.000  C
  H260     1.0000 0.01210  0.31920  0.54970  Biso   1.000  H
  H261     1.0000 0.03330  0.35350  0.46090  Biso   1.000  H
  H262     1.0000 0.07090  0.32470  0.53410  Biso   1.000  H
  C231     1.0000 0.98580  0.27660  0.37530  Biso   1.000  C
  H263     1.0000 0.98430  0.24690  0.33260  Biso   1.000  H
  H264     1.0000 0.98120  0.30640  0.33360  Biso   1.000  H
  H265     1.0000 0.95940  0.27510  0.42630  Biso   1.000  H
  C232     1.0000 0.07730  0.28700  0.34610  Biso   1.000  C
  H266     1.0000 0.10960  0.29440  0.37680  Biso   1.000  H
  H267     1.0000 0.06710  0.31480  0.30310  Biso   1.000  H
  H268     1.0000 0.08000  0.25670  0.30520  Biso   1.000  H
  C233     1.0000 0.30870  0.23470  0.80810  Biso   1.000  C
  H269     1.0000 0.32860  0.21410  0.76120  Biso   1.000  H
  H270     1.0000 0.32730  0.26580  0.82120  Biso   1.000  H
  C234     1.0000 0.09750  0.40370  0.70410  Biso   1.000  C
  H271     1.0000 0.11060  0.43750  0.69710  Biso   1.000  H
  H272     1.0000 0.06110  0.40460  0.70270  Biso   1.000  H
  H273     1.0000 0.10960  0.38310  0.64830  Biso   1.000  H
  C235     1.0000 0.26700  0.49030  0.97000  Biso   1.000  C
  H274     1.0000 0.23800  0.50440  0.94030  Biso   1.000  H
  C236     1.0000 0.09190  0.41250  0.88710  Biso   1.000  C
  H275     1.0000 0.09470  0.39380  0.95030  Biso   1.000  H
  H276     1.0000 0.05670  0.41900  0.87260  Biso   1.000  H
  H277     1.0000 0.10970  0.44410  0.89350  Biso   1.000  H
  C237     1.0000 0.26790  0.16240  0.89240  Biso   1.000  C
  H278     1.0000 0.26150  0.14770  0.95960  Biso   1.000  H
  H279     1.0000 0.28510  0.13700  0.85090  Biso   1.000  H
  Br9      1.0000 0.90830  0.89750  0.38080  Biso   1.000  Br
  O27      1.0000 0.79420  0.92650  0.50820  Biso   1.000  O
  C238     1.0000 0.78450  0.96660  0.46000  Biso   1.000  C
  O28      1.0000 0.81520  0.99820  0.43710  Biso   1.000  O
  C239     1.0000 0.73170  0.97690  0.42800  Biso   1.000  C
  H280     1.0000 0.71030  0.94950  0.45020  Biso   1.000  H
  H281     1.0000 0.72030  0.00800  0.45950  Biso   1.000  H
  H282     1.0000 0.73010  0.98010  0.35480  Biso   1.000  H
  C240     1.0000 0.00020  0.06200  0.61350  Biso   1.000  C
  H283     1.0000 0.02330  0.06500  0.66730  Biso   1.000  H
  C241     1.0000 0.99760  0.09870  0.54000  Biso   1.000  C
  C242     1.0000 0.96380  0.09430  0.46100  Biso   1.000  C
  H284     1.0000 0.96210  0.11940  0.41080  Biso   1.000  H
  C243     1.0000 0.93260  0.05320  0.45590  Biso   1.000  C
  H285     1.0000 0.90950  0.05020  0.40200  Biso   1.000  H
  N27      1.0000 0.93520  0.01650  0.52950  Biso   1.000  N
  C244     1.0000 0.96900  0.02090  0.60830  Biso   1.000  C
  H286     1.0000 0.97080  0.99580  0.65860  Biso   1.000  H
  N28      1.0000 0.33340  0.50240  0.07360  Biso   1.000  N
  C245     1.0000 0.32210  0.42820  0.99140  Biso   1.000  C
  H287     1.0000 0.33390  0.39560  0.97730  Biso   1.000  H
  C246     1.0000 0.34790  0.45710  0.05500  Biso   1.000  C
  H288     1.0000 0.37700  0.44440  0.08620  Biso   1.000  H
  C247     1.0000 0.28040  0.44360  0.94740  Biso   1.000  C
  C248     1.0000 0.29460  0.51690  0.03400  Biso   1.000  C
  H289     1.0000 0.28350  0.54950  0.04950  Biso   1.000  H
  Cd10     1.0000 0.85790  0.97139  0.48520  Biso   1.000  Cd
  Br10     1.0000 0.89640  0.92580  0.32410  Biso   1.000  Br
  O29      1.0000 0.80020  0.02400  0.38710  Biso   1.000  O
  O30      1.0000 0.78160  0.94630  0.46400  Biso   1.000  O
  C249     1.0000 0.71690  0.99740  0.40500  Biso   1.000  C
  H290     1.0000 0.69910  0.96760  0.42790  Biso   1.000  H
  H291     1.0000 0.70730  0.02580  0.44670  Biso   1.000  H
  H292     1.0000 0.70840  0.00410  0.33440  Biso   1.000  H
  C250     1.0000 0.77220  0.98890  0.41400  Biso   1.000  C
  N29      1.0000 0.92030  0.02770  0.49340  Biso   1.000  N
  C251     1.0000 0.92340  0.06330  0.41770  Biso   1.000  C
  H293     1.0000 0.90230  0.06120  0.36040  Biso   1.000  H
  C252     1.0000 0.95750  0.10190  0.42570  Biso   1.000  C
  H294     1.0000 0.95970  0.12630  0.37400  Biso   1.000  H
  C253     1.0000 0.98840  0.10500  0.50900  Biso   1.000  C
  C254     1.0000 0.98530  0.06940  0.58520  Biso   1.000  C
  H295     1.0000 0.00640  0.07150  0.64250  Biso   1.000  H
  C255     1.0000 0.95120  0.03070  0.57720  Biso   1.000  C
  H296     1.0000 0.94910  0.00640  0.62890  Biso   1.000  H
  C256     1.0000 0.26040  0.48800  0.99400  Biso   1.000  C
  H297     1.0000 0.23540  0.50500  0.95720  Biso   1.000  H
  C257     1.0000 0.27020  0.43820  0.97430  Biso   1.000  C
  C258     1.0000 0.30680  0.41330  0.02830  Biso   1.000  C
  H298     1.0000 0.31350  0.37930  0.01480  Biso   1.000  H
  C259     1.0000 0.33380  0.43830  0.10210  Biso   1.000  C
  H299     1.0000 0.35880  0.42130  0.13900  Biso   1.000  H
  N30      1.0000 0.32400  0.48810  0.12190  Biso   1.000  N
  C260     1.0000 0.28740  0.51300  0.06800  Biso   1.000  C
  H300     1.0000 0.28070  0.54700  0.08150  Biso   1.000  H
  Ti6      1.0000 0.80573  0.72582  0.07129  Biso   1.000  Ti
  O31      1.0000 0.82250  0.67430  0.16910  Biso   1.000  O
  N31      1.0000 0.73670  0.72680  0.16020  Biso   1.000  N
  H301     1.0000 0.71170  0.74620  0.12030  Biso   1.000  H
  N32      1.0000 0.82080  0.78380  0.19110  Biso   1.000  N
  H302     1.0000 0.84370  0.76900  0.24230  Biso   1.000  H
  O32      1.0000 0.87220  0.73750  0.04050  Biso   1.000  O
  C261     1.0000 0.77430  0.79920  0.24340  Biso   1.000  C
  H303     1.0000 0.75590  0.82250  0.19790  Biso   1.000  H
  C262     1.0000 0.84580  0.82850  0.14640  Biso   1.000  C
  H304     1.0000 0.85190  0.85280  0.20100  Biso   1.000  H
  H305     1.0000 0.82260  0.84410  0.09790  Biso   1.000  H
  C263     1.0000 0.80286  0.58930  0.37710  Biso   1.000  C
  H306     1.0000 0.82150  0.57010  0.42400  Biso   1.000  H
  C264     1.0000 0.82723  0.61800  0.30530  Biso   1.000  C
  C265     1.0000 0.79993  0.64598  0.23680  Biso   1.000  C
  C266     1.0000 0.74827  0.64530  0.24010  Biso   1.000  C
  C267     1.0000 0.72390  0.61660  0.31190  Biso   1.000  C
  H307     1.0000 0.68860  0.61610  0.31410  Biso   1.000  H
  C268     1.0000 0.75120  0.58860  0.38040  Biso   1.000  C
  C269     1.0000 0.92760  0.85823  0.08870  Biso   1.000  C
  H308     1.0000 0.92020  0.88820  0.12350  Biso   1.000  H
  C270     1.0000 0.97150  0.85400  0.03400  Biso   1.000  C
  C271     1.0000 0.98229  0.81010  0.98310  Biso   1.000  C
  H309     1.0000 0.01230  0.80730  0.94570  Biso   1.000  H
  C272     1.0000 0.94920  0.77050  0.98700  Biso   1.000  C
  C273     1.0000 0.90535  0.77466  0.04170  Biso   1.000  C
  C274     1.0000 0.89454  0.81850  0.09260  Biso   1.000  C
  Cd11     1.0000 0.12627  0.04718  0.03890  Biso   1.000  Cd
  C275     1.0000 0.71720  0.67530  0.16850  Biso   1.000  C
  H310     1.0000 0.71750  0.65940  0.10120  Biso   1.000  H
  H311     1.0000 0.68240  0.67620  0.19280  Biso   1.000  H
  C276     1.0000 0.88560  0.61780  0.30130  Biso   1.000  C
  C277     1.0000 0.78160  0.82470  0.34310  Biso   1.000  C
  H312     1.0000 0.80100  0.85560  0.33280  Biso   1.000  H
  H313     1.0000 0.80080  0.80270  0.38850  Biso   1.000  H
  C278     1.0000 0.96170  0.72090  0.92960  Biso   1.000  C
  C279     1.0000 0.90520  0.67170  0.31460  Biso   1.000  C
  H314     1.0000 0.89560  0.69170  0.25590  Biso   1.000  H
  H315     1.0000 0.94150  0.67120  0.32050  Biso   1.000  H
  H316     1.0000 0.89080  0.68630  0.37570  Biso   1.000  H
  C280     1.0000 0.69860  0.79250  0.40400  Biso   1.000  C
  H317     1.0000 0.71330  0.76970  0.45450  Biso   1.000  H
  H318     1.0000 0.66580  0.80350  0.42990  Biso   1.000  H
  C281     1.0000 0.74220  0.75250  0.25830  Biso   1.000  C
  H319     1.0000 0.76040  0.72960  0.30480  Biso   1.000  H
  C282     1.0000 0.96130  0.67710  0.99960  Biso   1.000  C
  H320     1.0000 0.98790  0.68080  0.04970  Biso   1.000  H
  H321     1.0000 0.96670  0.64650  0.96090  Biso   1.000  H
  H322     1.0000 0.92910  0.67530  0.03410  Biso   1.000  H
  C283     1.0000 0.01420  0.72340  0.87530  Biso   1.000  C
  H323     1.0000 0.01570  0.75310  0.83260  Biso   1.000  H
  H324     1.0000 0.01880  0.69360  0.83360  Biso   1.000  H
  H325     1.0000 0.04060  0.72490  0.92630  Biso   1.000  H
  C284     1.0000 0.92270  0.71300  0.84610  Biso   1.000  C
  H326     1.0000 0.89040  0.70560  0.87680  Biso   1.000  H
  H327     1.0000 0.93290  0.68520  0.80310  Biso   1.000  H
  H328     1.0000 0.92000  0.74330  0.80520  Biso   1.000  H
  C285     1.0000 0.69130  0.76530  0.30810  Biso   1.000  C
  H329     1.0000 0.67140  0.78590  0.26120  Biso   1.000  H
  H330     1.0000 0.67270  0.73420  0.32120  Biso   1.000  H
  C286     1.0000 0.90250  0.59630  0.20410  Biso   1.000  C
  H331     1.0000 0.88940  0.56250  0.19710  Biso   1.000  H
  H332     1.0000 0.93890  0.59540  0.20270  Biso   1.000  H
  H333     1.0000 0.89040  0.61690  0.14830  Biso   1.000  H
  C287     1.0000 0.73300  0.50970  0.47000  Biso   1.000  C
  H334     1.0000 0.76200  0.49560  0.44030  Biso   1.000  H
  C288     1.0000 0.90810  0.58750  0.38710  Biso   1.000  C
  H335     1.0000 0.90530  0.60620  0.45030  Biso   1.000  H
  H336     1.0000 0.94330  0.58100  0.37260  Biso   1.000  H
  H337     1.0000 0.89030  0.55590  0.39350  Biso   1.000  H
  C289     1.0000 0.73210  0.83760  0.39240  Biso   1.000  C
  H338     1.0000 0.73850  0.85230  0.45960  Biso   1.000  H
  H339     1.0000 0.71490  0.86300  0.35090  Biso   1.000  H
  Br11     1.0000 0.09170  0.10250  0.88080  Biso   1.000  Br
  O33      1.0000 0.20580  0.07350  0.00820  Biso   1.000  O
  C290     1.0000 0.21550  0.03340  0.96000  Biso   1.000  C
  O34      1.0000 0.18480  0.00180  0.93710  Biso   1.000  O
  C291     1.0000 0.26830  0.02310  0.92800  Biso   1.000  C
  H340     1.0000 0.28970  0.05050  0.95020  Biso   1.000  H
  H341     1.0000 0.27970  0.99200  0.95950  Biso   1.000  H
  H342     1.0000 0.26990  0.01990  0.85480  Biso   1.000  H
  C292     1.0000 0.99980  0.93800  0.11350  Biso   1.000  C
  H343     1.0000 0.97670  0.93500  0.16730  Biso   1.000  H
  C293     1.0000 0.00240  0.90130  0.04000  Biso   1.000  C
  C294     1.0000 0.03620  0.90570  0.96100  Biso   1.000  C
  H344     1.0000 0.03790  0.88060  0.91080  Biso   1.000  H
  C295     1.0000 0.06740  0.94680  0.95590  Biso   1.000  C
  H345     1.0000 0.09050  0.94980  0.90200  Biso   1.000  H
  N33      1.0000 0.06480  0.98350  0.02950  Biso   1.000  N
  C296     1.0000 0.03100  0.97910  0.10830  Biso   1.000  C
  H346     1.0000 0.02920  0.00420  0.15860  Biso   1.000  H
  N34      1.0000 0.66660  0.49760  0.57360  Biso   1.000  N
  C297     1.0000 0.67790  0.57180  0.49140  Biso   1.000  C
  H347     1.0000 0.66610  0.60440  0.47730  Biso   1.000  H
  C298     1.0000 0.65210  0.54290  0.55500  Biso   1.000  C
  H348     1.0000 0.62300  0.55560  0.58620  Biso   1.000  H
  C299     1.0000 0.71960  0.55640  0.44740  Biso   1.000  C
  C300     1.0000 0.70540  0.48310  0.53400  Biso   1.000  C
  H349     1.0000 0.71650  0.45050  0.54950  Biso   1.000  H
  Cd12     1.0000 0.14210  0.02861  0.98520  Biso   1.000  Cd
  Br12     1.0000 0.10360  0.07420  0.82410  Biso   1.000  Br
  O35      1.0000 0.19980  0.97600  0.88710  Biso   1.000  O
  O36      1.0000 0.21840  0.05370  0.96400  Biso   1.000  O
  C301     1.0000 0.28310  0.00260  0.90500  Biso   1.000  C
  H350     1.0000 0.30090  0.03240  0.92790  Biso   1.000  H
  H351     1.0000 0.29270  0.97420  0.94670  Biso   1.000  H
  H352     1.0000 0.29160  0.99590  0.83440  Biso   1.000  H
  C302     1.0000 0.22780  0.01110  0.91400  Biso   1.000  C
  N35      1.0000 0.07970  0.97230  0.99340  Biso   1.000  N
  C303     1.0000 0.07660  0.93670  0.91770  Biso   1.000  C
  H353     1.0000 0.09770  0.93880  0.86040  Biso   1.000  H
  C304     1.0000 0.04250  0.89810  0.92570  Biso   1.000  C
  H354     1.0000 0.04030  0.87370  0.87400  Biso   1.000  H
  C305     1.0000 0.01160  0.89500  0.00900  Biso   1.000  C
  C306     1.0000 0.01470  0.93060  0.08520  Biso   1.000  C
  H355     1.0000 0.99360  0.92850  0.14250  Biso   1.000  H
  C307     1.0000 0.04880  0.96930  0.07720  Biso   1.000  C
  H356     1.0000 0.05090  0.99360  0.12890  Biso   1.000  H
  C308     1.0000 0.73960  0.51200  0.49400  Biso   1.000  C
  H357     1.0000 0.76460  0.49500  0.45720  Biso   1.000  H
  C309     1.0000 0.72980  0.56180  0.47430  Biso   1.000  C
  C310     1.0000 0.69320  0.58670  0.52830  Biso   1.000  C
  H358     1.0000 0.68650  0.62070  0.51480  Biso   1.000  H
  C311     1.0000 0.66620  0.56170  0.60210  Biso   1.000  C
  H359     1.0000 0.64120  0.57870  0.63900  Biso   1.000  H
  N36      1.0000 0.67600  0.51190  0.62190  Biso   1.000  N
  C312     1.0000 0.71260  0.48700  0.56800  Biso   1.000  C
  H360     1.0000 0.71930  0.45300  0.58150  Biso   1.000  H
  Ti7      1.0000 0.77418  0.30573  0.32129  Biso   1.000  Ti
  O37      1.0000 0.82570  0.32250  0.41910  Biso   1.000  O
  N37      1.0000 0.77320  0.23670  0.41020  Biso   1.000  N
  H361     1.0000 0.75380  0.21170  0.37030  Biso   1.000  H
  N38      1.0000 0.71620  0.32080  0.44110  Biso   1.000  N
  H362     1.0000 0.73100  0.34370  0.49230  Biso   1.000  H
  O38      1.0000 0.76250  0.37220  0.29050  Biso   1.000  O
  C313     1.0000 0.70080  0.27430  0.49340  Biso   1.000  C
  H363     1.0000 0.67750  0.25590  0.44790  Biso   1.000  H
  C314     1.0000 0.67150  0.34580  0.39640  Biso   1.000  C
  H364     1.0000 0.64720  0.35190  0.45100  Biso   1.000  H
  H365     1.0000 0.65590  0.32260  0.34790  Biso   1.000  H
  C315     1.0000 0.91070  0.30286  0.62710  Biso   1.000  C
  H366     1.0000 0.92990  0.32150  0.67400  Biso   1.000  H
  C316     1.0000 0.88200  0.32723  0.55530  Biso   1.000  C
  C317     1.0000 0.85402  0.29993  0.48680  Biso   1.000  C
  C318     1.0000 0.85470  0.24827  0.49010  Biso   1.000  C
  C319     1.0000 0.88340  0.22390  0.56190  Biso   1.000  C
  H367     1.0000 0.88390  0.18860  0.56410  Biso   1.000  H
  C320     1.0000 0.91140  0.25120  0.63040  Biso   1.000  C
  C321     1.0000 0.64177  0.42760  0.33870  Biso   1.000  C
  H368     1.0000 0.61180  0.42020  0.37350  Biso   1.000  H
  C322     1.0000 0.64600  0.47150  0.28400  Biso   1.000  C
  C323     1.0000 0.68990  0.48229  0.23310  Biso   1.000  C
  H369     1.0000 0.69270  0.51230  0.19570  Biso   1.000  H
  C324     1.0000 0.72950  0.44920  0.23700  Biso   1.000  C
  C325     1.0000 0.72534  0.40535  0.29170  Biso   1.000  C
  C326     1.0000 0.68150  0.39454  0.34260  Biso   1.000  C
  Cd13     1.0000 0.45282  0.62627  0.28890  Biso   1.000  Cd
  C327     1.0000 0.82470  0.21720  0.41850  Biso   1.000  C
  H370     1.0000 0.84060  0.21750  0.35120  Biso   1.000  H
  H371     1.0000 0.82380  0.18240  0.44280  Biso   1.000  H
  C328     1.0000 0.88220  0.38560  0.55130  Biso   1.000  C
  C329     1.0000 0.67530  0.28160  0.59310  Biso   1.000  C
  H372     1.0000 0.64440  0.30100  0.58280  Biso   1.000  H
  H373     1.0000 0.69730  0.30080  0.63850  Biso   1.000  H
  C330     1.0000 0.77910  0.46170  0.17960  Biso   1.000  C
  C331     1.0000 0.82830  0.40520  0.56460  Biso   1.000  C
  H374     1.0000 0.80830  0.39560  0.50590  Biso   1.000  H
  H375     1.0000 0.82880  0.44150  0.57050  Biso   1.000  H
  H376     1.0000 0.81370  0.39080  0.62570  Biso   1.000  H
  C332     1.0000 0.70750  0.19860  0.65400  Biso   1.000  C
  H377     1.0000 0.73030  0.21330  0.70450  Biso   1.000  H
  H378     1.0000 0.69650  0.16580  0.67990  Biso   1.000  H
  C333     1.0000 0.74750  0.24220  0.50830  Biso   1.000  C
  H379     1.0000 0.77040  0.26040  0.55480  Biso   1.000  H
  C334     1.0000 0.82290  0.46130  0.24960  Biso   1.000  C
  H380     1.0000 0.81920  0.48790  0.29970  Biso   1.000  H
  H381     1.0000 0.85350  0.46670  0.21090  Biso   1.000  H
  H382     1.0000 0.82470  0.42910  0.28410  Biso   1.000  H
  C335     1.0000 0.77660  0.51420  0.12530  Biso   1.000  C
  H383     1.0000 0.74690  0.51570  0.08260  Biso   1.000  H
  H384     1.0000 0.80640  0.51880  0.08360  Biso   1.000  H
  H385     1.0000 0.77510  0.54060  0.17630  Biso   1.000  H
  C336     1.0000 0.78700  0.42270  0.09610  Biso   1.000  C
  H386     1.0000 0.79440  0.39040  0.12680  Biso   1.000  H
  H387     1.0000 0.81480  0.43290  0.05310  Biso   1.000  H
  H388     1.0000 0.75670  0.42000  0.05520  Biso   1.000  H
  C337     1.0000 0.73470  0.19130  0.55810  Biso   1.000  C
  H389     1.0000 0.71410  0.17140  0.51120  Biso   1.000  H
  H390     1.0000 0.76580  0.17270  0.57120  Biso   1.000  H
  C338     1.0000 0.90370  0.40250  0.45410  Biso   1.000  C
  H391     1.0000 0.93750  0.38940  0.44710  Biso   1.000  H
  H392     1.0000 0.90460  0.43890  0.45270  Biso   1.000  H
  H393     1.0000 0.88310  0.39040  0.39830  Biso   1.000  H
  C339     1.0000 0.99030  0.23300  0.72000  Biso   1.000  C
  H394     1.0000 0.00440  0.26200  0.69030  Biso   1.000  H
  C340     1.0000 0.91250  0.40810  0.63710  Biso   1.000  C
  H395     1.0000 0.89380  0.40530  0.70030  Biso   1.000  H
  H396     1.0000 0.91900  0.44330  0.62260  Biso   1.000  H
  H397     1.0000 0.94410  0.39030  0.64350  Biso   1.000  H
  C341     1.0000 0.66240  0.23210  0.64240  Biso   1.000  C
  H398     1.0000 0.64770  0.23850  0.70960  Biso   1.000  H
  H399     1.0000 0.63700  0.21490  0.60090  Biso   1.000  H
  Br13     1.0000 0.39750  0.59170  0.13080  Biso   1.000  Br
  O39      1.0000 0.42650  0.70580  0.25820  Biso   1.000  O
  C342     1.0000 0.46660  0.71550  0.21000  Biso   1.000  C
  O40      1.0000 0.49820  0.68480  0.18710  Biso   1.000  O
  C343     1.0000 0.47690  0.76830  0.17800  Biso   1.000  C
  H400     1.0000 0.44950  0.78970  0.20020  Biso   1.000  H
  H401     1.0000 0.50800  0.77970  0.20950  Biso   1.000  H
  H402     1.0000 0.48010  0.76990  0.10480  Biso   1.000  H
  C344     1.0000 0.56200  0.49980  0.36350  Biso   1.000  C
  H403     1.0000 0.56500  0.47670  0.41730  Biso   1.000  H
  C345     1.0000 0.59870  0.50240  0.29000  Biso   1.000  C
  C346     1.0000 0.59430  0.53620  0.21100  Biso   1.000  C
  H404     1.0000 0.61940  0.53790  0.16080  Biso   1.000  H
  C347     1.0000 0.55320  0.56740  0.20590  Biso   1.000  C
  H405     1.0000 0.55020  0.59050  0.15200  Biso   1.000  H
  N39      1.0000 0.51650  0.56480  0.27950  Biso   1.000  N
  C348     1.0000 0.52090  0.53100  0.35830  Biso   1.000  C
  H406     1.0000 0.49580  0.52920  0.40860  Biso   1.000  H
  N40      1.0000 0.00240  0.16660  0.82360  Biso   1.000  N
  C349     1.0000 0.92820  0.17790  0.74140  Biso   1.000  C
  H407     1.0000 0.89560  0.16610  0.72730  Biso   1.000  H
  C350     1.0000 0.95710  0.15210  0.80500  Biso   1.000  C
  H408     1.0000 0.94440  0.12300  0.83620  Biso   1.000  H
  C351     1.0000 0.94360  0.21960  0.69740  Biso   1.000  C
  C352     1.0000 0.01690  0.20540  0.78400  Biso   1.000  C
  H409     1.0000 0.04950  0.21650  0.79950  Biso   1.000  H
  Cd14     1.0000 0.47139  0.64210  0.23520  Biso   1.000  Cd
  Br14     1.0000 0.42580  0.60360  0.07410  Biso   1.000  Br
  O41      1.0000 0.52400  0.69980  0.13710  Biso   1.000  O
  O42      1.0000 0.44630  0.71840  0.21400  Biso   1.000  O
  C353     1.0000 0.49740  0.78310  0.15500  Biso   1.000  C
  H410     1.0000 0.46760  0.80090  0.17790  Biso   1.000  H
  H411     1.0000 0.52580  0.79270  0.19670  Biso   1.000  H
  H412     1.0000 0.50410  0.79160  0.08440  Biso   1.000  H
  C354     1.0000 0.48890  0.72780  0.16400  Biso   1.000  C
  N41      1.0000 0.52770  0.57970  0.24340  Biso   1.000  N
  C355     1.0000 0.56330  0.57660  0.16770  Biso   1.000  C
  H413     1.0000 0.56120  0.59770  0.11040  Biso   1.000  H
  C356     1.0000 0.60190  0.54250  0.17570  Biso   1.000  C
  H414     1.0000 0.62630  0.54030  0.12400  Biso   1.000  H
  C357     1.0000 0.60500  0.51160  0.25900  Biso   1.000  C
  C358     1.0000 0.56940  0.51470  0.33520  Biso   1.000  C
  H415     1.0000 0.57150  0.49360  0.39250  Biso   1.000  H
  C359     1.0000 0.53070  0.54880  0.32720  Biso   1.000  C
  H416     1.0000 0.50640  0.55090  0.37890  Biso   1.000  H
  C360     1.0000 0.98800  0.23960  0.74400  Biso   1.000  C
  H417     1.0000 0.00500  0.26460  0.70720  Biso   1.000  H
  C361     1.0000 0.93820  0.22980  0.72430  Biso   1.000  C
  C362     1.0000 0.91330  0.19320  0.77830  Biso   1.000  C
  H418     1.0000 0.87930  0.18650  0.76480  Biso   1.000  H
  C363     1.0000 0.93830  0.16620  0.85210  Biso   1.000  C
  H419     1.0000 0.92130  0.14120  0.88900  Biso   1.000  H
  N42      1.0000 0.98810  0.17600  0.87190  Biso   1.000  N
  C364     1.0000 0.01300  0.21260  0.81800  Biso   1.000  C
  H420     1.0000 0.04700  0.21930  0.83150  Biso   1.000  H
  Ti8      1.0000 0.22582  0.69427  0.82129  Biso   1.000  Ti
  O43      1.0000 0.17430  0.67750  0.91910  Biso   1.000  O
  N43      1.0000 0.22680  0.76330  0.91020  Biso   1.000  N
  H421     1.0000 0.24620  0.78830  0.87030  Biso   1.000  H
  N44      1.0000 0.28380  0.67920  0.94110  Biso   1.000  N
  H422     1.0000 0.26900  0.65630  0.99230  Biso   1.000  H
  O44      1.0000 0.23750  0.62780  0.79050  Biso   1.000  O
  C365     1.0000 0.29920  0.72570  0.99340  Biso   1.000  C
  H423     1.0000 0.32250  0.74410  0.94790  Biso   1.000  H
  C366     1.0000 0.32850  0.65420  0.89640  Biso   1.000  C
  H424     1.0000 0.35280  0.64810  0.95100  Biso   1.000  H
  H425     1.0000 0.34410  0.67740  0.84790  Biso   1.000  H
  C367     1.0000 0.08930  0.69714  0.12710  Biso   1.000  C
  H426     1.0000 0.07010  0.67850  0.17400  Biso   1.000  H
  C368     1.0000 0.11800  0.67277  0.05530  Biso   1.000  C
  C369     1.0000 0.14598  0.70007  0.98680  Biso   1.000  C
  C370     1.0000 0.14530  0.75173  0.99010  Biso   1.000  C
  C371     1.0000 0.11660  0.77610  0.06190  Biso   1.000  C
  H427     1.0000 0.11610  0.81140  0.06410  Biso   1.000  H
  C372     1.0000 0.08860  0.74880  0.13040  Biso   1.000  C
  C373     1.0000 0.35823  0.57240  0.83870  Biso   1.000  C
  H428     1.0000 0.38820  0.57980  0.87350  Biso   1.000  H
  C374     1.0000 0.35400  0.52850  0.78400  Biso   1.000  C
  C375     1.0000 0.31010  0.51771  0.73310  Biso   1.000  C
  H429     1.0000 0.30730  0.48770  0.69570  Biso   1.000  H
  C376     1.0000 0.27050  0.55080  0.73700  Biso   1.000  C
  C377     1.0000 0.27466  0.59465  0.79170  Biso   1.000  C
  C378     1.0000 0.31850  0.60546  0.84260  Biso   1.000  C
  Cd15     1.0000 0.54718  0.37373  0.78890  Biso   1.000  Cd
  C379     1.0000 0.17530  0.78280  0.91850  Biso   1.000  C
  H430     1.0000 0.15940  0.78250  0.85120  Biso   1.000  H
  H431     1.0000 0.17620  0.81760  0.94280  Biso   1.000  H
  C380     1.0000 0.11780  0.61440  0.05130  Biso   1.000  C
  C381     1.0000 0.32470  0.71840  0.09310  Biso   1.000  C
  H432     1.0000 0.35560  0.69900  0.08280  Biso   1.000  H
  H433     1.0000 0.30270  0.69920  0.13850  Biso   1.000  H
  C382     1.0000 0.22090  0.53830  0.67960  Biso   1.000  C
  C383     1.0000 0.17170  0.59480  0.06460  Biso   1.000  C
  H434     1.0000 0.19170  0.60440  0.00590  Biso   1.000  H
  H435     1.0000 0.17120  0.55850  0.07050  Biso   1.000  H
  H436     1.0000 0.18630  0.60920  0.12570  Biso   1.000  H
  C384     1.0000 0.29250  0.80140  0.15400  Biso   1.000  C
  H437     1.0000 0.26970  0.78670  0.20450  Biso   1.000  H
  H438     1.0000 0.30350  0.83420  0.17990  Biso   1.000  H
  C385     1.0000 0.25250  0.75780  0.00830  Biso   1.000  C
  H439     1.0000 0.22960  0.73960  0.05480  Biso   1.000  H
  C386     1.0000 0.17710  0.53870  0.74960  Biso   1.000  C
  H440     1.0000 0.18080  0.51210  0.79970  Biso   1.000  H
  H441     1.0000 0.14650  0.53330  0.71090  Biso   1.000  H
  H442     1.0000 0.17530  0.57090  0.78410  Biso   1.000  H
  C387     1.0000 0.22340  0.48580  0.62530  Biso   1.000  C
  H443     1.0000 0.25310  0.48430  0.58260  Biso   1.000  H
  H444     1.0000 0.19360  0.48120  0.58360  Biso   1.000  H
  H445     1.0000 0.22490  0.45940  0.67630  Biso   1.000  H
  C388     1.0000 0.21300  0.57730  0.59610  Biso   1.000  C
  H446     1.0000 0.20560  0.60960  0.62680  Biso   1.000  H
  H447     1.0000 0.18520  0.56710  0.55310  Biso   1.000  H
  H448     1.0000 0.24330  0.58000  0.55520  Biso   1.000  H
  C389     1.0000 0.26530  0.80870  0.05810  Biso   1.000  C
  H449     1.0000 0.28590  0.82860  0.01120  Biso   1.000  H
  H450     1.0000 0.23420  0.82730  0.07120  Biso   1.000  H
  C390     1.0000 0.09630  0.59750  0.95410  Biso   1.000  C
  H451     1.0000 0.06250  0.61060  0.94710  Biso   1.000  H
  H452     1.0000 0.09540  0.56110  0.95270  Biso   1.000  H
  H453     1.0000 0.11690  0.60960  0.89830  Biso   1.000  H
  C391     1.0000 0.00970  0.76700  0.22000  Biso   1.000  C
  H454     1.0000 0.99560  0.73800  0.19030  Biso   1.000  H
  C392     1.0000 0.08750  0.59190  0.13710  Biso   1.000  C
  H455     1.0000 0.10620  0.59470  0.20030  Biso   1.000  H
  H456     1.0000 0.08100  0.55670  0.12260  Biso   1.000  H
  H457     1.0000 0.05590  0.60970  0.14350  Biso   1.000  H
  C393     1.0000 0.33760  0.76790  0.14240  Biso   1.000  C
  H458     1.0000 0.35230  0.76150  0.20960  Biso   1.000  H
  H459     1.0000 0.36300  0.78510  0.10090  Biso   1.000  H
  Br15     1.0000 0.60250  0.40830  0.63080  Biso   1.000  Br
  O45      1.0000 0.57350  0.29420  0.75820  Biso   1.000  O
  C394     1.0000 0.53340  0.28450  0.71000  Biso   1.000  C
  O46      1.0000 0.50180  0.31520  0.68710  Biso   1.000  O
  C395     1.0000 0.52310  0.23170  0.67800  Biso   1.000  C
  H460     1.0000 0.55050  0.21030  0.70020  Biso   1.000  H
  H461     1.0000 0.49200  0.22030  0.70950  Biso   1.000  H
  H462     1.0000 0.51990  0.23010  0.60480  Biso   1.000  H
  C396     1.0000 0.43800  0.50020  0.86350  Biso   1.000  C
  H463     1.0000 0.43500  0.52330  0.91730  Biso   1.000  H
  C397     1.0000 0.40130  0.49760  0.79000  Biso   1.000  C
  C398     1.0000 0.40570  0.46380  0.71100  Biso   1.000  C
  H464     1.0000 0.38060  0.46210  0.66080  Biso   1.000  H
  C399     1.0000 0.44680  0.43260  0.70590  Biso   1.000  C
  H465     1.0000 0.44980  0.40950  0.65200  Biso   1.000  H
  N45      1.0000 0.48350  0.43520  0.77950  Biso   1.000  N
  C400     1.0000 0.47910  0.46900  0.85830  Biso   1.000  C
  H466     1.0000 0.50420  0.47080  0.90860  Biso   1.000  H
  N46      1.0000 0.99760  0.83340  0.32360  Biso   1.000  N
  C401     1.0000 0.07180  0.82210  0.24140  Biso   1.000  C
  H467     1.0000 0.10440  0.83390  0.22730  Biso   1.000  H
  C402     1.0000 0.04290  0.84790  0.30500  Biso   1.000  C
  H468     1.0000 0.05560  0.87700  0.33620  Biso   1.000  H
  C403     1.0000 0.05640  0.78040  0.19740  Biso   1.000  C
  C404     1.0000 0.98310  0.79460  0.28400  Biso   1.000  C
  H469     1.0000 0.95050  0.78350  0.29950  Biso   1.000  H
  Cd16     1.0000 0.52861  0.35790  0.73520  Biso   1.000  Cd
  Br16     1.0000 0.57420  0.39640  0.57410  Biso   1.000  Br
  O47      1.0000 0.47600  0.30020  0.63710  Biso   1.000  O
  O48      1.0000 0.55370  0.28160  0.71400  Biso   1.000  O
  C405     1.0000 0.50260  0.21690  0.65500  Biso   1.000  C
  H470     1.0000 0.53240  0.19910  0.67790  Biso   1.000  H
  H471     1.0000 0.47420  0.20730  0.69670  Biso   1.000  H
  H472     1.0000 0.49590  0.20840  0.58440  Biso   1.000  H
  C406     1.0000 0.51110  0.27220  0.66400  Biso   1.000  C
  N47      1.0000 0.47230  0.42030  0.74340  Biso   1.000  N
  C407     1.0000 0.43670  0.42340  0.66770  Biso   1.000  C
  H473     1.0000 0.43880  0.40230  0.61040  Biso   1.000  H
  C408     1.0000 0.39810  0.45750  0.67570  Biso   1.000  C
  H474     1.0000 0.37370  0.45970  0.62400  Biso   1.000  H
  C409     1.0000 0.39500  0.48840  0.75900  Biso   1.000  C
  C410     1.0000 0.43060  0.48530  0.83520  Biso   1.000  C
  H475     1.0000 0.42850  0.50640  0.89250  Biso   1.000  H
  C411     1.0000 0.46930  0.45120  0.82720  Biso   1.000  C
  H476     1.0000 0.49360  0.44910  0.87890  Biso   1.000  H
  C412     1.0000 0.01200  0.76040  0.24400  Biso   1.000  C
  H477     1.0000 0.99500  0.73540  0.20720  Biso   1.000  H
  C413     1.0000 0.06180  0.77020  0.22430  Biso   1.000  C
  C414     1.0000 0.08670  0.80680  0.27830  Biso   1.000  C
  H478     1.0000 0.12070  0.81350  0.26480  Biso   1.000  H
  C415     1.0000 0.06170  0.83380  0.35210  Biso   1.000  C
  H479     1.0000 0.07870  0.85880  0.38900  Biso   1.000  H
  N48      1.0000 0.01190  0.82400  0.37190  Biso   1.000  N
  C416     1.0000 0.98700  0.78740  0.31800  Biso   1.000  C
  H480     1.0000 0.95300  0.78070  0.33150  Biso   1.000  H
  O49      1.0000 0.27630  0.72370  0.75000  Biso   1.000  O
  O50      1.0000 0.72370  0.27630  0.25000  Biso   1.000  O
  O51      1.0000 0.77630  0.77630  0.00000  Biso   1.000  O
  O52      1.0000 0.22370  0.22370  0.50000  Biso   1.000  O
