data_image0
_cell_length_a       39.58
_cell_length_b       39.58
_cell_length_c       27.445
_cell_angle_alpha    90
_cell_angle_beta     90
_cell_angle_gamma    90

_symmetry_space_group_name_H-M    "P 1"
_symmetry_int_tables_number       1

loop_
  _symmetry_equiv_pos_as_xyz
  'x, y, z'

loop_
  _atom_site_label
  _atom_site_occupancy
  _atom_site_fract_x
  _atom_site_fract_y
  _atom_site_fract_z
  _atom_site_thermal_displace_type
  _atom_site_B_iso_or_equiv
  _atom_site_type_symbol
  O1       1.0000 0.46540  0.85475  0.95011  Biso   1.000  O
  O2       1.0000 0.46532  0.79748  0.95004  Biso   1.000  O
  O3       1.0000 0.26484  0.78219  0.83711  Biso   1.000  O
  C1       1.0000 0.45488  0.82593  0.93566  Biso   1.000  C
  C2       1.0000 0.42795  0.82628  0.89645  Biso   1.000  C
  C3       1.0000 0.41560  0.79607  0.87840  Biso   1.000  C
  H1       1.0000 0.42380  0.77560  0.88990  Biso   1.000  H
  C4       1.0000 0.39062  0.79694  0.84275  Biso   1.000  C
  H2       1.0000 0.38190  0.77670  0.83100  Biso   1.000  H
  C5       1.0000 0.37849  0.82673  0.82443  Biso   1.000  C
  C6       1.0000 0.39148  0.85663  0.84251  Biso   1.000  C
  H3       1.0000 0.38370  0.87710  0.83010  Biso   1.000  H
  C7       1.0000 0.41541  0.85673  0.87822  Biso   1.000  C
  H4       1.0000 0.42340  0.87710  0.89050  Biso   1.000  H
  C8       1.0000 0.35207  0.82673  0.78602  Biso   1.000  C
  C9       1.0000 0.32698  0.80208  0.78595  Biso   1.000  C
  H5       1.0000 0.32700  0.78560  0.81010  Biso   1.000  H
  C10      1.0000 0.25863  0.76672  0.79312  Biso   1.000  C
  C11      1.0000 0.24500  0.77310  0.87960  Biso   1.000  C
  O4       1.0000 0.96540  0.35475  0.45011  Biso   1.000  O
  O5       1.0000 0.96532  0.29748  0.45004  Biso   1.000  O
  O6       1.0000 0.76484  0.28219  0.33711  Biso   1.000  O
  C12      1.0000 0.95488  0.32593  0.43566  Biso   1.000  C
  C13      1.0000 0.92795  0.32628  0.39645  Biso   1.000  C
  C14      1.0000 0.91560  0.29607  0.37840  Biso   1.000  C
  H6       1.0000 0.92380  0.27560  0.38990  Biso   1.000  H
  C15      1.0000 0.89062  0.29694  0.34275  Biso   1.000  C
  H7       1.0000 0.88190  0.27670  0.33100  Biso   1.000  H
  C16      1.0000 0.87849  0.32673  0.32443  Biso   1.000  C
  C17      1.0000 0.89148  0.35663  0.34251  Biso   1.000  C
  H8       1.0000 0.88370  0.37710  0.33010  Biso   1.000  H
  C18      1.0000 0.91541  0.35673  0.37822  Biso   1.000  C
  H9       1.0000 0.92340  0.37710  0.39050  Biso   1.000  H
  C19      1.0000 0.85207  0.32673  0.28602  Biso   1.000  C
  C20      1.0000 0.82698  0.30208  0.28595  Biso   1.000  C
  H10      1.0000 0.82700  0.28560  0.31010  Biso   1.000  H
  C21      1.0000 0.75863  0.26672  0.29312  Biso   1.000  C
  C22      1.0000 0.74500  0.27310  0.37960  Biso   1.000  C
  O7       1.0000 0.53460  0.14525  0.95011  Biso   1.000  O
  O8       1.0000 0.53468  0.20252  0.95004  Biso   1.000  O
  O9       1.0000 0.73516  0.21781  0.83711  Biso   1.000  O
  C23      1.0000 0.54512  0.17407  0.93566  Biso   1.000  C
  C24      1.0000 0.57205  0.17372  0.89645  Biso   1.000  C
  C25      1.0000 0.58440  0.20393  0.87840  Biso   1.000  C
  H11      1.0000 0.57620  0.22440  0.88990  Biso   1.000  H
  C26      1.0000 0.60938  0.20306  0.84275  Biso   1.000  C
  H12      1.0000 0.61810  0.22330  0.83100  Biso   1.000  H
  C27      1.0000 0.62151  0.17327  0.82443  Biso   1.000  C
  C28      1.0000 0.60852  0.14337  0.84251  Biso   1.000  C
  H13      1.0000 0.61630  0.12290  0.83010  Biso   1.000  H
  C29      1.0000 0.58459  0.14327  0.87822  Biso   1.000  C
  H14      1.0000 0.57660  0.12290  0.89050  Biso   1.000  H
  C30      1.0000 0.64793  0.17327  0.78602  Biso   1.000  C
  C31      1.0000 0.67302  0.19792  0.78595  Biso   1.000  C
  H15      1.0000 0.67300  0.21440  0.81010  Biso   1.000  H
  C32      1.0000 0.74137  0.23328  0.79312  Biso   1.000  C
  C33      1.0000 0.75500  0.22690  0.87960  Biso   1.000  C
  O10      1.0000 0.03460  0.64525  0.45011  Biso   1.000  O
  O11      1.0000 0.03468  0.70252  0.45004  Biso   1.000  O
  O12      1.0000 0.23516  0.71781  0.33711  Biso   1.000  O
  C34      1.0000 0.04512  0.67407  0.43566  Biso   1.000  C
  C35      1.0000 0.07205  0.67372  0.39645  Biso   1.000  C
  C36      1.0000 0.08440  0.70393  0.37840  Biso   1.000  C
  H16      1.0000 0.07620  0.72440  0.38990  Biso   1.000  H
  C37      1.0000 0.10938  0.70306  0.34275  Biso   1.000  C
  H17      1.0000 0.11810  0.72330  0.33100  Biso   1.000  H
  C38      1.0000 0.12151  0.67327  0.32443  Biso   1.000  C
  C39      1.0000 0.10852  0.64337  0.34251  Biso   1.000  C
  H18      1.0000 0.11630  0.62290  0.33010  Biso   1.000  H
  C40      1.0000 0.08459  0.64327  0.37822  Biso   1.000  C
  H19      1.0000 0.07660  0.62290  0.39050  Biso   1.000  H
  C41      1.0000 0.14793  0.67327  0.28602  Biso   1.000  C
  C42      1.0000 0.17302  0.69792  0.28595  Biso   1.000  C
  H20      1.0000 0.17300  0.71440  0.31010  Biso   1.000  H
  C43      1.0000 0.24137  0.73328  0.29312  Biso   1.000  C
  C44      1.0000 0.25500  0.72690  0.37960  Biso   1.000  C
  O13      1.0000 0.14525  0.46540  0.95011  Biso   1.000  O
  O14      1.0000 0.20252  0.46532  0.95004  Biso   1.000  O
  O15      1.0000 0.21781  0.26484  0.83711  Biso   1.000  O
  C45      1.0000 0.17407  0.45488  0.93566  Biso   1.000  C
  C46      1.0000 0.17372  0.42795  0.89645  Biso   1.000  C
  C47      1.0000 0.20393  0.41560  0.87840  Biso   1.000  C
  H21      1.0000 0.22440  0.42380  0.88990  Biso   1.000  H
  C48      1.0000 0.20306  0.39062  0.84275  Biso   1.000  C
  H22      1.0000 0.22330  0.38190  0.83100  Biso   1.000  H
  C49      1.0000 0.17327  0.37849  0.82443  Biso   1.000  C
  C50      1.0000 0.14337  0.39148  0.84251  Biso   1.000  C
  H23      1.0000 0.12290  0.38370  0.83010  Biso   1.000  H
  C51      1.0000 0.14327  0.41541  0.87822  Biso   1.000  C
  H24      1.0000 0.12290  0.42340  0.89050  Biso   1.000  H
  C52      1.0000 0.17327  0.35207  0.78602  Biso   1.000  C
  C53      1.0000 0.19792  0.32698  0.78595  Biso   1.000  C
  H25      1.0000 0.21440  0.32700  0.81010  Biso   1.000  H
  C54      1.0000 0.23328  0.25863  0.79312  Biso   1.000  C
  C55      1.0000 0.22690  0.24500  0.87960  Biso   1.000  C
  O16      1.0000 0.64525  0.96540  0.45011  Biso   1.000  O
  O17      1.0000 0.70252  0.96532  0.45004  Biso   1.000  O
  O18      1.0000 0.71781  0.76484  0.33711  Biso   1.000  O
  C56      1.0000 0.67407  0.95488  0.43566  Biso   1.000  C
  C57      1.0000 0.67372  0.92795  0.39645  Biso   1.000  C
  C58      1.0000 0.70393  0.91560  0.37840  Biso   1.000  C
  H26      1.0000 0.72440  0.92380  0.38990  Biso   1.000  H
  C59      1.0000 0.70306  0.89062  0.34275  Biso   1.000  C
  H27      1.0000 0.72330  0.88190  0.33100  Biso   1.000  H
  C60      1.0000 0.67327  0.87849  0.32443  Biso   1.000  C
  C61      1.0000 0.64337  0.89148  0.34251  Biso   1.000  C
  H28      1.0000 0.62290  0.88370  0.33010  Biso   1.000  H
  C62      1.0000 0.64327  0.91541  0.37822  Biso   1.000  C
  H29      1.0000 0.62290  0.92340  0.39050  Biso   1.000  H
  C63      1.0000 0.67327  0.85207  0.28602  Biso   1.000  C
  C64      1.0000 0.69792  0.82698  0.28595  Biso   1.000  C
  H30      1.0000 0.71440  0.82700  0.31010  Biso   1.000  H
  C65      1.0000 0.73328  0.75863  0.29312  Biso   1.000  C
  C66      1.0000 0.72690  0.74500  0.37960  Biso   1.000  C
  O19      1.0000 0.85475  0.53460  0.95011  Biso   1.000  O
  O20      1.0000 0.79748  0.53468  0.95004  Biso   1.000  O
  O21      1.0000 0.78219  0.73516  0.83711  Biso   1.000  O
  C67      1.0000 0.82593  0.54512  0.93566  Biso   1.000  C
  C68      1.0000 0.82628  0.57205  0.89645  Biso   1.000  C
  C69      1.0000 0.79607  0.58440  0.87840  Biso   1.000  C
  H31      1.0000 0.77560  0.57620  0.88990  Biso   1.000  H
  C70      1.0000 0.79694  0.60938  0.84275  Biso   1.000  C
  H32      1.0000 0.77670  0.61810  0.83100  Biso   1.000  H
  C71      1.0000 0.82673  0.62151  0.82443  Biso   1.000  C
  C72      1.0000 0.85663  0.60852  0.84251  Biso   1.000  C
  H33      1.0000 0.87710  0.61630  0.83010  Biso   1.000  H
  C73      1.0000 0.85673  0.58459  0.87822  Biso   1.000  C
  H34      1.0000 0.87710  0.57660  0.89050  Biso   1.000  H
  C74      1.0000 0.82673  0.64793  0.78602  Biso   1.000  C
  C75      1.0000 0.80208  0.67302  0.78595  Biso   1.000  C
  H35      1.0000 0.78560  0.67300  0.81010  Biso   1.000  H
  C76      1.0000 0.76672  0.74137  0.79312  Biso   1.000  C
  C77      1.0000 0.77310  0.75500  0.87960  Biso   1.000  C
  O22      1.0000 0.35475  0.03460  0.45011  Biso   1.000  O
  O23      1.0000 0.29748  0.03468  0.45004  Biso   1.000  O
  O24      1.0000 0.28219  0.23516  0.33711  Biso   1.000  O
  C78      1.0000 0.32593  0.04512  0.43566  Biso   1.000  C
  C79      1.0000 0.32628  0.07205  0.39645  Biso   1.000  C
  C80      1.0000 0.29607  0.08440  0.37840  Biso   1.000  C
  H36      1.0000 0.27560  0.07620  0.38990  Biso   1.000  H
  C81      1.0000 0.29694  0.10938  0.34275  Biso   1.000  C
  H37      1.0000 0.27670  0.11810  0.33100  Biso   1.000  H
  C82      1.0000 0.32673  0.12151  0.32443  Biso   1.000  C
  C83      1.0000 0.35663  0.10852  0.34251  Biso   1.000  C
  H38      1.0000 0.37710  0.11630  0.33010  Biso   1.000  H
  C84      1.0000 0.35673  0.08459  0.37822  Biso   1.000  C
  H39      1.0000 0.37710  0.07660  0.39050  Biso   1.000  H
  C85      1.0000 0.32673  0.14793  0.28602  Biso   1.000  C
  C86      1.0000 0.30208  0.17302  0.28595  Biso   1.000  C
  H40      1.0000 0.28560  0.17300  0.31010  Biso   1.000  H
  C87      1.0000 0.26672  0.24137  0.29312  Biso   1.000  C
  C88      1.0000 0.27310  0.25500  0.37960  Biso   1.000  C
  O25      1.0000 0.53460  0.85475  0.04989  Biso   1.000  O
  O26      1.0000 0.53468  0.79748  0.04996  Biso   1.000  O
  O27      1.0000 0.73516  0.78219  0.16289  Biso   1.000  O
  C89      1.0000 0.54512  0.82593  0.06434  Biso   1.000  C
  C90      1.0000 0.57205  0.82628  0.10355  Biso   1.000  C
  C91      1.0000 0.58440  0.79607  0.12160  Biso   1.000  C
  H41      1.0000 0.57620  0.77560  0.11010  Biso   1.000  H
  C92      1.0000 0.60938  0.79694  0.15725  Biso   1.000  C
  H42      1.0000 0.61810  0.77670  0.16900  Biso   1.000  H
  C93      1.0000 0.62151  0.82673  0.17557  Biso   1.000  C
  C94      1.0000 0.60852  0.85663  0.15749  Biso   1.000  C
  H43      1.0000 0.61630  0.87710  0.16990  Biso   1.000  H
  C95      1.0000 0.58459  0.85673  0.12178  Biso   1.000  C
  H44      1.0000 0.57660  0.87710  0.10950  Biso   1.000  H
  C96      1.0000 0.64793  0.82673  0.21398  Biso   1.000  C
  C97      1.0000 0.67302  0.80208  0.21405  Biso   1.000  C
  H45      1.0000 0.67300  0.78560  0.18990  Biso   1.000  H
  C98      1.0000 0.74137  0.76672  0.20688  Biso   1.000  C
  C99      1.0000 0.75500  0.77310  0.12040  Biso   1.000  C
  O28      1.0000 0.03460  0.35475  0.54989  Biso   1.000  O
  O29      1.0000 0.03468  0.29748  0.54996  Biso   1.000  O
  O30      1.0000 0.23516  0.28219  0.66289  Biso   1.000  O
  C100     1.0000 0.04512  0.32593  0.56434  Biso   1.000  C
  C101     1.0000 0.07205  0.32628  0.60355  Biso   1.000  C
  C102     1.0000 0.08440  0.29607  0.62160  Biso   1.000  C
  H46      1.0000 0.07620  0.27560  0.61010  Biso   1.000  H
  C103     1.0000 0.10938  0.29694  0.65725  Biso   1.000  C
  H47      1.0000 0.11810  0.27670  0.66900  Biso   1.000  H
  C104     1.0000 0.12151  0.32673  0.67557  Biso   1.000  C
  C105     1.0000 0.10852  0.35663  0.65749  Biso   1.000  C
  H48      1.0000 0.11630  0.37710  0.66990  Biso   1.000  H
  C106     1.0000 0.08459  0.35673  0.62178  Biso   1.000  C
  H49      1.0000 0.07660  0.37710  0.60950  Biso   1.000  H
  C107     1.0000 0.14793  0.32673  0.71398  Biso   1.000  C
  C108     1.0000 0.17302  0.30208  0.71405  Biso   1.000  C
  H50      1.0000 0.17300  0.28560  0.68990  Biso   1.000  H
  C109     1.0000 0.24137  0.26672  0.70688  Biso   1.000  C
  C110     1.0000 0.25500  0.27310  0.62040  Biso   1.000  C
  O31      1.0000 0.46540  0.14525  0.04989  Biso   1.000  O
  O32      1.0000 0.46532  0.20252  0.04996  Biso   1.000  O
  O33      1.0000 0.26484  0.21781  0.16289  Biso   1.000  O
  C111     1.0000 0.45488  0.17407  0.06434  Biso   1.000  C
  C112     1.0000 0.42795  0.17372  0.10355  Biso   1.000  C
  C113     1.0000 0.41560  0.20393  0.12160  Biso   1.000  C
  H51      1.0000 0.42380  0.22440  0.11010  Biso   1.000  H
  C114     1.0000 0.39062  0.20306  0.15725  Biso   1.000  C
  H52      1.0000 0.38190  0.22330  0.16900  Biso   1.000  H
  C115     1.0000 0.37849  0.17327  0.17557  Biso   1.000  C
  C116     1.0000 0.39148  0.14337  0.15749  Biso   1.000  C
  H53      1.0000 0.38370  0.12290  0.16990  Biso   1.000  H
  C117     1.0000 0.41541  0.14327  0.12178  Biso   1.000  C
  H54      1.0000 0.42340  0.12290  0.10950  Biso   1.000  H
  C118     1.0000 0.35207  0.17327  0.21398  Biso   1.000  C
  C119     1.0000 0.32698  0.19792  0.21405  Biso   1.000  C
  H55      1.0000 0.32700  0.21440  0.18990  Biso   1.000  H
  C120     1.0000 0.25863  0.23328  0.20688  Biso   1.000  C
  C121     1.0000 0.24500  0.22690  0.12040  Biso   1.000  C
  O34      1.0000 0.96540  0.64525  0.54989  Biso   1.000  O
  O35      1.0000 0.96532  0.70252  0.54996  Biso   1.000  O
  O36      1.0000 0.76484  0.71781  0.66289  Biso   1.000  O
  C122     1.0000 0.95488  0.67407  0.56434  Biso   1.000  C
  C123     1.0000 0.92795  0.67372  0.60355  Biso   1.000  C
  C124     1.0000 0.91560  0.70393  0.62160  Biso   1.000  C
  H56      1.0000 0.92380  0.72440  0.61010  Biso   1.000  H
  C125     1.0000 0.89062  0.70306  0.65725  Biso   1.000  C
  H57      1.0000 0.88190  0.72330  0.66900  Biso   1.000  H
  C126     1.0000 0.87849  0.67327  0.67557  Biso   1.000  C
  C127     1.0000 0.89148  0.64337  0.65749  Biso   1.000  C
  H58      1.0000 0.88370  0.62290  0.66990  Biso   1.000  H
  C128     1.0000 0.91541  0.64327  0.62178  Biso   1.000  C
  H59      1.0000 0.92340  0.62290  0.60950  Biso   1.000  H
  C129     1.0000 0.85207  0.67327  0.71398  Biso   1.000  C
  C130     1.0000 0.82698  0.69792  0.71405  Biso   1.000  C
  H60      1.0000 0.82700  0.71440  0.68990  Biso   1.000  H
  C131     1.0000 0.75863  0.73328  0.70688  Biso   1.000  C
  C132     1.0000 0.74500  0.72690  0.62040  Biso   1.000  C
  O37      1.0000 0.85475  0.46540  0.04989  Biso   1.000  O
  O38      1.0000 0.79748  0.46532  0.04996  Biso   1.000  O
  O39      1.0000 0.78219  0.26484  0.16289  Biso   1.000  O
  C133     1.0000 0.82593  0.45488  0.06434  Biso   1.000  C
  C134     1.0000 0.82628  0.42795  0.10355  Biso   1.000  C
  C135     1.0000 0.79607  0.41560  0.12160  Biso   1.000  C
  H61      1.0000 0.77560  0.42380  0.11010  Biso   1.000  H
  C136     1.0000 0.79694  0.39062  0.15725  Biso   1.000  C
  H62      1.0000 0.77670  0.38190  0.16900  Biso   1.000  H
  C137     1.0000 0.82673  0.37849  0.17557  Biso   1.000  C
  C138     1.0000 0.85663  0.39148  0.15749  Biso   1.000  C
  H63      1.0000 0.87710  0.38370  0.16990  Biso   1.000  H
  C139     1.0000 0.85673  0.41541  0.12178  Biso   1.000  C
  H64      1.0000 0.87710  0.42340  0.10950  Biso   1.000  H
  C140     1.0000 0.82673  0.35207  0.21398  Biso   1.000  C
  C141     1.0000 0.80208  0.32698  0.21405  Biso   1.000  C
  H65      1.0000 0.78560  0.32700  0.18990  Biso   1.000  H
  C142     1.0000 0.76672  0.25863  0.20688  Biso   1.000  C
  C143     1.0000 0.77310  0.24500  0.12040  Biso   1.000  C
  O40      1.0000 0.35475  0.96540  0.54989  Biso   1.000  O
  O41      1.0000 0.29748  0.96532  0.54996  Biso   1.000  O
  O42      1.0000 0.28219  0.76484  0.66289  Biso   1.000  O
  C144     1.0000 0.32593  0.95488  0.56434  Biso   1.000  C
  C145     1.0000 0.32628  0.92795  0.60355  Biso   1.000  C
  C146     1.0000 0.29607  0.91560  0.62160  Biso   1.000  C
  H66      1.0000 0.27560  0.92380  0.61010  Biso   1.000  H
  C147     1.0000 0.29694  0.89062  0.65725  Biso   1.000  C
  H67      1.0000 0.27670  0.88190  0.66900  Biso   1.000  H
  C148     1.0000 0.32673  0.87849  0.67557  Biso   1.000  C
  C149     1.0000 0.35663  0.89148  0.65749  Biso   1.000  C
  H68      1.0000 0.37710  0.88370  0.66990  Biso   1.000  H
  C150     1.0000 0.35673  0.91541  0.62178  Biso   1.000  C
  H69      1.0000 0.37710  0.92340  0.60950  Biso   1.000  H
  C151     1.0000 0.32673  0.85207  0.71398  Biso   1.000  C
  C152     1.0000 0.30208  0.82698  0.71405  Biso   1.000  C
  H70      1.0000 0.28560  0.82700  0.68990  Biso   1.000  H
  C153     1.0000 0.26672  0.75863  0.70688  Biso   1.000  C
  C154     1.0000 0.27310  0.74500  0.62040  Biso   1.000  C
  O43      1.0000 0.14525  0.53460  0.04989  Biso   1.000  O
  O44      1.0000 0.20252  0.53468  0.04996  Biso   1.000  O
  O45      1.0000 0.21781  0.73516  0.16289  Biso   1.000  O
  C155     1.0000 0.17407  0.54512  0.06434  Biso   1.000  C
  C156     1.0000 0.17372  0.57205  0.10355  Biso   1.000  C
  C157     1.0000 0.20393  0.58440  0.12160  Biso   1.000  C
  H71      1.0000 0.22440  0.57620  0.11010  Biso   1.000  H
  C158     1.0000 0.20306  0.60938  0.15725  Biso   1.000  C
  H72      1.0000 0.22330  0.61810  0.16900  Biso   1.000  H
  C159     1.0000 0.17327  0.62151  0.17557  Biso   1.000  C
  C160     1.0000 0.14337  0.60852  0.15749  Biso   1.000  C
  H73      1.0000 0.12290  0.61630  0.16990  Biso   1.000  H
  C161     1.0000 0.14327  0.58459  0.12178  Biso   1.000  C
  H74      1.0000 0.12290  0.57660  0.10950  Biso   1.000  H
  C162     1.0000 0.17327  0.64793  0.21398  Biso   1.000  C
  C163     1.0000 0.19792  0.67302  0.21405  Biso   1.000  C
  H75      1.0000 0.21440  0.67300  0.18990  Biso   1.000  H
  C164     1.0000 0.23328  0.74137  0.20688  Biso   1.000  C
  C165     1.0000 0.22690  0.75500  0.12040  Biso   1.000  C
  O46      1.0000 0.64525  0.03460  0.54989  Biso   1.000  O
  O47      1.0000 0.70252  0.03468  0.54996  Biso   1.000  O
  O48      1.0000 0.71781  0.23516  0.66289  Biso   1.000  O
  C166     1.0000 0.67407  0.04512  0.56434  Biso   1.000  C
  C167     1.0000 0.67372  0.07205  0.60355  Biso   1.000  C
  C168     1.0000 0.70393  0.08440  0.62160  Biso   1.000  C
  H76      1.0000 0.72440  0.07620  0.61010  Biso   1.000  H
  C169     1.0000 0.70306  0.10938  0.65725  Biso   1.000  C
  H77      1.0000 0.72330  0.11810  0.66900  Biso   1.000  H
  C170     1.0000 0.67327  0.12151  0.67557  Biso   1.000  C
  C171     1.0000 0.64337  0.10852  0.65749  Biso   1.000  C
  H78      1.0000 0.62290  0.11630  0.66990  Biso   1.000  H
  C172     1.0000 0.64327  0.08459  0.62178  Biso   1.000  C
  H79      1.0000 0.62290  0.07660  0.60950  Biso   1.000  H
  C173     1.0000 0.67327  0.14793  0.71398  Biso   1.000  C
  C174     1.0000 0.69792  0.17302  0.71405  Biso   1.000  C
  H80      1.0000 0.71440  0.17300  0.68990  Biso   1.000  H
  C175     1.0000 0.73328  0.24137  0.70688  Biso   1.000  C
  C176     1.0000 0.72690  0.25500  0.62040  Biso   1.000  C
  O49      1.0000 0.53460  0.14525  0.04989  Biso   1.000  O
  O50      1.0000 0.53468  0.20252  0.04996  Biso   1.000  O
  O51      1.0000 0.73516  0.21781  0.16289  Biso   1.000  O
  C177     1.0000 0.54512  0.17407  0.06434  Biso   1.000  C
  C178     1.0000 0.57205  0.17372  0.10355  Biso   1.000  C
  C179     1.0000 0.58440  0.20393  0.12160  Biso   1.000  C
  H81      1.0000 0.57620  0.22440  0.11010  Biso   1.000  H
  C180     1.0000 0.60938  0.20306  0.15725  Biso   1.000  C
  H82      1.0000 0.61810  0.22330  0.16900  Biso   1.000  H
  C181     1.0000 0.62151  0.17327  0.17557  Biso   1.000  C
  C182     1.0000 0.60852  0.14337  0.15749  Biso   1.000  C
  H83      1.0000 0.61630  0.12290  0.16990  Biso   1.000  H
  C183     1.0000 0.58459  0.14327  0.12178  Biso   1.000  C
  H84      1.0000 0.57660  0.12290  0.10950  Biso   1.000  H
  C184     1.0000 0.64793  0.17327  0.21398  Biso   1.000  C
  C185     1.0000 0.67302  0.19792  0.21405  Biso   1.000  C
  H85      1.0000 0.67300  0.21440  0.18990  Biso   1.000  H
  C186     1.0000 0.74137  0.23328  0.20688  Biso   1.000  C
  C187     1.0000 0.75500  0.22690  0.12040  Biso   1.000  C
  O52      1.0000 0.03460  0.64525  0.54989  Biso   1.000  O
  O53      1.0000 0.03468  0.70252  0.54996  Biso   1.000  O
  O54      1.0000 0.23516  0.71781  0.66289  Biso   1.000  O
  C188     1.0000 0.04512  0.67407  0.56434  Biso   1.000  C
  C189     1.0000 0.07205  0.67372  0.60355  Biso   1.000  C
  C190     1.0000 0.08440  0.70393  0.62160  Biso   1.000  C
  H86      1.0000 0.07620  0.72440  0.61010  Biso   1.000  H
  C191     1.0000 0.10938  0.70306  0.65725  Biso   1.000  C
  H87      1.0000 0.11810  0.72330  0.66900  Biso   1.000  H
  C192     1.0000 0.12151  0.67327  0.67557  Biso   1.000  C
  C193     1.0000 0.10852  0.64337  0.65749  Biso   1.000  C
  H88      1.0000 0.11630  0.62290  0.66990  Biso   1.000  H
  C194     1.0000 0.08459  0.64327  0.62178  Biso   1.000  C
  H89      1.0000 0.07660  0.62290  0.60950  Biso   1.000  H
  C195     1.0000 0.14793  0.67327  0.71398  Biso   1.000  C
  C196     1.0000 0.17302  0.69792  0.71405  Biso   1.000  C
  H90      1.0000 0.17300  0.71440  0.68990  Biso   1.000  H
  C197     1.0000 0.24137  0.73328  0.70688  Biso   1.000  C
  C198     1.0000 0.25500  0.72690  0.62040  Biso   1.000  C
  O55      1.0000 0.46540  0.85475  0.04989  Biso   1.000  O
  O56      1.0000 0.46532  0.79748  0.04996  Biso   1.000  O
  O57      1.0000 0.26484  0.78219  0.16289  Biso   1.000  O
  C199     1.0000 0.45488  0.82593  0.06434  Biso   1.000  C
  C200     1.0000 0.42795  0.82628  0.10355  Biso   1.000  C
  C201     1.0000 0.41560  0.79607  0.12160  Biso   1.000  C
  H91      1.0000 0.42380  0.77560  0.11010  Biso   1.000  H
  C202     1.0000 0.39062  0.79694  0.15725  Biso   1.000  C
  H92      1.0000 0.38190  0.77670  0.16900  Biso   1.000  H
  C203     1.0000 0.37849  0.82673  0.17557  Biso   1.000  C
  C204     1.0000 0.39148  0.85663  0.15749  Biso   1.000  C
  H93      1.0000 0.38370  0.87710  0.16990  Biso   1.000  H
  C205     1.0000 0.41541  0.85673  0.12178  Biso   1.000  C
  H94      1.0000 0.42340  0.87710  0.10950  Biso   1.000  H
  C206     1.0000 0.35207  0.82673  0.21398  Biso   1.000  C
  C207     1.0000 0.32698  0.80208  0.21405  Biso   1.000  C
  H95      1.0000 0.32700  0.78560  0.18990  Biso   1.000  H
  C208     1.0000 0.25863  0.76672  0.20688  Biso   1.000  C
  C209     1.0000 0.24500  0.77310  0.12040  Biso   1.000  C
  O58      1.0000 0.96540  0.35475  0.54989  Biso   1.000  O
  O59      1.0000 0.96532  0.29748  0.54996  Biso   1.000  O
  O60      1.0000 0.76484  0.28219  0.66289  Biso   1.000  O
  C210     1.0000 0.95488  0.32593  0.56434  Biso   1.000  C
  C211     1.0000 0.92795  0.32628  0.60355  Biso   1.000  C
  C212     1.0000 0.91560  0.29607  0.62160  Biso   1.000  C
  H96      1.0000 0.92380  0.27560  0.61010  Biso   1.000  H
  C213     1.0000 0.89062  0.29694  0.65725  Biso   1.000  C
  H97      1.0000 0.88190  0.27670  0.66900  Biso   1.000  H
  C214     1.0000 0.87849  0.32673  0.67557  Biso   1.000  C
  C215     1.0000 0.89148  0.35663  0.65749  Biso   1.000  C
  H98      1.0000 0.88370  0.37710  0.66990  Biso   1.000  H
  C216     1.0000 0.91541  0.35673  0.62178  Biso   1.000  C
  H99      1.0000 0.92340  0.37710  0.60950  Biso   1.000  H
  C217     1.0000 0.85207  0.32673  0.71398  Biso   1.000  C
  C218     1.0000 0.82698  0.30208  0.71405  Biso   1.000  C
  H100     1.0000 0.82700  0.28560  0.68990  Biso   1.000  H
  C219     1.0000 0.75863  0.26672  0.70688  Biso   1.000  C
  C220     1.0000 0.74500  0.27310  0.62040  Biso   1.000  C
  O61      1.0000 0.85475  0.53460  0.04989  Biso   1.000  O
  O62      1.0000 0.79748  0.53468  0.04996  Biso   1.000  O
  O63      1.0000 0.78219  0.73516  0.16289  Biso   1.000  O
  C221     1.0000 0.82593  0.54512  0.06434  Biso   1.000  C
  C222     1.0000 0.82628  0.57205  0.10355  Biso   1.000  C
  C223     1.0000 0.79607  0.58440  0.12160  Biso   1.000  C
  H101     1.0000 0.77560  0.57620  0.11010  Biso   1.000  H
  C224     1.0000 0.79694  0.60938  0.15725  Biso   1.000  C
  H102     1.0000 0.77670  0.61810  0.16900  Biso   1.000  H
  C225     1.0000 0.82673  0.62151  0.17557  Biso   1.000  C
  C226     1.0000 0.85663  0.60852  0.15749  Biso   1.000  C
  H103     1.0000 0.87710  0.61630  0.16990  Biso   1.000  H
  C227     1.0000 0.85673  0.58459  0.12178  Biso   1.000  C
  H104     1.0000 0.87710  0.57660  0.10950  Biso   1.000  H
  C228     1.0000 0.82673  0.64793  0.21398  Biso   1.000  C
  C229     1.0000 0.80208  0.67302  0.21405  Biso   1.000  C
  H105     1.0000 0.78560  0.67300  0.18990  Biso   1.000  H
  C230     1.0000 0.76672  0.74137  0.20688  Biso   1.000  C
  C231     1.0000 0.77310  0.75500  0.12040  Biso   1.000  C
  O64      1.0000 0.35475  0.03460  0.54989  Biso   1.000  O
  O65      1.0000 0.29748  0.03468  0.54996  Biso   1.000  O
  O66      1.0000 0.28219  0.23516  0.66289  Biso   1.000  O
  C232     1.0000 0.32593  0.04512  0.56434  Biso   1.000  C
  C233     1.0000 0.32628  0.07205  0.60355  Biso   1.000  C
  C234     1.0000 0.29607  0.08440  0.62160  Biso   1.000  C
  H106     1.0000 0.27560  0.07620  0.61010  Biso   1.000  H
  C235     1.0000 0.29694  0.10938  0.65725  Biso   1.000  C
  H107     1.0000 0.27670  0.11810  0.66900  Biso   1.000  H
  C236     1.0000 0.32673  0.12151  0.67557  Biso   1.000  C
  C237     1.0000 0.35663  0.10852  0.65749  Biso   1.000  C
  H108     1.0000 0.37710  0.11630  0.66990  Biso   1.000  H
  C238     1.0000 0.35673  0.08459  0.62178  Biso   1.000  C
  H109     1.0000 0.37710  0.07660  0.60950  Biso   1.000  H
  C239     1.0000 0.32673  0.14793  0.71398  Biso   1.000  C
  C240     1.0000 0.30208  0.17302  0.71405  Biso   1.000  C
  H110     1.0000 0.28560  0.17300  0.68990  Biso   1.000  H
  C241     1.0000 0.26672  0.24137  0.70688  Biso   1.000  C
  C242     1.0000 0.27310  0.25500  0.62040  Biso   1.000  C
  O67      1.0000 0.14525  0.46540  0.04989  Biso   1.000  O
  O68      1.0000 0.20252  0.46532  0.04996  Biso   1.000  O
  O69      1.0000 0.21781  0.26484  0.16289  Biso   1.000  O
  C243     1.0000 0.17407  0.45488  0.06434  Biso   1.000  C
  C244     1.0000 0.17372  0.42795  0.10355  Biso   1.000  C
  C245     1.0000 0.20393  0.41560  0.12160  Biso   1.000  C
  H111     1.0000 0.22440  0.42380  0.11010  Biso   1.000  H
  C246     1.0000 0.20306  0.39062  0.15725  Biso   1.000  C
  H112     1.0000 0.22330  0.38190  0.16900  Biso   1.000  H
  C247     1.0000 0.17327  0.37849  0.17557  Biso   1.000  C
  C248     1.0000 0.14337  0.39148  0.15749  Biso   1.000  C
  H113     1.0000 0.12290  0.38370  0.16990  Biso   1.000  H
  C249     1.0000 0.14327  0.41541  0.12178  Biso   1.000  C
  H114     1.0000 0.12290  0.42340  0.10950  Biso   1.000  H
  C250     1.0000 0.17327  0.35207  0.21398  Biso   1.000  C
  C251     1.0000 0.19792  0.32698  0.21405  Biso   1.000  C
  H115     1.0000 0.21440  0.32700  0.18990  Biso   1.000  H
  C252     1.0000 0.23328  0.25863  0.20688  Biso   1.000  C
  C253     1.0000 0.22690  0.24500  0.12040  Biso   1.000  C
  O70      1.0000 0.64525  0.96540  0.54989  Biso   1.000  O
  O71      1.0000 0.70252  0.96532  0.54996  Biso   1.000  O
  O72      1.0000 0.71781  0.76484  0.66289  Biso   1.000  O
  C254     1.0000 0.67407  0.95488  0.56434  Biso   1.000  C
  C255     1.0000 0.67372  0.92795  0.60355  Biso   1.000  C
  C256     1.0000 0.70393  0.91560  0.62160  Biso   1.000  C
  H116     1.0000 0.72440  0.92380  0.61010  Biso   1.000  H
  C257     1.0000 0.70306  0.89062  0.65725  Biso   1.000  C
  H117     1.0000 0.72330  0.88190  0.66900  Biso   1.000  H
  C258     1.0000 0.67327  0.87849  0.67557  Biso   1.000  C
  C259     1.0000 0.64337  0.89148  0.65749  Biso   1.000  C
  H118     1.0000 0.62290  0.88370  0.66990  Biso   1.000  H
  C260     1.0000 0.64327  0.91541  0.62178  Biso   1.000  C
  H119     1.0000 0.62290  0.92340  0.60950  Biso   1.000  H
  C261     1.0000 0.67327  0.85207  0.71398  Biso   1.000  C
  C262     1.0000 0.69792  0.82698  0.71405  Biso   1.000  C
  H120     1.0000 0.71440  0.82700  0.68990  Biso   1.000  H
  C263     1.0000 0.73328  0.75863  0.70688  Biso   1.000  C
  C264     1.0000 0.72690  0.74500  0.62040  Biso   1.000  C
  O73      1.0000 0.46540  0.14525  0.95011  Biso   1.000  O
  O74      1.0000 0.46532  0.20252  0.95004  Biso   1.000  O
  O75      1.0000 0.26484  0.21781  0.83711  Biso   1.000  O
  C265     1.0000 0.45488  0.17407  0.93566  Biso   1.000  C
  C266     1.0000 0.42795  0.17372  0.89645  Biso   1.000  C
  C267     1.0000 0.41560  0.20393  0.87840  Biso   1.000  C
  H121     1.0000 0.42380  0.22440  0.88990  Biso   1.000  H
  C268     1.0000 0.39062  0.20306  0.84275  Biso   1.000  C
  H122     1.0000 0.38190  0.22330  0.83100  Biso   1.000  H
  C269     1.0000 0.37849  0.17327  0.82443  Biso   1.000  C
  C270     1.0000 0.39148  0.14337  0.84251  Biso   1.000  C
  H123     1.0000 0.38370  0.12290  0.83010  Biso   1.000  H
  C271     1.0000 0.41541  0.14327  0.87822  Biso   1.000  C
  H124     1.0000 0.42340  0.12290  0.89050  Biso   1.000  H
  C272     1.0000 0.35207  0.17327  0.78602  Biso   1.000  C
  C273     1.0000 0.32698  0.19792  0.78595  Biso   1.000  C
  H125     1.0000 0.32700  0.21440  0.81010  Biso   1.000  H
  C274     1.0000 0.25863  0.23328  0.79312  Biso   1.000  C
  C275     1.0000 0.24500  0.22690  0.87960  Biso   1.000  C
  O76      1.0000 0.96540  0.64525  0.45011  Biso   1.000  O
  O77      1.0000 0.96532  0.70252  0.45004  Biso   1.000  O
  O78      1.0000 0.76484  0.71781  0.33711  Biso   1.000  O
  C276     1.0000 0.95488  0.67407  0.43566  Biso   1.000  C
  C277     1.0000 0.92795  0.67372  0.39645  Biso   1.000  C
  C278     1.0000 0.91560  0.70393  0.37840  Biso   1.000  C
  H126     1.0000 0.92380  0.72440  0.38990  Biso   1.000  H
  C279     1.0000 0.89062  0.70306  0.34275  Biso   1.000  C
  H127     1.0000 0.88190  0.72330  0.33100  Biso   1.000  H
  C280     1.0000 0.87849  0.67327  0.32443  Biso   1.000  C
  C281     1.0000 0.89148  0.64337  0.34251  Biso   1.000  C
  H128     1.0000 0.88370  0.62290  0.33010  Biso   1.000  H
  C282     1.0000 0.91541  0.64327  0.37822  Biso   1.000  C
  H129     1.0000 0.92340  0.62290  0.39050  Biso   1.000  H
  C283     1.0000 0.85207  0.67327  0.28602  Biso   1.000  C
  C284     1.0000 0.82698  0.69792  0.28595  Biso   1.000  C
  H130     1.0000 0.82700  0.71440  0.31010  Biso   1.000  H
  C285     1.0000 0.75863  0.73328  0.29312  Biso   1.000  C
  C286     1.0000 0.74500  0.72690  0.37960  Biso   1.000  C
  O79      1.0000 0.53460  0.85475  0.95011  Biso   1.000  O
  O80      1.0000 0.53468  0.79748  0.95004  Biso   1.000  O
  O81      1.0000 0.73516  0.78219  0.83711  Biso   1.000  O
  C287     1.0000 0.54512  0.82593  0.93566  Biso   1.000  C
  C288     1.0000 0.57205  0.82628  0.89645  Biso   1.000  C
  C289     1.0000 0.58440  0.79607  0.87840  Biso   1.000  C
  H131     1.0000 0.57620  0.77560  0.88990  Biso   1.000  H
  C290     1.0000 0.60938  0.79694  0.84275  Biso   1.000  C
  H132     1.0000 0.61810  0.77670  0.83100  Biso   1.000  H
  C291     1.0000 0.62151  0.82673  0.82443  Biso   1.000  C
  C292     1.0000 0.60852  0.85663  0.84251  Biso   1.000  C
  H133     1.0000 0.61630  0.87710  0.83010  Biso   1.000  H
  C293     1.0000 0.58459  0.85673  0.87822  Biso   1.000  C
  H134     1.0000 0.57660  0.87710  0.89050  Biso   1.000  H
  C294     1.0000 0.64793  0.82673  0.78602  Biso   1.000  C
  C295     1.0000 0.67302  0.80208  0.78595  Biso   1.000  C
  H135     1.0000 0.67300  0.78560  0.81010  Biso   1.000  H
  C296     1.0000 0.74137  0.76672  0.79312  Biso   1.000  C
  C297     1.0000 0.75500  0.77310  0.87960  Biso   1.000  C
  O82      1.0000 0.03460  0.35475  0.45011  Biso   1.000  O
  O83      1.0000 0.03468  0.29748  0.45004  Biso   1.000  O
  O84      1.0000 0.23516  0.28219  0.33711  Biso   1.000  O
  C298     1.0000 0.04512  0.32593  0.43566  Biso   1.000  C
  C299     1.0000 0.07205  0.32628  0.39645  Biso   1.000  C
  C300     1.0000 0.08440  0.29607  0.37840  Biso   1.000  C
  H136     1.0000 0.07620  0.27560  0.38990  Biso   1.000  H
  C301     1.0000 0.10938  0.29694  0.34275  Biso   1.000  C
  H137     1.0000 0.11810  0.27670  0.33100  Biso   1.000  H
  C302     1.0000 0.12151  0.32673  0.32443  Biso   1.000  C
  C303     1.0000 0.10852  0.35663  0.34251  Biso   1.000  C
  H138     1.0000 0.11630  0.37710  0.33010  Biso   1.000  H
  C304     1.0000 0.08459  0.35673  0.37822  Biso   1.000  C
  H139     1.0000 0.07660  0.37710  0.39050  Biso   1.000  H
  C305     1.0000 0.14793  0.32673  0.28602  Biso   1.000  C
  C306     1.0000 0.17302  0.30208  0.28595  Biso   1.000  C
  H140     1.0000 0.17300  0.28560  0.31010  Biso   1.000  H
  C307     1.0000 0.24137  0.26672  0.29312  Biso   1.000  C
  C308     1.0000 0.25500  0.27310  0.37960  Biso   1.000  C
  O85      1.0000 0.14525  0.53460  0.95011  Biso   1.000  O
  O86      1.0000 0.20252  0.53468  0.95004  Biso   1.000  O
  O87      1.0000 0.21781  0.73516  0.83711  Biso   1.000  O
  C309     1.0000 0.17407  0.54512  0.93566  Biso   1.000  C
  C310     1.0000 0.17372  0.57205  0.89645  Biso   1.000  C
  C311     1.0000 0.20393  0.58440  0.87840  Biso   1.000  C
  H141     1.0000 0.22440  0.57620  0.88990  Biso   1.000  H
  C312     1.0000 0.20306  0.60938  0.84275  Biso   1.000  C
  H142     1.0000 0.22330  0.61810  0.83100  Biso   1.000  H
  C313     1.0000 0.17327  0.62151  0.82443  Biso   1.000  C
  C314     1.0000 0.14337  0.60852  0.84251  Biso   1.000  C
  H143     1.0000 0.12290  0.61630  0.83010  Biso   1.000  H
  C315     1.0000 0.14327  0.58459  0.87822  Biso   1.000  C
  H144     1.0000 0.12290  0.57660  0.89050  Biso   1.000  H
  C316     1.0000 0.17327  0.64793  0.78602  Biso   1.000  C
  C317     1.0000 0.19792  0.67302  0.78595  Biso   1.000  C
  H145     1.0000 0.21440  0.67300  0.81010  Biso   1.000  H
  C318     1.0000 0.23328  0.74137  0.79312  Biso   1.000  C
  C319     1.0000 0.22690  0.75500  0.87960  Biso   1.000  C
  O88      1.0000 0.64525  0.03460  0.45011  Biso   1.000  O
  O89      1.0000 0.70252  0.03468  0.45004  Biso   1.000  O
  O90      1.0000 0.71781  0.23516  0.33711  Biso   1.000  O
  C320     1.0000 0.67407  0.04512  0.43566  Biso   1.000  C
  C321     1.0000 0.67372  0.07205  0.39645  Biso   1.000  C
  C322     1.0000 0.70393  0.08440  0.37840  Biso   1.000  C
  H146     1.0000 0.72440  0.07620  0.38990  Biso   1.000  H
  C323     1.0000 0.70306  0.10938  0.34275  Biso   1.000  C
  H147     1.0000 0.72330  0.11810  0.33100  Biso   1.000  H
  C324     1.0000 0.67327  0.12151  0.32443  Biso   1.000  C
  C325     1.0000 0.64337  0.10852  0.34251  Biso   1.000  C
  H148     1.0000 0.62290  0.11630  0.33010  Biso   1.000  H
  C326     1.0000 0.64327  0.08459  0.37822  Biso   1.000  C
  H149     1.0000 0.62290  0.07660  0.39050  Biso   1.000  H
  C327     1.0000 0.67327  0.14793  0.28602  Biso   1.000  C
  C328     1.0000 0.69792  0.17302  0.28595  Biso   1.000  C
  H150     1.0000 0.71440  0.17300  0.31010  Biso   1.000  H
  C329     1.0000 0.73328  0.24137  0.29312  Biso   1.000  C
  C330     1.0000 0.72690  0.25500  0.37960  Biso   1.000  C
  O91      1.0000 0.85475  0.46540  0.95011  Biso   1.000  O
  O92      1.0000 0.79748  0.46532  0.95004  Biso   1.000  O
  O93      1.0000 0.78219  0.26484  0.83711  Biso   1.000  O
  C331     1.0000 0.82593  0.45488  0.93566  Biso   1.000  C
  C332     1.0000 0.82628  0.42795  0.89645  Biso   1.000  C
  C333     1.0000 0.79607  0.41560  0.87840  Biso   1.000  C
  H151     1.0000 0.77560  0.42380  0.88990  Biso   1.000  H
  C334     1.0000 0.79694  0.39062  0.84275  Biso   1.000  C
  H152     1.0000 0.77670  0.38190  0.83100  Biso   1.000  H
  C335     1.0000 0.82673  0.37849  0.82443  Biso   1.000  C
  C336     1.0000 0.85663  0.39148  0.84251  Biso   1.000  C
  H153     1.0000 0.87710  0.38370  0.83010  Biso   1.000  H
  C337     1.0000 0.85673  0.41541  0.87822  Biso   1.000  C
  H154     1.0000 0.87710  0.42340  0.89050  Biso   1.000  H
  C338     1.0000 0.82673  0.35207  0.78602  Biso   1.000  C
  C339     1.0000 0.80208  0.32698  0.78595  Biso   1.000  C
  H155     1.0000 0.78560  0.32700  0.81010  Biso   1.000  H
  C340     1.0000 0.76672  0.25863  0.79312  Biso   1.000  C
  C341     1.0000 0.77310  0.24500  0.87960  Biso   1.000  C
  O94      1.0000 0.35475  0.96540  0.45011  Biso   1.000  O
  O95      1.0000 0.29748  0.96532  0.45004  Biso   1.000  O
  O96      1.0000 0.28219  0.76484  0.33711  Biso   1.000  O
  C342     1.0000 0.32593  0.95488  0.43566  Biso   1.000  C
  C343     1.0000 0.32628  0.92795  0.39645  Biso   1.000  C
  C344     1.0000 0.29607  0.91560  0.37840  Biso   1.000  C
  H156     1.0000 0.27560  0.92380  0.38990  Biso   1.000  H
  C345     1.0000 0.29694  0.89062  0.34275  Biso   1.000  C
  H157     1.0000 0.27670  0.88190  0.33100  Biso   1.000  H
  C346     1.0000 0.32673  0.87849  0.32443  Biso   1.000  C
  C347     1.0000 0.35663  0.89148  0.34251  Biso   1.000  C
  H158     1.0000 0.37710  0.88370  0.33010  Biso   1.000  H
  C348     1.0000 0.35673  0.91541  0.37822  Biso   1.000  C
  H159     1.0000 0.37710  0.92340  0.39050  Biso   1.000  H
  C349     1.0000 0.32673  0.85207  0.28602  Biso   1.000  C
  C350     1.0000 0.30208  0.82698  0.28595  Biso   1.000  C
  H160     1.0000 0.28560  0.82700  0.31010  Biso   1.000  H
  C351     1.0000 0.26672  0.75863  0.29312  Biso   1.000  C
  C352     1.0000 0.27310  0.74500  0.37960  Biso   1.000  C
  Cu1      1.0000 0.50000  0.79278  0.00000  Biso   1.000  Cu
  Cu2      1.0000 0.50000  0.85973  0.00000  Biso   1.000  Cu
  Cu3      1.0000 0.00000  0.29278  0.50000  Biso   1.000  Cu
  Cu4      1.0000 0.00000  0.35973  0.50000  Biso   1.000  Cu
  Cu5      1.0000 0.50000  0.20722  0.00000  Biso   1.000  Cu
  Cu6      1.0000 0.50000  0.14027  0.00000  Biso   1.000  Cu
  Cu7      1.0000 0.00000  0.70722  0.50000  Biso   1.000  Cu
  Cu8      1.0000 0.00000  0.64027  0.50000  Biso   1.000  Cu
  Cu9      1.0000 0.20722  0.50000  0.00000  Biso   1.000  Cu
  Cu10     1.0000 0.14027  0.50000  0.00000  Biso   1.000  Cu
  Cu11     1.0000 0.70722  0.00000  0.50000  Biso   1.000  Cu
  Cu12     1.0000 0.64027  0.00000  0.50000  Biso   1.000  Cu
  Cu13     1.0000 0.79278  0.50000  0.00000  Biso   1.000  Cu
  Cu14     1.0000 0.85973  0.50000  0.00000  Biso   1.000  Cu
  Cu15     1.0000 0.29278  0.00000  0.50000  Biso   1.000  Cu
  Cu16     1.0000 0.35973  0.00000  0.50000  Biso   1.000  Cu
  C353     1.0000 0.35143  0.85143  0.75000  Biso   1.000  C
  H161     1.0000 0.36800  0.86800  0.75000  Biso   1.000  H
  C354     1.0000 0.30150  0.80150  0.75000  Biso   1.000  C
  C355     1.0000 0.27502  0.77502  0.75000  Biso   1.000  C
  C356     1.0000 0.64857  0.14857  0.75000  Biso   1.000  C
  H162     1.0000 0.63200  0.13200  0.75000  Biso   1.000  H
  C357     1.0000 0.69850  0.19850  0.75000  Biso   1.000  C
  C358     1.0000 0.72498  0.22498  0.75000  Biso   1.000  C
  C359     1.0000 0.14857  0.35143  0.75000  Biso   1.000  C
  H163     1.0000 0.13200  0.36800  0.75000  Biso   1.000  H
  C360     1.0000 0.19850  0.30150  0.75000  Biso   1.000  C
  C361     1.0000 0.22498  0.27502  0.75000  Biso   1.000  C
  C362     1.0000 0.64857  0.85143  0.25000  Biso   1.000  C
  H164     1.0000 0.63200  0.86800  0.25000  Biso   1.000  H
  C363     1.0000 0.69850  0.80150  0.25000  Biso   1.000  C
  C364     1.0000 0.72498  0.77502  0.25000  Biso   1.000  C
  C365     1.0000 0.85143  0.64857  0.75000  Biso   1.000  C
  H165     1.0000 0.86800  0.63200  0.75000  Biso   1.000  H
  C366     1.0000 0.80150  0.69850  0.75000  Biso   1.000  C
  C367     1.0000 0.77502  0.72498  0.75000  Biso   1.000  C
  C368     1.0000 0.35143  0.14857  0.25000  Biso   1.000  C
  H166     1.0000 0.36800  0.13200  0.25000  Biso   1.000  H
  C369     1.0000 0.30150  0.19850  0.25000  Biso   1.000  C
  C370     1.0000 0.27502  0.22498  0.25000  Biso   1.000  C
  C371     1.0000 0.85143  0.35143  0.25000  Biso   1.000  C
  H167     1.0000 0.86800  0.36800  0.25000  Biso   1.000  H
  C372     1.0000 0.80150  0.30150  0.25000  Biso   1.000  C
  C373     1.0000 0.77502  0.27502  0.25000  Biso   1.000  C
  C374     1.0000 0.14857  0.64857  0.25000  Biso   1.000  C
  H168     1.0000 0.13200  0.63200  0.25000  Biso   1.000  H
  C375     1.0000 0.19850  0.69850  0.25000  Biso   1.000  C
  C376     1.0000 0.22498  0.72498  0.25000  Biso   1.000  C
  C377     1.0000 0.64857  0.14857  0.25000  Biso   1.000  C
  H169     1.0000 0.63200  0.13200  0.25000  Biso   1.000  H
  C378     1.0000 0.69850  0.19850  0.25000  Biso   1.000  C
  C379     1.0000 0.72498  0.22498  0.25000  Biso   1.000  C
  C380     1.0000 0.35143  0.85143  0.25000  Biso   1.000  C
  H170     1.0000 0.36800  0.86800  0.25000  Biso   1.000  H
  C381     1.0000 0.30150  0.80150  0.25000  Biso   1.000  C
  C382     1.0000 0.27502  0.77502  0.25000  Biso   1.000  C
  C383     1.0000 0.85143  0.64857  0.25000  Biso   1.000  C
  H171     1.0000 0.86800  0.63200  0.25000  Biso   1.000  H
  C384     1.0000 0.80150  0.69850  0.25000  Biso   1.000  C
  C385     1.0000 0.77502  0.72498  0.25000  Biso   1.000  C
  C386     1.0000 0.14857  0.35143  0.25000  Biso   1.000  C
  H172     1.0000 0.13200  0.36800  0.25000  Biso   1.000  H
  C387     1.0000 0.19850  0.30150  0.25000  Biso   1.000  C
  C388     1.0000 0.22498  0.27502  0.25000  Biso   1.000  C
  C389     1.0000 0.35143  0.14857  0.75000  Biso   1.000  C
  H173     1.0000 0.36800  0.13200  0.75000  Biso   1.000  H
  C390     1.0000 0.30150  0.19850  0.75000  Biso   1.000  C
  C391     1.0000 0.27502  0.22498  0.75000  Biso   1.000  C
  C392     1.0000 0.64857  0.85143  0.75000  Biso   1.000  C
  H174     1.0000 0.63200  0.86800  0.75000  Biso   1.000  H
  C393     1.0000 0.69850  0.80150  0.75000  Biso   1.000  C
  C394     1.0000 0.72498  0.77502  0.75000  Biso   1.000  C
  C395     1.0000 0.14857  0.64857  0.75000  Biso   1.000  C
  H175     1.0000 0.13200  0.63200  0.75000  Biso   1.000  H
  C396     1.0000 0.19850  0.69850  0.75000  Biso   1.000  C
  C397     1.0000 0.22498  0.72498  0.75000  Biso   1.000  C
  C398     1.0000 0.85143  0.35143  0.75000  Biso   1.000  C
  H176     1.0000 0.86800  0.36800  0.75000  Biso   1.000  H
  C399     1.0000 0.80150  0.30150  0.75000  Biso   1.000  C
  C400     1.0000 0.77502  0.27502  0.75000  Biso   1.000  C
