data_image0
_cell_length_a       31.955
_cell_length_b       65.386
_cell_length_c       12.957
_cell_angle_alpha    90
_cell_angle_beta     90
_cell_angle_gamma    90

_symmetry_space_group_name_H-M    "P 1"
_symmetry_int_tables_number       1

loop_
  _symmetry_equiv_pos_as_xyz
  'x, y, z'

loop_
  _atom_site_label
  _atom_site_occupancy
  _atom_site_fract_x
  _atom_site_fract_y
  _atom_site_fract_z
  _atom_site_thermal_displace_type
  _atom_site_B_iso_or_equiv
  _atom_site_type_symbol
  Fe1      1.0000 0.80368  0.88605  0.25108  Biso   1.000  Fe
  Fe2      1.0000 0.55461  0.86187  0.99603  Biso   1.000  Fe
  Ba1      1.0000 0.50520  0.00037  0.66897  Biso   1.000  Ba
  C1       1.0000 0.89520  0.95898  0.30610  Biso   1.000  C
  C2       1.0000 0.89160  0.95477  0.19920  Biso   1.000  C
  H1       1.0000 0.90520  0.96320  0.15210  Biso   1.000  H
  C3       1.0000 0.86900  0.93888  0.16410  Biso   1.000  C
  C4       1.0000 0.85270  0.92391  0.22860  Biso   1.000  C
  C5       1.0000 0.85700  0.92727  0.33880  Biso   1.000  C
  C6       1.0000 0.88080  0.94310  0.37140  Biso   1.000  C
  H2       1.0000 0.88810  0.94360  0.44080  Biso   1.000  H
  C7       1.0000 0.92050  0.97710  0.33820  Biso   1.000  C
  C8       1.0000 0.86610  0.93500  0.03990  Biso   1.000  C
  H3       1.0000 0.87940  0.94610  0.00420  Biso   1.000  H
  H4       1.0000 0.83720  0.93420  0.01970  Biso   1.000  H
  H5       1.0000 0.87990  0.92240  0.02290  Biso   1.000  H
  C9       1.0000 0.84660  0.91136  0.40910  Biso   1.000  C
  H6       1.0000 0.85440  0.91360  0.47730  Biso   1.000  H
  C10      1.0000 0.82620  0.87904  0.47570  Biso   1.000  C
  C11      1.0000 0.81940  0.88731  0.58260  Biso   1.000  C
  H7       1.0000 0.79410  0.89550  0.58460  Biso   1.000  H
  H8       1.0000 0.84280  0.89590  0.60260  Biso   1.000  H
  C12      1.0000 0.81550  0.86840  0.65960  Biso   1.000  C
  H9       1.0000 0.84170  0.86090  0.66020  Biso   1.000  H
  H10      1.0000 0.81040  0.87340  0.72890  Biso   1.000  H
  C13      1.0000 0.78200  0.85490  0.62930  Biso   1.000  C
  H11      1.0000 0.75570  0.86230  0.63010  Biso   1.000  H
  H12      1.0000 0.77990  0.84370  0.67830  Biso   1.000  H
  C14      1.0000 0.78990  0.84606  0.51850  Biso   1.000  C
  H13      1.0000 0.81630  0.83870  0.51660  Biso   1.000  H
  H14      1.0000 0.76770  0.83670  0.49960  Biso   1.000  H
  C15      1.0000 0.79100  0.86382  0.44490  Biso   1.000  C
  C16      1.0000 0.80340  0.83544  0.19920  Biso   1.000  C
  C17      1.0000 0.79780  0.81474  0.17100  Biso   1.000  C
  H15      1.0000 0.79080  0.80540  0.22230  Biso   1.000  H
  C18      1.0000 0.80200  0.80784  0.07290  Biso   1.000  C
  C19      1.0000 0.81730  0.82264  0.00200  Biso   1.000  C
  H16      1.0000 0.82240  0.81820  0.93500  Biso   1.000  H
  C20      1.0000 0.82540  0.84318  0.02280  Biso   1.000  C
  C21      1.0000 0.81752  0.84962  0.12060  Biso   1.000  C
  C22      1.0000 0.79820  0.84077  0.30310  Biso   1.000  C
  H17      1.0000 0.79330  0.83020  0.34980  Biso   1.000  H
  C23      1.0000 0.79610  0.78719  0.03980  Biso   1.000  C
  C24      1.0000 0.84130  0.85771  0.94380  Biso   1.000  C
  H18      1.0000 0.84370  0.87110  0.97350  Biso   1.000  H
  H19      1.0000 0.82230  0.85810  0.88650  Biso   1.000  H
  H20      1.0000 0.86830  0.85330  0.92020  Biso   1.000  H
  C25      1.0000 0.65300  0.79102  0.03980  Biso   1.000  C
  C26      1.0000 0.63380  0.80304  0.11140  Biso   1.000  C
  H21      1.0000 0.63560  0.79980  0.18120  Biso   1.000  H
  C27      1.0000 0.61050  0.82095  0.07860  Biso   1.000  C
  C28      1.0000 0.60600  0.82364  0.97280  Biso   1.000  C
  C29      1.0000 0.62590  0.81082  0.89720  Biso   1.000  C
  C30      1.0000 0.64640  0.79430  0.93680  Biso   1.000  C
  H22      1.0000 0.65660  0.78460  0.89070  Biso   1.000  H
  C31      1.0000 0.67600  0.77378  0.08120  Biso   1.000  C
  C32      1.0000 0.59300  0.83336  0.15590  Biso   1.000  C
  H23      1.0000 0.59640  0.82920  0.22400  Biso   1.000  H
  C33      1.0000 0.61670  0.81332  0.79040  Biso   1.000  C
  H24      1.0000 0.60050  0.82550  0.78070  Biso   1.000  H
  H25      1.0000 0.60110  0.80170  0.76620  Biso   1.000  H
  H26      1.0000 0.64240  0.81440  0.75220  Biso   1.000  H
  C34      1.0000 0.55330  0.86277  0.22200  Biso   1.000  C
  C35      1.0000 0.56400  0.85668  0.32940  Biso   1.000  C
  H27      1.0000 0.59390  0.85780  0.34000  Biso   1.000  H
  H28      1.0000 0.55580  0.84260  0.34100  Biso   1.000  H
  C36      1.0000 0.54110  0.87059  0.40540  Biso   1.000  C
  H29      1.0000 0.54810  0.86690  0.47580  Biso   1.000  H
  H30      1.0000 0.51110  0.86930  0.39660  Biso   1.000  H
  C37      1.0000 0.55610  0.89400  0.38160  Biso   1.000  C
  H31      1.0000 0.54220  0.90330  0.42890  Biso   1.000  H
  H32      1.0000 0.58600  0.89520  0.39260  Biso   1.000  H
  C38      1.0000 0.54590  0.89998  0.27290  Biso   1.000  C
  H33      1.0000 0.55600  0.91370  0.25970  Biso   1.000  H
  H34      1.0000 0.51580  0.89990  0.26330  Biso   1.000  H
  C39      1.0000 0.56610  0.88519  0.19700  Biso   1.000  C
  C40      1.0000 0.55290  0.91248  0.94460  Biso   1.000  C
  C41      1.0000 0.56368  0.89790  0.86500  Biso   1.000  C
  C42      1.0000 0.56790  0.90521  0.76550  Biso   1.000  C
  C43      1.0000 0.55780  0.92499  0.74240  Biso   1.000  C
  H35      1.0000 0.55990  0.92940  0.67430  Biso   1.000  H
  C44      1.0000 0.54460  0.93893  0.81780  Biso   1.000  C
  C45      1.0000 0.54320  0.93210  0.91870  Biso   1.000  C
  H36      1.0000 0.53530  0.94120  0.97050  Biso   1.000  H
  C46      1.0000 0.55400  0.90645  0.05300  Biso   1.000  C
  H37      1.0000 0.55010  0.91670  0.10170  Biso   1.000  H
  C47      1.0000 0.58320  0.89040  0.68230  Biso   1.000  C
  H38      1.0000 0.58890  0.87730  0.71290  Biso   1.000  H
  H39      1.0000 0.60840  0.89570  0.65160  Biso   1.000  H
  H40      1.0000 0.56210  0.88890  0.63020  Biso   1.000  H
  C48      1.0000 0.52730  0.96002  0.78600  Biso   1.000  C
  N1       1.0000 0.57269  0.85010  0.14030  Biso   1.000  N
  N2       1.0000 0.55986  0.88819  0.08730  Biso   1.000  N
  N3       1.0000 0.79942  0.85840  0.33770  Biso   1.000  N
  N4       1.0000 0.82816  0.89465  0.39230  Biso   1.000  N
  O1       1.0000 0.53820  0.96710  0.69700  Biso   1.000  O
  O2       1.0000 0.52160  0.97300  0.84950  Biso   1.000  O
  O3       1.0000 0.58377  0.83978  0.93390  Biso   1.000  O
  O4       1.0000 0.57177  0.87893  0.88530  Biso   1.000  O
  O5       1.0000 0.83355  0.90896  0.19200  Biso   1.000  O
  O6       1.0000 0.82308  0.86901  0.14210  Biso   1.000  O
  O7       1.0000 0.93260  0.98927  0.27870  Biso   1.000  O
  O8       1.0000 0.92690  0.97862  0.43230  Biso   1.000  O
  O9       1.0000 0.68260  0.77105  0.17100  Biso   1.000  O
  O10      1.0000 0.68960  0.76012  0.99930  Biso   1.000  O
  O11      1.0000 0.78280  0.77367  0.09990  Biso   1.000  O
  O12      1.0000 0.78980  0.78300  0.93810  Biso   1.000  O
  Fe3      1.0000 0.80368  0.38605  0.75108  Biso   1.000  Fe
  Fe4      1.0000 0.55461  0.36187  0.49603  Biso   1.000  Fe
  Ba2      1.0000 0.50520  0.50037  0.16897  Biso   1.000  Ba
  C49      1.0000 0.89520  0.45898  0.80610  Biso   1.000  C
  C50      1.0000 0.89160  0.45477  0.69920  Biso   1.000  C
  H41      1.0000 0.90520  0.46320  0.65210  Biso   1.000  H
  C51      1.0000 0.86900  0.43888  0.66410  Biso   1.000  C
  C52      1.0000 0.85270  0.42391  0.72860  Biso   1.000  C
  C53      1.0000 0.85700  0.42727  0.83880  Biso   1.000  C
  C54      1.0000 0.88080  0.44310  0.87140  Biso   1.000  C
  H42      1.0000 0.88810  0.44360  0.94080  Biso   1.000  H
  C55      1.0000 0.92050  0.47710  0.83820  Biso   1.000  C
  C56      1.0000 0.86610  0.43500  0.53990  Biso   1.000  C
  H43      1.0000 0.87940  0.44610  0.50420  Biso   1.000  H
  H44      1.0000 0.83720  0.43420  0.51970  Biso   1.000  H
  H45      1.0000 0.87990  0.42240  0.52290  Biso   1.000  H
  C57      1.0000 0.84660  0.41136  0.90910  Biso   1.000  C
  H46      1.0000 0.85440  0.41360  0.97730  Biso   1.000  H
  C58      1.0000 0.82620  0.37904  0.97570  Biso   1.000  C
  C59      1.0000 0.81940  0.38731  0.08260  Biso   1.000  C
  H47      1.0000 0.79410  0.39550  0.08460  Biso   1.000  H
  H48      1.0000 0.84280  0.39590  0.10260  Biso   1.000  H
  C60      1.0000 0.81550  0.36840  0.15960  Biso   1.000  C
  H49      1.0000 0.84170  0.36090  0.16020  Biso   1.000  H
  H50      1.0000 0.81040  0.37340  0.22890  Biso   1.000  H
  C61      1.0000 0.78200  0.35490  0.12930  Biso   1.000  C
  H51      1.0000 0.75570  0.36230  0.13010  Biso   1.000  H
  H52      1.0000 0.77990  0.34370  0.17830  Biso   1.000  H
  C62      1.0000 0.78990  0.34606  0.01850  Biso   1.000  C
  H53      1.0000 0.81630  0.33870  0.01660  Biso   1.000  H
  H54      1.0000 0.76770  0.33670  0.99960  Biso   1.000  H
  C63      1.0000 0.79100  0.36382  0.94490  Biso   1.000  C
  C64      1.0000 0.80340  0.33544  0.69920  Biso   1.000  C
  C65      1.0000 0.79780  0.31474  0.67100  Biso   1.000  C
  H55      1.0000 0.79080  0.30540  0.72230  Biso   1.000  H
  C66      1.0000 0.80200  0.30784  0.57290  Biso   1.000  C
  C67      1.0000 0.81730  0.32264  0.50200  Biso   1.000  C
  H56      1.0000 0.82240  0.31820  0.43500  Biso   1.000  H
  C68      1.0000 0.82540  0.34318  0.52280  Biso   1.000  C
  C69      1.0000 0.81752  0.34962  0.62060  Biso   1.000  C
  C70      1.0000 0.79820  0.34077  0.80310  Biso   1.000  C
  H57      1.0000 0.79330  0.33020  0.84980  Biso   1.000  H
  C71      1.0000 0.79610  0.28719  0.53980  Biso   1.000  C
  C72      1.0000 0.84130  0.35771  0.44380  Biso   1.000  C
  H58      1.0000 0.84370  0.37110  0.47350  Biso   1.000  H
  H59      1.0000 0.82230  0.35810  0.38650  Biso   1.000  H
  H60      1.0000 0.86830  0.35330  0.42020  Biso   1.000  H
  C73      1.0000 0.65300  0.29102  0.53980  Biso   1.000  C
  C74      1.0000 0.63380  0.30304  0.61140  Biso   1.000  C
  H61      1.0000 0.63560  0.29980  0.68120  Biso   1.000  H
  C75      1.0000 0.61050  0.32095  0.57860  Biso   1.000  C
  C76      1.0000 0.60600  0.32364  0.47280  Biso   1.000  C
  C77      1.0000 0.62590  0.31082  0.39720  Biso   1.000  C
  C78      1.0000 0.64640  0.29430  0.43680  Biso   1.000  C
  H62      1.0000 0.65660  0.28460  0.39070  Biso   1.000  H
  C79      1.0000 0.67600  0.27378  0.58120  Biso   1.000  C
  C80      1.0000 0.59300  0.33336  0.65590  Biso   1.000  C
  H63      1.0000 0.59640  0.32920  0.72400  Biso   1.000  H
  C81      1.0000 0.61670  0.31332  0.29040  Biso   1.000  C
  H64      1.0000 0.60050  0.32550  0.28070  Biso   1.000  H
  H65      1.0000 0.60110  0.30170  0.26620  Biso   1.000  H
  H66      1.0000 0.64240  0.31440  0.25220  Biso   1.000  H
  C82      1.0000 0.55330  0.36277  0.72200  Biso   1.000  C
  C83      1.0000 0.56400  0.35668  0.82940  Biso   1.000  C
  H67      1.0000 0.59390  0.35780  0.84000  Biso   1.000  H
  H68      1.0000 0.55580  0.34260  0.84100  Biso   1.000  H
  C84      1.0000 0.54110  0.37059  0.90540  Biso   1.000  C
  H69      1.0000 0.54810  0.36690  0.97580  Biso   1.000  H
  H70      1.0000 0.51110  0.36930  0.89660  Biso   1.000  H
  C85      1.0000 0.55610  0.39400  0.88160  Biso   1.000  C
  H71      1.0000 0.54220  0.40330  0.92890  Biso   1.000  H
  H72      1.0000 0.58600  0.39520  0.89260  Biso   1.000  H
  C86      1.0000 0.54590  0.39998  0.77290  Biso   1.000  C
  H73      1.0000 0.55600  0.41370  0.75970  Biso   1.000  H
  H74      1.0000 0.51580  0.39990  0.76330  Biso   1.000  H
  C87      1.0000 0.56610  0.38519  0.69700  Biso   1.000  C
  C88      1.0000 0.55290  0.41248  0.44460  Biso   1.000  C
  C89      1.0000 0.56368  0.39790  0.36500  Biso   1.000  C
  C90      1.0000 0.56790  0.40521  0.26550  Biso   1.000  C
  C91      1.0000 0.55780  0.42499  0.24240  Biso   1.000  C
  H75      1.0000 0.55990  0.42940  0.17430  Biso   1.000  H
  C92      1.0000 0.54460  0.43893  0.31780  Biso   1.000  C
  C93      1.0000 0.54320  0.43210  0.41870  Biso   1.000  C
  H76      1.0000 0.53530  0.44120  0.47050  Biso   1.000  H
  C94      1.0000 0.55400  0.40645  0.55300  Biso   1.000  C
  H77      1.0000 0.55010  0.41670  0.60170  Biso   1.000  H
  C95      1.0000 0.58320  0.39040  0.18230  Biso   1.000  C
  H78      1.0000 0.58890  0.37730  0.21290  Biso   1.000  H
  H79      1.0000 0.60840  0.39570  0.15160  Biso   1.000  H
  H80      1.0000 0.56210  0.38890  0.13020  Biso   1.000  H
  C96      1.0000 0.52730  0.46002  0.28600  Biso   1.000  C
  N5       1.0000 0.57269  0.35010  0.64030  Biso   1.000  N
  N6       1.0000 0.55986  0.38819  0.58730  Biso   1.000  N
  N7       1.0000 0.79942  0.35840  0.83770  Biso   1.000  N
  N8       1.0000 0.82816  0.39465  0.89230  Biso   1.000  N
  O13      1.0000 0.53820  0.46710  0.19700  Biso   1.000  O
  O14      1.0000 0.52160  0.47300  0.34950  Biso   1.000  O
  O15      1.0000 0.58377  0.33978  0.43390  Biso   1.000  O
  O16      1.0000 0.57177  0.37893  0.38530  Biso   1.000  O
  O17      1.0000 0.83355  0.40896  0.69200  Biso   1.000  O
  O18      1.0000 0.82308  0.36901  0.64210  Biso   1.000  O
  O19      1.0000 0.93260  0.48927  0.77870  Biso   1.000  O
  O20      1.0000 0.92690  0.47862  0.93230  Biso   1.000  O
  O21      1.0000 0.68260  0.27105  0.67100  Biso   1.000  O
  O22      1.0000 0.68960  0.26012  0.49930  Biso   1.000  O
  O23      1.0000 0.78280  0.27367  0.59990  Biso   1.000  O
  O24      1.0000 0.78980  0.28300  0.43810  Biso   1.000  O
  Fe5      1.0000 0.30368  0.88605  0.75108  Biso   1.000  Fe
  Fe6      1.0000 0.05461  0.86187  0.49603  Biso   1.000  Fe
  Ba3      1.0000 0.00520  0.00037  0.16897  Biso   1.000  Ba
  C97      1.0000 0.39520  0.95898  0.80610  Biso   1.000  C
  C98      1.0000 0.39160  0.95477  0.69920  Biso   1.000  C
  H81      1.0000 0.40520  0.96320  0.65210  Biso   1.000  H
  C99      1.0000 0.36900  0.93888  0.66410  Biso   1.000  C
  C100     1.0000 0.35270  0.92391  0.72860  Biso   1.000  C
  C101     1.0000 0.35700  0.92727  0.83880  Biso   1.000  C
  C102     1.0000 0.38080  0.94310  0.87140  Biso   1.000  C
  H82      1.0000 0.38810  0.94360  0.94080  Biso   1.000  H
  C103     1.0000 0.42050  0.97710  0.83820  Biso   1.000  C
  C104     1.0000 0.36610  0.93500  0.53990  Biso   1.000  C
  H83      1.0000 0.37940  0.94610  0.50420  Biso   1.000  H
  H84      1.0000 0.33720  0.93420  0.51970  Biso   1.000  H
  H85      1.0000 0.37990  0.92240  0.52290  Biso   1.000  H
  C105     1.0000 0.34660  0.91136  0.90910  Biso   1.000  C
  H86      1.0000 0.35440  0.91360  0.97730  Biso   1.000  H
  C106     1.0000 0.32620  0.87904  0.97570  Biso   1.000  C
  C107     1.0000 0.31940  0.88731  0.08260  Biso   1.000  C
  H87      1.0000 0.29410  0.89550  0.08460  Biso   1.000  H
  H88      1.0000 0.34280  0.89590  0.10260  Biso   1.000  H
  C108     1.0000 0.31550  0.86840  0.15960  Biso   1.000  C
  H89      1.0000 0.34170  0.86090  0.16020  Biso   1.000  H
  H90      1.0000 0.31040  0.87340  0.22890  Biso   1.000  H
  C109     1.0000 0.28200  0.85490  0.12930  Biso   1.000  C
  H91      1.0000 0.25570  0.86230  0.13010  Biso   1.000  H
  H92      1.0000 0.27990  0.84370  0.17830  Biso   1.000  H
  C110     1.0000 0.28990  0.84606  0.01850  Biso   1.000  C
  H93      1.0000 0.31630  0.83870  0.01660  Biso   1.000  H
  H94      1.0000 0.26770  0.83670  0.99960  Biso   1.000  H
  C111     1.0000 0.29100  0.86382  0.94490  Biso   1.000  C
  C112     1.0000 0.30340  0.83544  0.69920  Biso   1.000  C
  C113     1.0000 0.29780  0.81474  0.67100  Biso   1.000  C
  H95      1.0000 0.29080  0.80540  0.72230  Biso   1.000  H
  C114     1.0000 0.30200  0.80784  0.57290  Biso   1.000  C
  C115     1.0000 0.31730  0.82264  0.50200  Biso   1.000  C
  H96      1.0000 0.32240  0.81820  0.43500  Biso   1.000  H
  C116     1.0000 0.32540  0.84318  0.52280  Biso   1.000  C
  C117     1.0000 0.31752  0.84962  0.62060  Biso   1.000  C
  C118     1.0000 0.29820  0.84077  0.80310  Biso   1.000  C
  H97      1.0000 0.29330  0.83020  0.84980  Biso   1.000  H
  C119     1.0000 0.29610  0.78719  0.53980  Biso   1.000  C
  C120     1.0000 0.34130  0.85771  0.44380  Biso   1.000  C
  H98      1.0000 0.34370  0.87110  0.47350  Biso   1.000  H
  H99      1.0000 0.32230  0.85810  0.38650  Biso   1.000  H
  H100     1.0000 0.36830  0.85330  0.42020  Biso   1.000  H
  C121     1.0000 0.15300  0.79102  0.53980  Biso   1.000  C
  C122     1.0000 0.13380  0.80304  0.61140  Biso   1.000  C
  H101     1.0000 0.13560  0.79980  0.68120  Biso   1.000  H
  C123     1.0000 0.11050  0.82095  0.57860  Biso   1.000  C
  C124     1.0000 0.10600  0.82364  0.47280  Biso   1.000  C
  C125     1.0000 0.12590  0.81082  0.39720  Biso   1.000  C
  C126     1.0000 0.14640  0.79430  0.43680  Biso   1.000  C
  H102     1.0000 0.15660  0.78460  0.39070  Biso   1.000  H
  C127     1.0000 0.17600  0.77378  0.58120  Biso   1.000  C
  C128     1.0000 0.09300  0.83336  0.65590  Biso   1.000  C
  H103     1.0000 0.09640  0.82920  0.72400  Biso   1.000  H
  C129     1.0000 0.11670  0.81332  0.29040  Biso   1.000  C
  H104     1.0000 0.10050  0.82550  0.28070  Biso   1.000  H
  H105     1.0000 0.10110  0.80170  0.26620  Biso   1.000  H
  H106     1.0000 0.14240  0.81440  0.25220  Biso   1.000  H
  C130     1.0000 0.05330  0.86277  0.72200  Biso   1.000  C
  C131     1.0000 0.06400  0.85668  0.82940  Biso   1.000  C
  H107     1.0000 0.09390  0.85780  0.84000  Biso   1.000  H
  H108     1.0000 0.05580  0.84260  0.84100  Biso   1.000  H
  C132     1.0000 0.04110  0.87059  0.90540  Biso   1.000  C
  H109     1.0000 0.04810  0.86690  0.97580  Biso   1.000  H
  H110     1.0000 0.01110  0.86930  0.89660  Biso   1.000  H
  C133     1.0000 0.05610  0.89400  0.88160  Biso   1.000  C
  H111     1.0000 0.04220  0.90330  0.92890  Biso   1.000  H
  H112     1.0000 0.08600  0.89520  0.89260  Biso   1.000  H
  C134     1.0000 0.04590  0.89998  0.77290  Biso   1.000  C
  H113     1.0000 0.05600  0.91370  0.75970  Biso   1.000  H
  H114     1.0000 0.01580  0.89990  0.76330  Biso   1.000  H
  C135     1.0000 0.06610  0.88519  0.69700  Biso   1.000  C
  C136     1.0000 0.05290  0.91248  0.44460  Biso   1.000  C
  C137     1.0000 0.06368  0.89790  0.36500  Biso   1.000  C
  C138     1.0000 0.06790  0.90521  0.26550  Biso   1.000  C
  C139     1.0000 0.05780  0.92499  0.24240  Biso   1.000  C
  H115     1.0000 0.05990  0.92940  0.17430  Biso   1.000  H
  C140     1.0000 0.04460  0.93893  0.31780  Biso   1.000  C
  C141     1.0000 0.04320  0.93210  0.41870  Biso   1.000  C
  H116     1.0000 0.03530  0.94120  0.47050  Biso   1.000  H
  C142     1.0000 0.05400  0.90645  0.55300  Biso   1.000  C
  H117     1.0000 0.05010  0.91670  0.60170  Biso   1.000  H
  C143     1.0000 0.08320  0.89040  0.18230  Biso   1.000  C
  H118     1.0000 0.08890  0.87730  0.21290  Biso   1.000  H
  H119     1.0000 0.10840  0.89570  0.15160  Biso   1.000  H
  H120     1.0000 0.06210  0.88890  0.13020  Biso   1.000  H
  C144     1.0000 0.02730  0.96002  0.28600  Biso   1.000  C
  N9       1.0000 0.07269  0.85010  0.64030  Biso   1.000  N
  N10      1.0000 0.05986  0.88819  0.58730  Biso   1.000  N
  N11      1.0000 0.29942  0.85840  0.83770  Biso   1.000  N
  N12      1.0000 0.32816  0.89465  0.89230  Biso   1.000  N
  O25      1.0000 0.03820  0.96710  0.19700  Biso   1.000  O
  O26      1.0000 0.02160  0.97300  0.34950  Biso   1.000  O
  O27      1.0000 0.08377  0.83978  0.43390  Biso   1.000  O
  O28      1.0000 0.07177  0.87893  0.38530  Biso   1.000  O
  O29      1.0000 0.33355  0.90896  0.69200  Biso   1.000  O
  O30      1.0000 0.32308  0.86901  0.64210  Biso   1.000  O
  O31      1.0000 0.43260  0.98927  0.77870  Biso   1.000  O
  O32      1.0000 0.42690  0.97862  0.93230  Biso   1.000  O
  O33      1.0000 0.18260  0.77105  0.67100  Biso   1.000  O
  O34      1.0000 0.18960  0.76012  0.49930  Biso   1.000  O
  O35      1.0000 0.28280  0.77367  0.59990  Biso   1.000  O
  O36      1.0000 0.28980  0.78300  0.43810  Biso   1.000  O
  Fe7      1.0000 0.30368  0.38605  0.25108  Biso   1.000  Fe
  Fe8      1.0000 0.05461  0.36187  0.99603  Biso   1.000  Fe
  Ba4      1.0000 0.00520  0.50037  0.66897  Biso   1.000  Ba
  C145     1.0000 0.39520  0.45898  0.30610  Biso   1.000  C
  C146     1.0000 0.39160  0.45477  0.19920  Biso   1.000  C
  H121     1.0000 0.40520  0.46320  0.15210  Biso   1.000  H
  C147     1.0000 0.36900  0.43888  0.16410  Biso   1.000  C
  C148     1.0000 0.35270  0.42391  0.22860  Biso   1.000  C
  C149     1.0000 0.35700  0.42727  0.33880  Biso   1.000  C
  C150     1.0000 0.38080  0.44310  0.37140  Biso   1.000  C
  H122     1.0000 0.38810  0.44360  0.44080  Biso   1.000  H
  C151     1.0000 0.42050  0.47710  0.33820  Biso   1.000  C
  C152     1.0000 0.36610  0.43500  0.03990  Biso   1.000  C
  H123     1.0000 0.37940  0.44610  0.00420  Biso   1.000  H
  H124     1.0000 0.33720  0.43420  0.01970  Biso   1.000  H
  H125     1.0000 0.37990  0.42240  0.02290  Biso   1.000  H
  C153     1.0000 0.34660  0.41136  0.40910  Biso   1.000  C
  H126     1.0000 0.35440  0.41360  0.47730  Biso   1.000  H
  C154     1.0000 0.32620  0.37904  0.47570  Biso   1.000  C
  C155     1.0000 0.31940  0.38731  0.58260  Biso   1.000  C
  H127     1.0000 0.29410  0.39550  0.58460  Biso   1.000  H
  H128     1.0000 0.34280  0.39590  0.60260  Biso   1.000  H
  C156     1.0000 0.31550  0.36840  0.65960  Biso   1.000  C
  H129     1.0000 0.34170  0.36090  0.66020  Biso   1.000  H
  H130     1.0000 0.31040  0.37340  0.72890  Biso   1.000  H
  C157     1.0000 0.28200  0.35490  0.62930  Biso   1.000  C
  H131     1.0000 0.25570  0.36230  0.63010  Biso   1.000  H
  H132     1.0000 0.27990  0.34370  0.67830  Biso   1.000  H
  C158     1.0000 0.28990  0.34606  0.51850  Biso   1.000  C
  H133     1.0000 0.31630  0.33870  0.51660  Biso   1.000  H
  H134     1.0000 0.26770  0.33670  0.49960  Biso   1.000  H
  C159     1.0000 0.29100  0.36382  0.44490  Biso   1.000  C
  C160     1.0000 0.30340  0.33544  0.19920  Biso   1.000  C
  C161     1.0000 0.29780  0.31474  0.17100  Biso   1.000  C
  H135     1.0000 0.29080  0.30540  0.22230  Biso   1.000  H
  C162     1.0000 0.30200  0.30784  0.07290  Biso   1.000  C
  C163     1.0000 0.31730  0.32264  0.00200  Biso   1.000  C
  H136     1.0000 0.32240  0.31820  0.93500  Biso   1.000  H
  C164     1.0000 0.32540  0.34318  0.02280  Biso   1.000  C
  C165     1.0000 0.31752  0.34962  0.12060  Biso   1.000  C
  C166     1.0000 0.29820  0.34077  0.30310  Biso   1.000  C
  H137     1.0000 0.29330  0.33020  0.34980  Biso   1.000  H
  C167     1.0000 0.29610  0.28719  0.03980  Biso   1.000  C
  C168     1.0000 0.34130  0.35771  0.94380  Biso   1.000  C
  H138     1.0000 0.34370  0.37110  0.97350  Biso   1.000  H
  H139     1.0000 0.32230  0.35810  0.88650  Biso   1.000  H
  H140     1.0000 0.36830  0.35330  0.92020  Biso   1.000  H
  C169     1.0000 0.15300  0.29102  0.03980  Biso   1.000  C
  C170     1.0000 0.13380  0.30304  0.11140  Biso   1.000  C
  H141     1.0000 0.13560  0.29980  0.18120  Biso   1.000  H
  C171     1.0000 0.11050  0.32095  0.07860  Biso   1.000  C
  C172     1.0000 0.10600  0.32364  0.97280  Biso   1.000  C
  C173     1.0000 0.12590  0.31082  0.89720  Biso   1.000  C
  C174     1.0000 0.14640  0.29430  0.93680  Biso   1.000  C
  H142     1.0000 0.15660  0.28460  0.89070  Biso   1.000  H
  C175     1.0000 0.17600  0.27378  0.08120  Biso   1.000  C
  C176     1.0000 0.09300  0.33336  0.15590  Biso   1.000  C
  H143     1.0000 0.09640  0.32920  0.22400  Biso   1.000  H
  C177     1.0000 0.11670  0.31332  0.79040  Biso   1.000  C
  H144     1.0000 0.10050  0.32550  0.78070  Biso   1.000  H
  H145     1.0000 0.10110  0.30170  0.76620  Biso   1.000  H
  H146     1.0000 0.14240  0.31440  0.75220  Biso   1.000  H
  C178     1.0000 0.05330  0.36277  0.22200  Biso   1.000  C
  C179     1.0000 0.06400  0.35668  0.32940  Biso   1.000  C
  H147     1.0000 0.09390  0.35780  0.34000  Biso   1.000  H
  H148     1.0000 0.05580  0.34260  0.34100  Biso   1.000  H
  C180     1.0000 0.04110  0.37059  0.40540  Biso   1.000  C
  H149     1.0000 0.04810  0.36690  0.47580  Biso   1.000  H
  H150     1.0000 0.01110  0.36930  0.39660  Biso   1.000  H
  C181     1.0000 0.05610  0.39400  0.38160  Biso   1.000  C
  H151     1.0000 0.04220  0.40330  0.42890  Biso   1.000  H
  H152     1.0000 0.08600  0.39520  0.39260  Biso   1.000  H
  C182     1.0000 0.04590  0.39998  0.27290  Biso   1.000  C
  H153     1.0000 0.05600  0.41370  0.25970  Biso   1.000  H
  H154     1.0000 0.01580  0.39990  0.26330  Biso   1.000  H
  C183     1.0000 0.06610  0.38519  0.19700  Biso   1.000  C
  C184     1.0000 0.05290  0.41248  0.94460  Biso   1.000  C
  C185     1.0000 0.06368  0.39790  0.86500  Biso   1.000  C
  C186     1.0000 0.06790  0.40521  0.76550  Biso   1.000  C
  C187     1.0000 0.05780  0.42499  0.74240  Biso   1.000  C
  H155     1.0000 0.05990  0.42940  0.67430  Biso   1.000  H
  C188     1.0000 0.04460  0.43893  0.81780  Biso   1.000  C
  C189     1.0000 0.04320  0.43210  0.91870  Biso   1.000  C
  H156     1.0000 0.03530  0.44120  0.97050  Biso   1.000  H
  C190     1.0000 0.05400  0.40645  0.05300  Biso   1.000  C
  H157     1.0000 0.05010  0.41670  0.10170  Biso   1.000  H
  C191     1.0000 0.08320  0.39040  0.68230  Biso   1.000  C
  H158     1.0000 0.08890  0.37730  0.71290  Biso   1.000  H
  H159     1.0000 0.10840  0.39570  0.65160  Biso   1.000  H
  H160     1.0000 0.06210  0.38890  0.63020  Biso   1.000  H
  C192     1.0000 0.02730  0.46002  0.78600  Biso   1.000  C
  N13      1.0000 0.07269  0.35010  0.14030  Biso   1.000  N
  N14      1.0000 0.05986  0.38819  0.08730  Biso   1.000  N
  N15      1.0000 0.29942  0.35840  0.33770  Biso   1.000  N
  N16      1.0000 0.32816  0.39465  0.39230  Biso   1.000  N
  O37      1.0000 0.03820  0.46710  0.69700  Biso   1.000  O
  O38      1.0000 0.02160  0.47300  0.84950  Biso   1.000  O
  O39      1.0000 0.08377  0.33978  0.93390  Biso   1.000  O
  O40      1.0000 0.07177  0.37893  0.88530  Biso   1.000  O
  O41      1.0000 0.33355  0.40896  0.19200  Biso   1.000  O
  O42      1.0000 0.32308  0.36901  0.14210  Biso   1.000  O
  O43      1.0000 0.43260  0.48927  0.27870  Biso   1.000  O
  O44      1.0000 0.42690  0.47862  0.43230  Biso   1.000  O
  O45      1.0000 0.18260  0.27105  0.17100  Biso   1.000  O
  O46      1.0000 0.18960  0.26012  0.99930  Biso   1.000  O
  O47      1.0000 0.28280  0.27367  0.09990  Biso   1.000  O
  O48      1.0000 0.28980  0.28300  0.93810  Biso   1.000  O
  Fe9      1.0000 0.19632  0.11395  0.25108  Biso   1.000  Fe
  Fe10     1.0000 0.44539  0.13813  0.99603  Biso   1.000  Fe
  Ba5      1.0000 0.49480  0.99963  0.66897  Biso   1.000  Ba
  C193     1.0000 0.10480  0.04102  0.30610  Biso   1.000  C
  C194     1.0000 0.10840  0.04523  0.19920  Biso   1.000  C
  H161     1.0000 0.09480  0.03680  0.15210  Biso   1.000  H
  C195     1.0000 0.13100  0.06112  0.16410  Biso   1.000  C
  C196     1.0000 0.14730  0.07609  0.22860  Biso   1.000  C
  C197     1.0000 0.14300  0.07273  0.33880  Biso   1.000  C
  C198     1.0000 0.11920  0.05690  0.37140  Biso   1.000  C
  H162     1.0000 0.11190  0.05640  0.44080  Biso   1.000  H
  C199     1.0000 0.07950  0.02290  0.33820  Biso   1.000  C
  C200     1.0000 0.13390  0.06500  0.03990  Biso   1.000  C
  H163     1.0000 0.12060  0.05390  0.00420  Biso   1.000  H
  H164     1.0000 0.16280  0.06580  0.01970  Biso   1.000  H
  H165     1.0000 0.12010  0.07760  0.02290  Biso   1.000  H
  C201     1.0000 0.15340  0.08864  0.40910  Biso   1.000  C
  H166     1.0000 0.14560  0.08640  0.47730  Biso   1.000  H
  C202     1.0000 0.17380  0.12096  0.47570  Biso   1.000  C
  C203     1.0000 0.18060  0.11269  0.58260  Biso   1.000  C
  H167     1.0000 0.20590  0.10450  0.58460  Biso   1.000  H
  H168     1.0000 0.15720  0.10410  0.60260  Biso   1.000  H
  C204     1.0000 0.18450  0.13160  0.65960  Biso   1.000  C
  H169     1.0000 0.15830  0.13910  0.66020  Biso   1.000  H
  H170     1.0000 0.18960  0.12660  0.72890  Biso   1.000  H
  C205     1.0000 0.21800  0.14510  0.62930  Biso   1.000  C
  H171     1.0000 0.24430  0.13770  0.63010  Biso   1.000  H
  H172     1.0000 0.22010  0.15630  0.67830  Biso   1.000  H
  C206     1.0000 0.21010  0.15394  0.51850  Biso   1.000  C
  H173     1.0000 0.18370  0.16130  0.51660  Biso   1.000  H
  H174     1.0000 0.23230  0.16330  0.49960  Biso   1.000  H
  C207     1.0000 0.20900  0.13618  0.44490  Biso   1.000  C
  C208     1.0000 0.19660  0.16456  0.19920  Biso   1.000  C
  C209     1.0000 0.20220  0.18526  0.17100  Biso   1.000  C
  H175     1.0000 0.20920  0.19460  0.22230  Biso   1.000  H
  C210     1.0000 0.19800  0.19216  0.07290  Biso   1.000  C
  C211     1.0000 0.18270  0.17736  0.00200  Biso   1.000  C
  H176     1.0000 0.17760  0.18180  0.93500  Biso   1.000  H
  C212     1.0000 0.17460  0.15682  0.02280  Biso   1.000  C
  C213     1.0000 0.18248  0.15038  0.12060  Biso   1.000  C
  C214     1.0000 0.20180  0.15923  0.30310  Biso   1.000  C
  H177     1.0000 0.20670  0.16980  0.34980  Biso   1.000  H
  C215     1.0000 0.20390  0.21281  0.03980  Biso   1.000  C
  C216     1.0000 0.15870  0.14229  0.94380  Biso   1.000  C
  H178     1.0000 0.15630  0.12890  0.97350  Biso   1.000  H
  H179     1.0000 0.17770  0.14190  0.88650  Biso   1.000  H
  H180     1.0000 0.13170  0.14670  0.92020  Biso   1.000  H
  C217     1.0000 0.34700  0.20898  0.03980  Biso   1.000  C
  C218     1.0000 0.36620  0.19696  0.11140  Biso   1.000  C
  H181     1.0000 0.36440  0.20020  0.18120  Biso   1.000  H
  C219     1.0000 0.38950  0.17905  0.07860  Biso   1.000  C
  C220     1.0000 0.39400  0.17636  0.97280  Biso   1.000  C
  C221     1.0000 0.37410  0.18918  0.89720  Biso   1.000  C
  C222     1.0000 0.35360  0.20570  0.93680  Biso   1.000  C
  H182     1.0000 0.34340  0.21540  0.89070  Biso   1.000  H
  C223     1.0000 0.32400  0.22622  0.08120  Biso   1.000  C
  C224     1.0000 0.40700  0.16664  0.15590  Biso   1.000  C
  H183     1.0000 0.40360  0.17080  0.22400  Biso   1.000  H
  C225     1.0000 0.38330  0.18668  0.79040  Biso   1.000  C
  H184     1.0000 0.39950  0.17450  0.78070  Biso   1.000  H
  H185     1.0000 0.39890  0.19830  0.76620  Biso   1.000  H
  H186     1.0000 0.35760  0.18560  0.75220  Biso   1.000  H
  C226     1.0000 0.44670  0.13723  0.22200  Biso   1.000  C
  C227     1.0000 0.43600  0.14332  0.32940  Biso   1.000  C
  H187     1.0000 0.40610  0.14220  0.34000  Biso   1.000  H
  H188     1.0000 0.44420  0.15740  0.34100  Biso   1.000  H
  C228     1.0000 0.45890  0.12941  0.40540  Biso   1.000  C
  H189     1.0000 0.45190  0.13310  0.47580  Biso   1.000  H
  H190     1.0000 0.48890  0.13070  0.39660  Biso   1.000  H
  C229     1.0000 0.44390  0.10600  0.38160  Biso   1.000  C
  H191     1.0000 0.45780  0.09670  0.42890  Biso   1.000  H
  H192     1.0000 0.41400  0.10480  0.39260  Biso   1.000  H
  C230     1.0000 0.45410  0.10002  0.27290  Biso   1.000  C
  H193     1.0000 0.44400  0.08630  0.25970  Biso   1.000  H
  H194     1.0000 0.48420  0.10010  0.26330  Biso   1.000  H
  C231     1.0000 0.43390  0.11481  0.19700  Biso   1.000  C
  C232     1.0000 0.44710  0.08752  0.94460  Biso   1.000  C
  C233     1.0000 0.43632  0.10210  0.86500  Biso   1.000  C
  C234     1.0000 0.43210  0.09479  0.76550  Biso   1.000  C
  C235     1.0000 0.44220  0.07501  0.74240  Biso   1.000  C
  H195     1.0000 0.44010  0.07060  0.67430  Biso   1.000  H
  C236     1.0000 0.45540  0.06107  0.81780  Biso   1.000  C
  C237     1.0000 0.45680  0.06790  0.91870  Biso   1.000  C
  H196     1.0000 0.46470  0.05880  0.97050  Biso   1.000  H
  C238     1.0000 0.44600  0.09355  0.05300  Biso   1.000  C
  H197     1.0000 0.44990  0.08330  0.10170  Biso   1.000  H
  C239     1.0000 0.41680  0.10960  0.68230  Biso   1.000  C
  H198     1.0000 0.41110  0.12270  0.71290  Biso   1.000  H
  H199     1.0000 0.39160  0.10430  0.65160  Biso   1.000  H
  H200     1.0000 0.43790  0.11110  0.63020  Biso   1.000  H
  C240     1.0000 0.47270  0.03998  0.78600  Biso   1.000  C
  N17      1.0000 0.42731  0.14990  0.14030  Biso   1.000  N
  N18      1.0000 0.44014  0.11181  0.08730  Biso   1.000  N
  N19      1.0000 0.20058  0.14160  0.33770  Biso   1.000  N
  N20      1.0000 0.17184  0.10535  0.39230  Biso   1.000  N
  O49      1.0000 0.46180  0.03290  0.69700  Biso   1.000  O
  O50      1.0000 0.47840  0.02700  0.84950  Biso   1.000  O
  O51      1.0000 0.41623  0.16022  0.93390  Biso   1.000  O
  O52      1.0000 0.42823  0.12107  0.88530  Biso   1.000  O
  O53      1.0000 0.16645  0.09104  0.19200  Biso   1.000  O
  O54      1.0000 0.17692  0.13099  0.14210  Biso   1.000  O
  O55      1.0000 0.06740  0.01073  0.27870  Biso   1.000  O
  O56      1.0000 0.07310  0.02138  0.43230  Biso   1.000  O
  O57      1.0000 0.31740  0.22895  0.17100  Biso   1.000  O
  O58      1.0000 0.31040  0.23988  0.99930  Biso   1.000  O
  O59      1.0000 0.21720  0.22633  0.09990  Biso   1.000  O
  O60      1.0000 0.21020  0.21700  0.93810  Biso   1.000  O
  Fe11     1.0000 0.19632  0.61395  0.75108  Biso   1.000  Fe
  Fe12     1.0000 0.44539  0.63813  0.49603  Biso   1.000  Fe
  Ba6      1.0000 0.49480  0.49963  0.16897  Biso   1.000  Ba
  C241     1.0000 0.10480  0.54102  0.80610  Biso   1.000  C
  C242     1.0000 0.10840  0.54523  0.69920  Biso   1.000  C
  H201     1.0000 0.09480  0.53680  0.65210  Biso   1.000  H
  C243     1.0000 0.13100  0.56112  0.66410  Biso   1.000  C
  C244     1.0000 0.14730  0.57609  0.72860  Biso   1.000  C
  C245     1.0000 0.14300  0.57273  0.83880  Biso   1.000  C
  C246     1.0000 0.11920  0.55690  0.87140  Biso   1.000  C
  H202     1.0000 0.11190  0.55640  0.94080  Biso   1.000  H
  C247     1.0000 0.07950  0.52290  0.83820  Biso   1.000  C
  C248     1.0000 0.13390  0.56500  0.53990  Biso   1.000  C
  H203     1.0000 0.12060  0.55390  0.50420  Biso   1.000  H
  H204     1.0000 0.16280  0.56580  0.51970  Biso   1.000  H
  H205     1.0000 0.12010  0.57760  0.52290  Biso   1.000  H
  C249     1.0000 0.15340  0.58864  0.90910  Biso   1.000  C
  H206     1.0000 0.14560  0.58640  0.97730  Biso   1.000  H
  C250     1.0000 0.17380  0.62096  0.97570  Biso   1.000  C
  C251     1.0000 0.18060  0.61269  0.08260  Biso   1.000  C
  H207     1.0000 0.20590  0.60450  0.08460  Biso   1.000  H
  H208     1.0000 0.15720  0.60410  0.10260  Biso   1.000  H
  C252     1.0000 0.18450  0.63160  0.15960  Biso   1.000  C
  H209     1.0000 0.15830  0.63910  0.16020  Biso   1.000  H
  H210     1.0000 0.18960  0.62660  0.22890  Biso   1.000  H
  C253     1.0000 0.21800  0.64510  0.12930  Biso   1.000  C
  H211     1.0000 0.24430  0.63770  0.13010  Biso   1.000  H
  H212     1.0000 0.22010  0.65630  0.17830  Biso   1.000  H
  C254     1.0000 0.21010  0.65394  0.01850  Biso   1.000  C
  H213     1.0000 0.18370  0.66130  0.01660  Biso   1.000  H
  H214     1.0000 0.23230  0.66330  0.99960  Biso   1.000  H
  C255     1.0000 0.20900  0.63618  0.94490  Biso   1.000  C
  C256     1.0000 0.19660  0.66456  0.69920  Biso   1.000  C
  C257     1.0000 0.20220  0.68526  0.67100  Biso   1.000  C
  H215     1.0000 0.20920  0.69460  0.72230  Biso   1.000  H
  C258     1.0000 0.19800  0.69216  0.57290  Biso   1.000  C
  C259     1.0000 0.18270  0.67736  0.50200  Biso   1.000  C
  H216     1.0000 0.17760  0.68180  0.43500  Biso   1.000  H
  C260     1.0000 0.17460  0.65682  0.52280  Biso   1.000  C
  C261     1.0000 0.18248  0.65038  0.62060  Biso   1.000  C
  C262     1.0000 0.20180  0.65923  0.80310  Biso   1.000  C
  H217     1.0000 0.20670  0.66980  0.84980  Biso   1.000  H
  C263     1.0000 0.20390  0.71281  0.53980  Biso   1.000  C
  C264     1.0000 0.15870  0.64229  0.44380  Biso   1.000  C
  H218     1.0000 0.15630  0.62890  0.47350  Biso   1.000  H
  H219     1.0000 0.17770  0.64190  0.38650  Biso   1.000  H
  H220     1.0000 0.13170  0.64670  0.42020  Biso   1.000  H
  C265     1.0000 0.34700  0.70898  0.53980  Biso   1.000  C
  C266     1.0000 0.36620  0.69696  0.61140  Biso   1.000  C
  H221     1.0000 0.36440  0.70020  0.68120  Biso   1.000  H
  C267     1.0000 0.38950  0.67905  0.57860  Biso   1.000  C
  C268     1.0000 0.39400  0.67636  0.47280  Biso   1.000  C
  C269     1.0000 0.37410  0.68918  0.39720  Biso   1.000  C
  C270     1.0000 0.35360  0.70570  0.43680  Biso   1.000  C
  H222     1.0000 0.34340  0.71540  0.39070  Biso   1.000  H
  C271     1.0000 0.32400  0.72622  0.58120  Biso   1.000  C
  C272     1.0000 0.40700  0.66664  0.65590  Biso   1.000  C
  H223     1.0000 0.40360  0.67080  0.72400  Biso   1.000  H
  C273     1.0000 0.38330  0.68668  0.29040  Biso   1.000  C
  H224     1.0000 0.39950  0.67450  0.28070  Biso   1.000  H
  H225     1.0000 0.39890  0.69830  0.26620  Biso   1.000  H
  H226     1.0000 0.35760  0.68560  0.25220  Biso   1.000  H
  C274     1.0000 0.44670  0.63723  0.72200  Biso   1.000  C
  C275     1.0000 0.43600  0.64332  0.82940  Biso   1.000  C
  H227     1.0000 0.40610  0.64220  0.84000  Biso   1.000  H
  H228     1.0000 0.44420  0.65740  0.84100  Biso   1.000  H
  C276     1.0000 0.45890  0.62941  0.90540  Biso   1.000  C
  H229     1.0000 0.45190  0.63310  0.97580  Biso   1.000  H
  H230     1.0000 0.48890  0.63070  0.89660  Biso   1.000  H
  C277     1.0000 0.44390  0.60600  0.88160  Biso   1.000  C
  H231     1.0000 0.45780  0.59670  0.92890  Biso   1.000  H
  H232     1.0000 0.41400  0.60480  0.89260  Biso   1.000  H
  C278     1.0000 0.45410  0.60002  0.77290  Biso   1.000  C
  H233     1.0000 0.44400  0.58630  0.75970  Biso   1.000  H
  H234     1.0000 0.48420  0.60010  0.76330  Biso   1.000  H
  C279     1.0000 0.43390  0.61481  0.69700  Biso   1.000  C
  C280     1.0000 0.44710  0.58752  0.44460  Biso   1.000  C
  C281     1.0000 0.43632  0.60210  0.36500  Biso   1.000  C
  C282     1.0000 0.43210  0.59479  0.26550  Biso   1.000  C
  C283     1.0000 0.44220  0.57501  0.24240  Biso   1.000  C
  H235     1.0000 0.44010  0.57060  0.17430  Biso   1.000  H
  C284     1.0000 0.45540  0.56107  0.31780  Biso   1.000  C
  C285     1.0000 0.45680  0.56790  0.41870  Biso   1.000  C
  H236     1.0000 0.46470  0.55880  0.47050  Biso   1.000  H
  C286     1.0000 0.44600  0.59355  0.55300  Biso   1.000  C
  H237     1.0000 0.44990  0.58330  0.60170  Biso   1.000  H
  C287     1.0000 0.41680  0.60960  0.18230  Biso   1.000  C
  H238     1.0000 0.41110  0.62270  0.21290  Biso   1.000  H
  H239     1.0000 0.39160  0.60430  0.15160  Biso   1.000  H
  H240     1.0000 0.43790  0.61110  0.13020  Biso   1.000  H
  C288     1.0000 0.47270  0.53998  0.28600  Biso   1.000  C
  N21      1.0000 0.42731  0.64990  0.64030  Biso   1.000  N
  N22      1.0000 0.44014  0.61181  0.58730  Biso   1.000  N
  N23      1.0000 0.20058  0.64160  0.83770  Biso   1.000  N
  N24      1.0000 0.17184  0.60535  0.89230  Biso   1.000  N
  O61      1.0000 0.46180  0.53290  0.19700  Biso   1.000  O
  O62      1.0000 0.47840  0.52700  0.34950  Biso   1.000  O
  O63      1.0000 0.41623  0.66022  0.43390  Biso   1.000  O
  O64      1.0000 0.42823  0.62107  0.38530  Biso   1.000  O
  O65      1.0000 0.16645  0.59104  0.69200  Biso   1.000  O
  O66      1.0000 0.17692  0.63099  0.64210  Biso   1.000  O
  O67      1.0000 0.06740  0.51073  0.77870  Biso   1.000  O
  O68      1.0000 0.07310  0.52138  0.93230  Biso   1.000  O
  O69      1.0000 0.31740  0.72895  0.67100  Biso   1.000  O
  O70      1.0000 0.31040  0.73988  0.49930  Biso   1.000  O
  O71      1.0000 0.21720  0.72633  0.59990  Biso   1.000  O
  O72      1.0000 0.21020  0.71700  0.43810  Biso   1.000  O
  Fe13     1.0000 0.69632  0.11395  0.75108  Biso   1.000  Fe
  Fe14     1.0000 0.94539  0.13813  0.49603  Biso   1.000  Fe
  Ba7      1.0000 0.99480  0.99963  0.16897  Biso   1.000  Ba
  C289     1.0000 0.60480  0.04102  0.80610  Biso   1.000  C
  C290     1.0000 0.60840  0.04523  0.69920  Biso   1.000  C
  H241     1.0000 0.59480  0.03680  0.65210  Biso   1.000  H
  C291     1.0000 0.63100  0.06112  0.66410  Biso   1.000  C
  C292     1.0000 0.64730  0.07609  0.72860  Biso   1.000  C
  C293     1.0000 0.64300  0.07273  0.83880  Biso   1.000  C
  C294     1.0000 0.61920  0.05690  0.87140  Biso   1.000  C
  H242     1.0000 0.61190  0.05640  0.94080  Biso   1.000  H
  C295     1.0000 0.57950  0.02290  0.83820  Biso   1.000  C
  C296     1.0000 0.63390  0.06500  0.53990  Biso   1.000  C
  H243     1.0000 0.62060  0.05390  0.50420  Biso   1.000  H
  H244     1.0000 0.66280  0.06580  0.51970  Biso   1.000  H
  H245     1.0000 0.62010  0.07760  0.52290  Biso   1.000  H
  C297     1.0000 0.65340  0.08864  0.90910  Biso   1.000  C
  H246     1.0000 0.64560  0.08640  0.97730  Biso   1.000  H
  C298     1.0000 0.67380  0.12096  0.97570  Biso   1.000  C
  C299     1.0000 0.68060  0.11269  0.08260  Biso   1.000  C
  H247     1.0000 0.70590  0.10450  0.08460  Biso   1.000  H
  H248     1.0000 0.65720  0.10410  0.10260  Biso   1.000  H
  C300     1.0000 0.68450  0.13160  0.15960  Biso   1.000  C
  H249     1.0000 0.65830  0.13910  0.16020  Biso   1.000  H
  H250     1.0000 0.68960  0.12660  0.22890  Biso   1.000  H
  C301     1.0000 0.71800  0.14510  0.12930  Biso   1.000  C
  H251     1.0000 0.74430  0.13770  0.13010  Biso   1.000  H
  H252     1.0000 0.72010  0.15630  0.17830  Biso   1.000  H
  C302     1.0000 0.71010  0.15394  0.01850  Biso   1.000  C
  H253     1.0000 0.68370  0.16130  0.01660  Biso   1.000  H
  H254     1.0000 0.73230  0.16330  0.99960  Biso   1.000  H
  C303     1.0000 0.70900  0.13618  0.94490  Biso   1.000  C
  C304     1.0000 0.69660  0.16456  0.69920  Biso   1.000  C
  C305     1.0000 0.70220  0.18526  0.67100  Biso   1.000  C
  H255     1.0000 0.70920  0.19460  0.72230  Biso   1.000  H
  C306     1.0000 0.69800  0.19216  0.57290  Biso   1.000  C
  C307     1.0000 0.68270  0.17736  0.50200  Biso   1.000  C
  H256     1.0000 0.67760  0.18180  0.43500  Biso   1.000  H
  C308     1.0000 0.67460  0.15682  0.52280  Biso   1.000  C
  C309     1.0000 0.68248  0.15038  0.62060  Biso   1.000  C
  C310     1.0000 0.70180  0.15923  0.80310  Biso   1.000  C
  H257     1.0000 0.70670  0.16980  0.84980  Biso   1.000  H
  C311     1.0000 0.70390  0.21281  0.53980  Biso   1.000  C
  C312     1.0000 0.65870  0.14229  0.44380  Biso   1.000  C
  H258     1.0000 0.65630  0.12890  0.47350  Biso   1.000  H
  H259     1.0000 0.67770  0.14190  0.38650  Biso   1.000  H
  H260     1.0000 0.63170  0.14670  0.42020  Biso   1.000  H
  C313     1.0000 0.84700  0.20898  0.53980  Biso   1.000  C
  C314     1.0000 0.86620  0.19696  0.61140  Biso   1.000  C
  H261     1.0000 0.86440  0.20020  0.68120  Biso   1.000  H
  C315     1.0000 0.88950  0.17905  0.57860  Biso   1.000  C
  C316     1.0000 0.89400  0.17636  0.47280  Biso   1.000  C
  C317     1.0000 0.87410  0.18918  0.39720  Biso   1.000  C
  C318     1.0000 0.85360  0.20570  0.43680  Biso   1.000  C
  H262     1.0000 0.84340  0.21540  0.39070  Biso   1.000  H
  C319     1.0000 0.82400  0.22622  0.58120  Biso   1.000  C
  C320     1.0000 0.90700  0.16664  0.65590  Biso   1.000  C
  H263     1.0000 0.90360  0.17080  0.72400  Biso   1.000  H
  C321     1.0000 0.88330  0.18668  0.29040  Biso   1.000  C
  H264     1.0000 0.89950  0.17450  0.28070  Biso   1.000  H
  H265     1.0000 0.89890  0.19830  0.26620  Biso   1.000  H
  H266     1.0000 0.85760  0.18560  0.25220  Biso   1.000  H
  C322     1.0000 0.94670  0.13723  0.72200  Biso   1.000  C
  C323     1.0000 0.93600  0.14332  0.82940  Biso   1.000  C
  H267     1.0000 0.90610  0.14220  0.84000  Biso   1.000  H
  H268     1.0000 0.94420  0.15740  0.84100  Biso   1.000  H
  C324     1.0000 0.95890  0.12941  0.90540  Biso   1.000  C
  H269     1.0000 0.95190  0.13310  0.97580  Biso   1.000  H
  H270     1.0000 0.98890  0.13070  0.89660  Biso   1.000  H
  C325     1.0000 0.94390  0.10600  0.88160  Biso   1.000  C
  H271     1.0000 0.95780  0.09670  0.92890  Biso   1.000  H
  H272     1.0000 0.91400  0.10480  0.89260  Biso   1.000  H
  C326     1.0000 0.95410  0.10002  0.77290  Biso   1.000  C
  H273     1.0000 0.94400  0.08630  0.75970  Biso   1.000  H
  H274     1.0000 0.98420  0.10010  0.76330  Biso   1.000  H
  C327     1.0000 0.93390  0.11481  0.69700  Biso   1.000  C
  C328     1.0000 0.94710  0.08752  0.44460  Biso   1.000  C
  C329     1.0000 0.93632  0.10210  0.36500  Biso   1.000  C
  C330     1.0000 0.93210  0.09479  0.26550  Biso   1.000  C
  C331     1.0000 0.94220  0.07501  0.24240  Biso   1.000  C
  H275     1.0000 0.94010  0.07060  0.17430  Biso   1.000  H
  C332     1.0000 0.95540  0.06107  0.31780  Biso   1.000  C
  C333     1.0000 0.95680  0.06790  0.41870  Biso   1.000  C
  H276     1.0000 0.96470  0.05880  0.47050  Biso   1.000  H
  C334     1.0000 0.94600  0.09355  0.55300  Biso   1.000  C
  H277     1.0000 0.94990  0.08330  0.60170  Biso   1.000  H
  C335     1.0000 0.91680  0.10960  0.18230  Biso   1.000  C
  H278     1.0000 0.91110  0.12270  0.21290  Biso   1.000  H
  H279     1.0000 0.89160  0.10430  0.15160  Biso   1.000  H
  H280     1.0000 0.93790  0.11110  0.13020  Biso   1.000  H
  C336     1.0000 0.97270  0.03998  0.28600  Biso   1.000  C
  N25      1.0000 0.92731  0.14990  0.64030  Biso   1.000  N
  N26      1.0000 0.94014  0.11181  0.58730  Biso   1.000  N
  N27      1.0000 0.70058  0.14160  0.83770  Biso   1.000  N
  N28      1.0000 0.67184  0.10535  0.89230  Biso   1.000  N
  O73      1.0000 0.96180  0.03290  0.19700  Biso   1.000  O
  O74      1.0000 0.97840  0.02700  0.34950  Biso   1.000  O
  O75      1.0000 0.91623  0.16022  0.43390  Biso   1.000  O
  O76      1.0000 0.92823  0.12107  0.38530  Biso   1.000  O
  O77      1.0000 0.66645  0.09104  0.69200  Biso   1.000  O
  O78      1.0000 0.67692  0.13099  0.64210  Biso   1.000  O
  O79      1.0000 0.56740  0.01073  0.77870  Biso   1.000  O
  O80      1.0000 0.57310  0.02138  0.93230  Biso   1.000  O
  O81      1.0000 0.81740  0.22895  0.67100  Biso   1.000  O
  O82      1.0000 0.81040  0.23988  0.49930  Biso   1.000  O
  O83      1.0000 0.71720  0.22633  0.59990  Biso   1.000  O
  O84      1.0000 0.71020  0.21700  0.43810  Biso   1.000  O
  Fe15     1.0000 0.69632  0.61395  0.25108  Biso   1.000  Fe
  Fe16     1.0000 0.94539  0.63813  0.99603  Biso   1.000  Fe
  Ba8      1.0000 0.99480  0.49963  0.66897  Biso   1.000  Ba
  C337     1.0000 0.60480  0.54102  0.30610  Biso   1.000  C
  C338     1.0000 0.60840  0.54523  0.19920  Biso   1.000  C
  H281     1.0000 0.59480  0.53680  0.15210  Biso   1.000  H
  C339     1.0000 0.63100  0.56112  0.16410  Biso   1.000  C
  C340     1.0000 0.64730  0.57609  0.22860  Biso   1.000  C
  C341     1.0000 0.64300  0.57273  0.33880  Biso   1.000  C
  C342     1.0000 0.61920  0.55690  0.37140  Biso   1.000  C
  H282     1.0000 0.61190  0.55640  0.44080  Biso   1.000  H
  C343     1.0000 0.57950  0.52290  0.33820  Biso   1.000  C
  C344     1.0000 0.63390  0.56500  0.03990  Biso   1.000  C
  H283     1.0000 0.62060  0.55390  0.00420  Biso   1.000  H
  H284     1.0000 0.66280  0.56580  0.01970  Biso   1.000  H
  H285     1.0000 0.62010  0.57760  0.02290  Biso   1.000  H
  C345     1.0000 0.65340  0.58864  0.40910  Biso   1.000  C
  H286     1.0000 0.64560  0.58640  0.47730  Biso   1.000  H
  C346     1.0000 0.67380  0.62096  0.47570  Biso   1.000  C
  C347     1.0000 0.68060  0.61269  0.58260  Biso   1.000  C
  H287     1.0000 0.70590  0.60450  0.58460  Biso   1.000  H
  H288     1.0000 0.65720  0.60410  0.60260  Biso   1.000  H
  C348     1.0000 0.68450  0.63160  0.65960  Biso   1.000  C
  H289     1.0000 0.65830  0.63910  0.66020  Biso   1.000  H
  H290     1.0000 0.68960  0.62660  0.72890  Biso   1.000  H
  C349     1.0000 0.71800  0.64510  0.62930  Biso   1.000  C
  H291     1.0000 0.74430  0.63770  0.63010  Biso   1.000  H
  H292     1.0000 0.72010  0.65630  0.67830  Biso   1.000  H
  C350     1.0000 0.71010  0.65394  0.51850  Biso   1.000  C
  H293     1.0000 0.68370  0.66130  0.51660  Biso   1.000  H
  H294     1.0000 0.73230  0.66330  0.49960  Biso   1.000  H
  C351     1.0000 0.70900  0.63618  0.44490  Biso   1.000  C
  C352     1.0000 0.69660  0.66456  0.19920  Biso   1.000  C
  C353     1.0000 0.70220  0.68526  0.17100  Biso   1.000  C
  H295     1.0000 0.70920  0.69460  0.22230  Biso   1.000  H
  C354     1.0000 0.69800  0.69216  0.07290  Biso   1.000  C
  C355     1.0000 0.68270  0.67736  0.00200  Biso   1.000  C
  H296     1.0000 0.67760  0.68180  0.93500  Biso   1.000  H
  C356     1.0000 0.67460  0.65682  0.02280  Biso   1.000  C
  C357     1.0000 0.68248  0.65038  0.12060  Biso   1.000  C
  C358     1.0000 0.70180  0.65923  0.30310  Biso   1.000  C
  H297     1.0000 0.70670  0.66980  0.34980  Biso   1.000  H
  C359     1.0000 0.70390  0.71281  0.03980  Biso   1.000  C
  C360     1.0000 0.65870  0.64229  0.94380  Biso   1.000  C
  H298     1.0000 0.65630  0.62890  0.97350  Biso   1.000  H
  H299     1.0000 0.67770  0.64190  0.88650  Biso   1.000  H
  H300     1.0000 0.63170  0.64670  0.92020  Biso   1.000  H
  C361     1.0000 0.84700  0.70898  0.03980  Biso   1.000  C
  C362     1.0000 0.86620  0.69696  0.11140  Biso   1.000  C
  H301     1.0000 0.86440  0.70020  0.18120  Biso   1.000  H
  C363     1.0000 0.88950  0.67905  0.07860  Biso   1.000  C
  C364     1.0000 0.89400  0.67636  0.97280  Biso   1.000  C
  C365     1.0000 0.87410  0.68918  0.89720  Biso   1.000  C
  C366     1.0000 0.85360  0.70570  0.93680  Biso   1.000  C
  H302     1.0000 0.84340  0.71540  0.89070  Biso   1.000  H
  C367     1.0000 0.82400  0.72622  0.08120  Biso   1.000  C
  C368     1.0000 0.90700  0.66664  0.15590  Biso   1.000  C
  H303     1.0000 0.90360  0.67080  0.22400  Biso   1.000  H
  C369     1.0000 0.88330  0.68668  0.79040  Biso   1.000  C
  H304     1.0000 0.89950  0.67450  0.78070  Biso   1.000  H
  H305     1.0000 0.89890  0.69830  0.76620  Biso   1.000  H
  H306     1.0000 0.85760  0.68560  0.75220  Biso   1.000  H
  C370     1.0000 0.94670  0.63723  0.22200  Biso   1.000  C
  C371     1.0000 0.93600  0.64332  0.32940  Biso   1.000  C
  H307     1.0000 0.90610  0.64220  0.34000  Biso   1.000  H
  H308     1.0000 0.94420  0.65740  0.34100  Biso   1.000  H
  C372     1.0000 0.95890  0.62941  0.40540  Biso   1.000  C
  H309     1.0000 0.95190  0.63310  0.47580  Biso   1.000  H
  H310     1.0000 0.98890  0.63070  0.39660  Biso   1.000  H
  C373     1.0000 0.94390  0.60600  0.38160  Biso   1.000  C
  H311     1.0000 0.95780  0.59670  0.42890  Biso   1.000  H
  H312     1.0000 0.91400  0.60480  0.39260  Biso   1.000  H
  C374     1.0000 0.95410  0.60002  0.27290  Biso   1.000  C
  H313     1.0000 0.94400  0.58630  0.25970  Biso   1.000  H
  H314     1.0000 0.98420  0.60010  0.26330  Biso   1.000  H
  C375     1.0000 0.93390  0.61481  0.19700  Biso   1.000  C
  C376     1.0000 0.94710  0.58752  0.94460  Biso   1.000  C
  C377     1.0000 0.93632  0.60210  0.86500  Biso   1.000  C
  C378     1.0000 0.93210  0.59479  0.76550  Biso   1.000  C
  C379     1.0000 0.94220  0.57501  0.74240  Biso   1.000  C
  H315     1.0000 0.94010  0.57060  0.67430  Biso   1.000  H
  C380     1.0000 0.95540  0.56107  0.81780  Biso   1.000  C
  C381     1.0000 0.95680  0.56790  0.91870  Biso   1.000  C
  H316     1.0000 0.96470  0.55880  0.97050  Biso   1.000  H
  C382     1.0000 0.94600  0.59355  0.05300  Biso   1.000  C
  H317     1.0000 0.94990  0.58330  0.10170  Biso   1.000  H
  C383     1.0000 0.91680  0.60960  0.68230  Biso   1.000  C
  H318     1.0000 0.91110  0.62270  0.71290  Biso   1.000  H
  H319     1.0000 0.89160  0.60430  0.65160  Biso   1.000  H
  H320     1.0000 0.93790  0.61110  0.63020  Biso   1.000  H
  C384     1.0000 0.97270  0.53998  0.78600  Biso   1.000  C
  N29      1.0000 0.92731  0.64990  0.14030  Biso   1.000  N
  N30      1.0000 0.94014  0.61181  0.08730  Biso   1.000  N
  N31      1.0000 0.70058  0.64160  0.33770  Biso   1.000  N
  N32      1.0000 0.67184  0.60535  0.39230  Biso   1.000  N
  O85      1.0000 0.96180  0.53290  0.69700  Biso   1.000  O
  O86      1.0000 0.97840  0.52700  0.84950  Biso   1.000  O
  O87      1.0000 0.91623  0.66022  0.93390  Biso   1.000  O
  O88      1.0000 0.92823  0.62107  0.88530  Biso   1.000  O
  O89      1.0000 0.66645  0.59104  0.19200  Biso   1.000  O
  O90      1.0000 0.67692  0.63099  0.14210  Biso   1.000  O
  O91      1.0000 0.56740  0.51073  0.27870  Biso   1.000  O
  O92      1.0000 0.57310  0.52138  0.43230  Biso   1.000  O
  O93      1.0000 0.81740  0.72895  0.17100  Biso   1.000  O
  O94      1.0000 0.81040  0.73988  0.99930  Biso   1.000  O
  O95      1.0000 0.71720  0.72633  0.09990  Biso   1.000  O
  O96      1.0000 0.71020  0.71700  0.93810  Biso   1.000  O
  Fe17     1.0000 0.19632  0.88605  0.74892  Biso   1.000  Fe
  Fe18     1.0000 0.44539  0.86187  0.00397  Biso   1.000  Fe
  Ba9      1.0000 0.49480  0.00037  0.33103  Biso   1.000  Ba
  C385     1.0000 0.10480  0.95898  0.69390  Biso   1.000  C
  C386     1.0000 0.10840  0.95477  0.80080  Biso   1.000  C
  H321     1.0000 0.09480  0.96320  0.84790  Biso   1.000  H
  C387     1.0000 0.13100  0.93888  0.83590  Biso   1.000  C
  C388     1.0000 0.14730  0.92391  0.77140  Biso   1.000  C
  C389     1.0000 0.14300  0.92727  0.66120  Biso   1.000  C
  C390     1.0000 0.11920  0.94310  0.62860  Biso   1.000  C
  H322     1.0000 0.11190  0.94360  0.55920  Biso   1.000  H
  C391     1.0000 0.07950  0.97710  0.66180  Biso   1.000  C
  C392     1.0000 0.13390  0.93500  0.96010  Biso   1.000  C
  H323     1.0000 0.12060  0.94610  0.99580  Biso   1.000  H
  H324     1.0000 0.16280  0.93420  0.98030  Biso   1.000  H
  H325     1.0000 0.12010  0.92240  0.97710  Biso   1.000  H
  C393     1.0000 0.15340  0.91136  0.59090  Biso   1.000  C
  H326     1.0000 0.14560  0.91360  0.52270  Biso   1.000  H
  C394     1.0000 0.17380  0.87904  0.52430  Biso   1.000  C
  C395     1.0000 0.18060  0.88731  0.41740  Biso   1.000  C
  H327     1.0000 0.20590  0.89550  0.41540  Biso   1.000  H
  H328     1.0000 0.15720  0.89590  0.39740  Biso   1.000  H
  C396     1.0000 0.18450  0.86840  0.34040  Biso   1.000  C
  H329     1.0000 0.15830  0.86090  0.33980  Biso   1.000  H
  H330     1.0000 0.18960  0.87340  0.27110  Biso   1.000  H
  C397     1.0000 0.21800  0.85490  0.37070  Biso   1.000  C
  H331     1.0000 0.24430  0.86230  0.36990  Biso   1.000  H
  H332     1.0000 0.22010  0.84370  0.32170  Biso   1.000  H
  C398     1.0000 0.21010  0.84606  0.48150  Biso   1.000  C
  H333     1.0000 0.18370  0.83870  0.48340  Biso   1.000  H
  H334     1.0000 0.23230  0.83670  0.50040  Biso   1.000  H
  C399     1.0000 0.20900  0.86382  0.55510  Biso   1.000  C
  C400     1.0000 0.19660  0.83544  0.80080  Biso   1.000  C
  C401     1.0000 0.20220  0.81474  0.82900  Biso   1.000  C
  H335     1.0000 0.20920  0.80540  0.77770  Biso   1.000  H
  C402     1.0000 0.19800  0.80784  0.92710  Biso   1.000  C
  C403     1.0000 0.18270  0.82264  0.99800  Biso   1.000  C
  H336     1.0000 0.17760  0.81820  0.06500  Biso   1.000  H
  C404     1.0000 0.17460  0.84318  0.97720  Biso   1.000  C
  C405     1.0000 0.18248  0.84962  0.87940  Biso   1.000  C
  C406     1.0000 0.20180  0.84077  0.69690  Biso   1.000  C
  H337     1.0000 0.20670  0.83020  0.65020  Biso   1.000  H
  C407     1.0000 0.20390  0.78719  0.96020  Biso   1.000  C
  C408     1.0000 0.15870  0.85771  0.05620  Biso   1.000  C
  H338     1.0000 0.15630  0.87110  0.02650  Biso   1.000  H
  H339     1.0000 0.17770  0.85810  0.11350  Biso   1.000  H
  H340     1.0000 0.13170  0.85330  0.07980  Biso   1.000  H
  C409     1.0000 0.34700  0.79102  0.96020  Biso   1.000  C
  C410     1.0000 0.36620  0.80304  0.88860  Biso   1.000  C
  H341     1.0000 0.36440  0.79980  0.81880  Biso   1.000  H
  C411     1.0000 0.38950  0.82095  0.92140  Biso   1.000  C
  C412     1.0000 0.39400  0.82364  0.02720  Biso   1.000  C
  C413     1.0000 0.37410  0.81082  0.10280  Biso   1.000  C
  C414     1.0000 0.35360  0.79430  0.06320  Biso   1.000  C
  H342     1.0000 0.34340  0.78460  0.10930  Biso   1.000  H
  C415     1.0000 0.32400  0.77378  0.91880  Biso   1.000  C
  C416     1.0000 0.40700  0.83336  0.84410  Biso   1.000  C
  H343     1.0000 0.40360  0.82920  0.77600  Biso   1.000  H
  C417     1.0000 0.38330  0.81332  0.20960  Biso   1.000  C
  H344     1.0000 0.39950  0.82550  0.21930  Biso   1.000  H
  H345     1.0000 0.39890  0.80170  0.23380  Biso   1.000  H
  H346     1.0000 0.35760  0.81440  0.24780  Biso   1.000  H
  C418     1.0000 0.44670  0.86277  0.77800  Biso   1.000  C
  C419     1.0000 0.43600  0.85668  0.67060  Biso   1.000  C
  H347     1.0000 0.40610  0.85780  0.66000  Biso   1.000  H
  H348     1.0000 0.44420  0.84260  0.65900  Biso   1.000  H
  C420     1.0000 0.45890  0.87059  0.59460  Biso   1.000  C
  H349     1.0000 0.45190  0.86690  0.52420  Biso   1.000  H
  H350     1.0000 0.48890  0.86930  0.60340  Biso   1.000  H
  C421     1.0000 0.44390  0.89400  0.61840  Biso   1.000  C
  H351     1.0000 0.45780  0.90330  0.57110  Biso   1.000  H
  H352     1.0000 0.41400  0.89520  0.60740  Biso   1.000  H
  C422     1.0000 0.45410  0.89998  0.72710  Biso   1.000  C
  H353     1.0000 0.44400  0.91370  0.74030  Biso   1.000  H
  H354     1.0000 0.48420  0.89990  0.73670  Biso   1.000  H
  C423     1.0000 0.43390  0.88519  0.80300  Biso   1.000  C
  C424     1.0000 0.44710  0.91248  0.05540  Biso   1.000  C
  C425     1.0000 0.43632  0.89790  0.13500  Biso   1.000  C
  C426     1.0000 0.43210  0.90521  0.23450  Biso   1.000  C
  C427     1.0000 0.44220  0.92499  0.25760  Biso   1.000  C
  H355     1.0000 0.44010  0.92940  0.32570  Biso   1.000  H
  C428     1.0000 0.45540  0.93893  0.18220  Biso   1.000  C
  C429     1.0000 0.45680  0.93210  0.08130  Biso   1.000  C
  H356     1.0000 0.46470  0.94120  0.02950  Biso   1.000  H
  C430     1.0000 0.44600  0.90645  0.94700  Biso   1.000  C
  H357     1.0000 0.44990  0.91670  0.89830  Biso   1.000  H
  C431     1.0000 0.41680  0.89040  0.31770  Biso   1.000  C
  H358     1.0000 0.41110  0.87730  0.28710  Biso   1.000  H
  H359     1.0000 0.39160  0.89570  0.34840  Biso   1.000  H
  H360     1.0000 0.43790  0.88890  0.36980  Biso   1.000  H
  C432     1.0000 0.47270  0.96002  0.21400  Biso   1.000  C
  N33      1.0000 0.42731  0.85010  0.85970  Biso   1.000  N
  N34      1.0000 0.44014  0.88819  0.91270  Biso   1.000  N
  N35      1.0000 0.20058  0.85840  0.66230  Biso   1.000  N
  N36      1.0000 0.17184  0.89465  0.60770  Biso   1.000  N
  O97      1.0000 0.46180  0.96710  0.30300  Biso   1.000  O
  O98      1.0000 0.47840  0.97300  0.15050  Biso   1.000  O
  O99      1.0000 0.41623  0.83978  0.06610  Biso   1.000  O
  O100     1.0000 0.42823  0.87893  0.11470  Biso   1.000  O
  O101     1.0000 0.16645  0.90896  0.80800  Biso   1.000  O
  O102     1.0000 0.17692  0.86901  0.85790  Biso   1.000  O
  O103     1.0000 0.06740  0.98927  0.72130  Biso   1.000  O
  O104     1.0000 0.07310  0.97862  0.56770  Biso   1.000  O
  O105     1.0000 0.31740  0.77105  0.82900  Biso   1.000  O
  O106     1.0000 0.31040  0.76012  0.00070  Biso   1.000  O
  O107     1.0000 0.21720  0.77367  0.90010  Biso   1.000  O
  O108     1.0000 0.21020  0.78300  0.06190  Biso   1.000  O
  Fe19     1.0000 0.19632  0.38605  0.24892  Biso   1.000  Fe
  Fe20     1.0000 0.44539  0.36187  0.50397  Biso   1.000  Fe
  Ba10     1.0000 0.49480  0.50037  0.83103  Biso   1.000  Ba
  C433     1.0000 0.10480  0.45898  0.19390  Biso   1.000  C
  C434     1.0000 0.10840  0.45477  0.30080  Biso   1.000  C
  H361     1.0000 0.09480  0.46320  0.34790  Biso   1.000  H
  C435     1.0000 0.13100  0.43888  0.33590  Biso   1.000  C
  C436     1.0000 0.14730  0.42391  0.27140  Biso   1.000  C
  C437     1.0000 0.14300  0.42727  0.16120  Biso   1.000  C
  C438     1.0000 0.11920  0.44310  0.12860  Biso   1.000  C
  H362     1.0000 0.11190  0.44360  0.05920  Biso   1.000  H
  C439     1.0000 0.07950  0.47710  0.16180  Biso   1.000  C
  C440     1.0000 0.13390  0.43500  0.46010  Biso   1.000  C
  H363     1.0000 0.12060  0.44610  0.49580  Biso   1.000  H
  H364     1.0000 0.16280  0.43420  0.48030  Biso   1.000  H
  H365     1.0000 0.12010  0.42240  0.47710  Biso   1.000  H
  C441     1.0000 0.15340  0.41136  0.09090  Biso   1.000  C
  H366     1.0000 0.14560  0.41360  0.02270  Biso   1.000  H
  C442     1.0000 0.17380  0.37904  0.02430  Biso   1.000  C
  C443     1.0000 0.18060  0.38731  0.91740  Biso   1.000  C
  H367     1.0000 0.20590  0.39550  0.91540  Biso   1.000  H
  H368     1.0000 0.15720  0.39590  0.89740  Biso   1.000  H
  C444     1.0000 0.18450  0.36840  0.84040  Biso   1.000  C
  H369     1.0000 0.15830  0.36090  0.83980  Biso   1.000  H
  H370     1.0000 0.18960  0.37340  0.77110  Biso   1.000  H
  C445     1.0000 0.21800  0.35490  0.87070  Biso   1.000  C
  H371     1.0000 0.24430  0.36230  0.86990  Biso   1.000  H
  H372     1.0000 0.22010  0.34370  0.82170  Biso   1.000  H
  C446     1.0000 0.21010  0.34606  0.98150  Biso   1.000  C
  H373     1.0000 0.18370  0.33870  0.98340  Biso   1.000  H
  H374     1.0000 0.23230  0.33670  0.00040  Biso   1.000  H
  C447     1.0000 0.20900  0.36382  0.05510  Biso   1.000  C
  C448     1.0000 0.19660  0.33544  0.30080  Biso   1.000  C
  C449     1.0000 0.20220  0.31474  0.32900  Biso   1.000  C
  H375     1.0000 0.20920  0.30540  0.27770  Biso   1.000  H
  C450     1.0000 0.19800  0.30784  0.42710  Biso   1.000  C
  C451     1.0000 0.18270  0.32264  0.49800  Biso   1.000  C
  H376     1.0000 0.17760  0.31820  0.56500  Biso   1.000  H
  C452     1.0000 0.17460  0.34318  0.47720  Biso   1.000  C
  C453     1.0000 0.18248  0.34962  0.37940  Biso   1.000  C
  C454     1.0000 0.20180  0.34077  0.19690  Biso   1.000  C
  H377     1.0000 0.20670  0.33020  0.15020  Biso   1.000  H
  C455     1.0000 0.20390  0.28719  0.46020  Biso   1.000  C
  C456     1.0000 0.15870  0.35771  0.55620  Biso   1.000  C
  H378     1.0000 0.15630  0.37110  0.52650  Biso   1.000  H
  H379     1.0000 0.17770  0.35810  0.61350  Biso   1.000  H
  H380     1.0000 0.13170  0.35330  0.57980  Biso   1.000  H
  C457     1.0000 0.34700  0.29102  0.46020  Biso   1.000  C
  C458     1.0000 0.36620  0.30304  0.38860  Biso   1.000  C
  H381     1.0000 0.36440  0.29980  0.31880  Biso   1.000  H
  C459     1.0000 0.38950  0.32095  0.42140  Biso   1.000  C
  C460     1.0000 0.39400  0.32364  0.52720  Biso   1.000  C
  C461     1.0000 0.37410  0.31082  0.60280  Biso   1.000  C
  C462     1.0000 0.35360  0.29430  0.56320  Biso   1.000  C
  H382     1.0000 0.34340  0.28460  0.60930  Biso   1.000  H
  C463     1.0000 0.32400  0.27378  0.41880  Biso   1.000  C
  C464     1.0000 0.40700  0.33336  0.34410  Biso   1.000  C
  H383     1.0000 0.40360  0.32920  0.27600  Biso   1.000  H
  C465     1.0000 0.38330  0.31332  0.70960  Biso   1.000  C
  H384     1.0000 0.39950  0.32550  0.71930  Biso   1.000  H
  H385     1.0000 0.39890  0.30170  0.73380  Biso   1.000  H
  H386     1.0000 0.35760  0.31440  0.74780  Biso   1.000  H
  C466     1.0000 0.44670  0.36277  0.27800  Biso   1.000  C
  C467     1.0000 0.43600  0.35668  0.17060  Biso   1.000  C
  H387     1.0000 0.40610  0.35780  0.16000  Biso   1.000  H
  H388     1.0000 0.44420  0.34260  0.15900  Biso   1.000  H
  C468     1.0000 0.45890  0.37059  0.09460  Biso   1.000  C
  H389     1.0000 0.45190  0.36690  0.02420  Biso   1.000  H
  H390     1.0000 0.48890  0.36930  0.10340  Biso   1.000  H
  C469     1.0000 0.44390  0.39400  0.11840  Biso   1.000  C
  H391     1.0000 0.45780  0.40330  0.07110  Biso   1.000  H
  H392     1.0000 0.41400  0.39520  0.10740  Biso   1.000  H
  C470     1.0000 0.45410  0.39998  0.22710  Biso   1.000  C
  H393     1.0000 0.44400  0.41370  0.24030  Biso   1.000  H
  H394     1.0000 0.48420  0.39990  0.23670  Biso   1.000  H
  C471     1.0000 0.43390  0.38519  0.30300  Biso   1.000  C
  C472     1.0000 0.44710  0.41248  0.55540  Biso   1.000  C
  C473     1.0000 0.43632  0.39790  0.63500  Biso   1.000  C
  C474     1.0000 0.43210  0.40521  0.73450  Biso   1.000  C
  C475     1.0000 0.44220  0.42499  0.75760  Biso   1.000  C
  H395     1.0000 0.44010  0.42940  0.82570  Biso   1.000  H
  C476     1.0000 0.45540  0.43893  0.68220  Biso   1.000  C
  C477     1.0000 0.45680  0.43210  0.58130  Biso   1.000  C
  H396     1.0000 0.46470  0.44120  0.52950  Biso   1.000  H
  C478     1.0000 0.44600  0.40645  0.44700  Biso   1.000  C
  H397     1.0000 0.44990  0.41670  0.39830  Biso   1.000  H
  C479     1.0000 0.41680  0.39040  0.81770  Biso   1.000  C
  H398     1.0000 0.41110  0.37730  0.78710  Biso   1.000  H
  H399     1.0000 0.39160  0.39570  0.84840  Biso   1.000  H
  H400     1.0000 0.43790  0.38890  0.86980  Biso   1.000  H
  C480     1.0000 0.47270  0.46002  0.71400  Biso   1.000  C
  N37      1.0000 0.42731  0.35010  0.35970  Biso   1.000  N
  N38      1.0000 0.44014  0.38819  0.41270  Biso   1.000  N
  N39      1.0000 0.20058  0.35840  0.16230  Biso   1.000  N
  N40      1.0000 0.17184  0.39465  0.10770  Biso   1.000  N
  O109     1.0000 0.46180  0.46710  0.80300  Biso   1.000  O
  O110     1.0000 0.47840  0.47300  0.65050  Biso   1.000  O
  O111     1.0000 0.41623  0.33978  0.56610  Biso   1.000  O
  O112     1.0000 0.42823  0.37893  0.61470  Biso   1.000  O
  O113     1.0000 0.16645  0.40896  0.30800  Biso   1.000  O
  O114     1.0000 0.17692  0.36901  0.35790  Biso   1.000  O
  O115     1.0000 0.06740  0.48927  0.22130  Biso   1.000  O
  O116     1.0000 0.07310  0.47862  0.06770  Biso   1.000  O
  O117     1.0000 0.31740  0.27105  0.32900  Biso   1.000  O
  O118     1.0000 0.31040  0.26012  0.50070  Biso   1.000  O
  O119     1.0000 0.21720  0.27367  0.40010  Biso   1.000  O
  O120     1.0000 0.21020  0.28300  0.56190  Biso   1.000  O
  Fe21     1.0000 0.69632  0.88605  0.24892  Biso   1.000  Fe
  Fe22     1.0000 0.94539  0.86187  0.50397  Biso   1.000  Fe
  Ba11     1.0000 0.99480  0.00037  0.83103  Biso   1.000  Ba
  C481     1.0000 0.60480  0.95898  0.19390  Biso   1.000  C
  C482     1.0000 0.60840  0.95477  0.30080  Biso   1.000  C
  H401     1.0000 0.59480  0.96320  0.34790  Biso   1.000  H
  C483     1.0000 0.63100  0.93888  0.33590  Biso   1.000  C
  C484     1.0000 0.64730  0.92391  0.27140  Biso   1.000  C
  C485     1.0000 0.64300  0.92727  0.16120  Biso   1.000  C
  C486     1.0000 0.61920  0.94310  0.12860  Biso   1.000  C
  H402     1.0000 0.61190  0.94360  0.05920  Biso   1.000  H
  C487     1.0000 0.57950  0.97710  0.16180  Biso   1.000  C
  C488     1.0000 0.63390  0.93500  0.46010  Biso   1.000  C
  H403     1.0000 0.62060  0.94610  0.49580  Biso   1.000  H
  H404     1.0000 0.66280  0.93420  0.48030  Biso   1.000  H
  H405     1.0000 0.62010  0.92240  0.47710  Biso   1.000  H
  C489     1.0000 0.65340  0.91136  0.09090  Biso   1.000  C
  H406     1.0000 0.64560  0.91360  0.02270  Biso   1.000  H
  C490     1.0000 0.67380  0.87904  0.02430  Biso   1.000  C
  C491     1.0000 0.68060  0.88731  0.91740  Biso   1.000  C
  H407     1.0000 0.70590  0.89550  0.91540  Biso   1.000  H
  H408     1.0000 0.65720  0.89590  0.89740  Biso   1.000  H
  C492     1.0000 0.68450  0.86840  0.84040  Biso   1.000  C
  H409     1.0000 0.65830  0.86090  0.83980  Biso   1.000  H
  H410     1.0000 0.68960  0.87340  0.77110  Biso   1.000  H
  C493     1.0000 0.71800  0.85490  0.87070  Biso   1.000  C
  H411     1.0000 0.74430  0.86230  0.86990  Biso   1.000  H
  H412     1.0000 0.72010  0.84370  0.82170  Biso   1.000  H
  C494     1.0000 0.71010  0.84606  0.98150  Biso   1.000  C
  H413     1.0000 0.68370  0.83870  0.98340  Biso   1.000  H
  H414     1.0000 0.73230  0.83670  0.00040  Biso   1.000  H
  C495     1.0000 0.70900  0.86382  0.05510  Biso   1.000  C
  C496     1.0000 0.69660  0.83544  0.30080  Biso   1.000  C
  C497     1.0000 0.70220  0.81474  0.32900  Biso   1.000  C
  H415     1.0000 0.70920  0.80540  0.27770  Biso   1.000  H
  C498     1.0000 0.69800  0.80784  0.42710  Biso   1.000  C
  C499     1.0000 0.68270  0.82264  0.49800  Biso   1.000  C
  H416     1.0000 0.67760  0.81820  0.56500  Biso   1.000  H
  C500     1.0000 0.67460  0.84318  0.47720  Biso   1.000  C
  C501     1.0000 0.68248  0.84962  0.37940  Biso   1.000  C
  C502     1.0000 0.70180  0.84077  0.19690  Biso   1.000  C
  H417     1.0000 0.70670  0.83020  0.15020  Biso   1.000  H
  C503     1.0000 0.70390  0.78719  0.46020  Biso   1.000  C
  C504     1.0000 0.65870  0.85771  0.55620  Biso   1.000  C
  H418     1.0000 0.65630  0.87110  0.52650  Biso   1.000  H
  H419     1.0000 0.67770  0.85810  0.61350  Biso   1.000  H
  H420     1.0000 0.63170  0.85330  0.57980  Biso   1.000  H
  C505     1.0000 0.84700  0.79102  0.46020  Biso   1.000  C
  C506     1.0000 0.86620  0.80304  0.38860  Biso   1.000  C
  H421     1.0000 0.86440  0.79980  0.31880  Biso   1.000  H
  C507     1.0000 0.88950  0.82095  0.42140  Biso   1.000  C
  C508     1.0000 0.89400  0.82364  0.52720  Biso   1.000  C
  C509     1.0000 0.87410  0.81082  0.60280  Biso   1.000  C
  C510     1.0000 0.85360  0.79430  0.56320  Biso   1.000  C
  H422     1.0000 0.84340  0.78460  0.60930  Biso   1.000  H
  C511     1.0000 0.82400  0.77378  0.41880  Biso   1.000  C
  C512     1.0000 0.90700  0.83336  0.34410  Biso   1.000  C
  H423     1.0000 0.90360  0.82920  0.27600  Biso   1.000  H
  C513     1.0000 0.88330  0.81332  0.70960  Biso   1.000  C
  H424     1.0000 0.89950  0.82550  0.71930  Biso   1.000  H
  H425     1.0000 0.89890  0.80170  0.73380  Biso   1.000  H
  H426     1.0000 0.85760  0.81440  0.74780  Biso   1.000  H
  C514     1.0000 0.94670  0.86277  0.27800  Biso   1.000  C
  C515     1.0000 0.93600  0.85668  0.17060  Biso   1.000  C
  H427     1.0000 0.90610  0.85780  0.16000  Biso   1.000  H
  H428     1.0000 0.94420  0.84260  0.15900  Biso   1.000  H
  C516     1.0000 0.95890  0.87059  0.09460  Biso   1.000  C
  H429     1.0000 0.95190  0.86690  0.02420  Biso   1.000  H
  H430     1.0000 0.98890  0.86930  0.10340  Biso   1.000  H
  C517     1.0000 0.94390  0.89400  0.11840  Biso   1.000  C
  H431     1.0000 0.95780  0.90330  0.07110  Biso   1.000  H
  H432     1.0000 0.91400  0.89520  0.10740  Biso   1.000  H
  C518     1.0000 0.95410  0.89998  0.22710  Biso   1.000  C
  H433     1.0000 0.94400  0.91370  0.24030  Biso   1.000  H
  H434     1.0000 0.98420  0.89990  0.23670  Biso   1.000  H
  C519     1.0000 0.93390  0.88519  0.30300  Biso   1.000  C
  C520     1.0000 0.94710  0.91248  0.55540  Biso   1.000  C
  C521     1.0000 0.93632  0.89790  0.63500  Biso   1.000  C
  C522     1.0000 0.93210  0.90521  0.73450  Biso   1.000  C
  C523     1.0000 0.94220  0.92499  0.75760  Biso   1.000  C
  H435     1.0000 0.94010  0.92940  0.82570  Biso   1.000  H
  C524     1.0000 0.95540  0.93893  0.68220  Biso   1.000  C
  C525     1.0000 0.95680  0.93210  0.58130  Biso   1.000  C
  H436     1.0000 0.96470  0.94120  0.52950  Biso   1.000  H
  C526     1.0000 0.94600  0.90645  0.44700  Biso   1.000  C
  H437     1.0000 0.94990  0.91670  0.39830  Biso   1.000  H
  C527     1.0000 0.91680  0.89040  0.81770  Biso   1.000  C
  H438     1.0000 0.91110  0.87730  0.78710  Biso   1.000  H
  H439     1.0000 0.89160  0.89570  0.84840  Biso   1.000  H
  H440     1.0000 0.93790  0.88890  0.86980  Biso   1.000  H
  C528     1.0000 0.97270  0.96002  0.71400  Biso   1.000  C
  N41      1.0000 0.92731  0.85010  0.35970  Biso   1.000  N
  N42      1.0000 0.94014  0.88819  0.41270  Biso   1.000  N
  N43      1.0000 0.70058  0.85840  0.16230  Biso   1.000  N
  N44      1.0000 0.67184  0.89465  0.10770  Biso   1.000  N
  O121     1.0000 0.96180  0.96710  0.80300  Biso   1.000  O
  O122     1.0000 0.97840  0.97300  0.65050  Biso   1.000  O
  O123     1.0000 0.91623  0.83978  0.56610  Biso   1.000  O
  O124     1.0000 0.92823  0.87893  0.61470  Biso   1.000  O
  O125     1.0000 0.66645  0.90896  0.30800  Biso   1.000  O
  O126     1.0000 0.67692  0.86901  0.35790  Biso   1.000  O
  O127     1.0000 0.56740  0.98927  0.22130  Biso   1.000  O
  O128     1.0000 0.57310  0.97862  0.06770  Biso   1.000  O
  O129     1.0000 0.81740  0.77105  0.32900  Biso   1.000  O
  O130     1.0000 0.81040  0.76012  0.50070  Biso   1.000  O
  O131     1.0000 0.71720  0.77367  0.40010  Biso   1.000  O
  O132     1.0000 0.71020  0.78300  0.56190  Biso   1.000  O
  Fe23     1.0000 0.69632  0.38605  0.74892  Biso   1.000  Fe
  Fe24     1.0000 0.94539  0.36187  0.00397  Biso   1.000  Fe
  Ba12     1.0000 0.99480  0.50037  0.33103  Biso   1.000  Ba
  C529     1.0000 0.60480  0.45898  0.69390  Biso   1.000  C
  C530     1.0000 0.60840  0.45477  0.80080  Biso   1.000  C
  H441     1.0000 0.59480  0.46320  0.84790  Biso   1.000  H
  C531     1.0000 0.63100  0.43888  0.83590  Biso   1.000  C
  C532     1.0000 0.64730  0.42391  0.77140  Biso   1.000  C
  C533     1.0000 0.64300  0.42727  0.66120  Biso   1.000  C
  C534     1.0000 0.61920  0.44310  0.62860  Biso   1.000  C
  H442     1.0000 0.61190  0.44360  0.55920  Biso   1.000  H
  C535     1.0000 0.57950  0.47710  0.66180  Biso   1.000  C
  C536     1.0000 0.63390  0.43500  0.96010  Biso   1.000  C
  H443     1.0000 0.62060  0.44610  0.99580  Biso   1.000  H
  H444     1.0000 0.66280  0.43420  0.98030  Biso   1.000  H
  H445     1.0000 0.62010  0.42240  0.97710  Biso   1.000  H
  C537     1.0000 0.65340  0.41136  0.59090  Biso   1.000  C
  H446     1.0000 0.64560  0.41360  0.52270  Biso   1.000  H
  C538     1.0000 0.67380  0.37904  0.52430  Biso   1.000  C
  C539     1.0000 0.68060  0.38731  0.41740  Biso   1.000  C
  H447     1.0000 0.70590  0.39550  0.41540  Biso   1.000  H
  H448     1.0000 0.65720  0.39590  0.39740  Biso   1.000  H
  C540     1.0000 0.68450  0.36840  0.34040  Biso   1.000  C
  H449     1.0000 0.65830  0.36090  0.33980  Biso   1.000  H
  H450     1.0000 0.68960  0.37340  0.27110  Biso   1.000  H
  C541     1.0000 0.71800  0.35490  0.37070  Biso   1.000  C
  H451     1.0000 0.74430  0.36230  0.36990  Biso   1.000  H
  H452     1.0000 0.72010  0.34370  0.32170  Biso   1.000  H
  C542     1.0000 0.71010  0.34606  0.48150  Biso   1.000  C
  H453     1.0000 0.68370  0.33870  0.48340  Biso   1.000  H
  H454     1.0000 0.73230  0.33670  0.50040  Biso   1.000  H
  C543     1.0000 0.70900  0.36382  0.55510  Biso   1.000  C
  C544     1.0000 0.69660  0.33544  0.80080  Biso   1.000  C
  C545     1.0000 0.70220  0.31474  0.82900  Biso   1.000  C
  H455     1.0000 0.70920  0.30540  0.77770  Biso   1.000  H
  C546     1.0000 0.69800  0.30784  0.92710  Biso   1.000  C
  C547     1.0000 0.68270  0.32264  0.99800  Biso   1.000  C
  H456     1.0000 0.67760  0.31820  0.06500  Biso   1.000  H
  C548     1.0000 0.67460  0.34318  0.97720  Biso   1.000  C
  C549     1.0000 0.68248  0.34962  0.87940  Biso   1.000  C
  C550     1.0000 0.70180  0.34077  0.69690  Biso   1.000  C
  H457     1.0000 0.70670  0.33020  0.65020  Biso   1.000  H
  C551     1.0000 0.70390  0.28719  0.96020  Biso   1.000  C
  C552     1.0000 0.65870  0.35771  0.05620  Biso   1.000  C
  H458     1.0000 0.65630  0.37110  0.02650  Biso   1.000  H
  H459     1.0000 0.67770  0.35810  0.11350  Biso   1.000  H
  H460     1.0000 0.63170  0.35330  0.07980  Biso   1.000  H
  C553     1.0000 0.84700  0.29102  0.96020  Biso   1.000  C
  C554     1.0000 0.86620  0.30304  0.88860  Biso   1.000  C
  H461     1.0000 0.86440  0.29980  0.81880  Biso   1.000  H
  C555     1.0000 0.88950  0.32095  0.92140  Biso   1.000  C
  C556     1.0000 0.89400  0.32364  0.02720  Biso   1.000  C
  C557     1.0000 0.87410  0.31082  0.10280  Biso   1.000  C
  C558     1.0000 0.85360  0.29430  0.06320  Biso   1.000  C
  H462     1.0000 0.84340  0.28460  0.10930  Biso   1.000  H
  C559     1.0000 0.82400  0.27378  0.91880  Biso   1.000  C
  C560     1.0000 0.90700  0.33336  0.84410  Biso   1.000  C
  H463     1.0000 0.90360  0.32920  0.77600  Biso   1.000  H
  C561     1.0000 0.88330  0.31332  0.20960  Biso   1.000  C
  H464     1.0000 0.89950  0.32550  0.21930  Biso   1.000  H
  H465     1.0000 0.89890  0.30170  0.23380  Biso   1.000  H
  H466     1.0000 0.85760  0.31440  0.24780  Biso   1.000  H
  C562     1.0000 0.94670  0.36277  0.77800  Biso   1.000  C
  C563     1.0000 0.93600  0.35668  0.67060  Biso   1.000  C
  H467     1.0000 0.90610  0.35780  0.66000  Biso   1.000  H
  H468     1.0000 0.94420  0.34260  0.65900  Biso   1.000  H
  C564     1.0000 0.95890  0.37059  0.59460  Biso   1.000  C
  H469     1.0000 0.95190  0.36690  0.52420  Biso   1.000  H
  H470     1.0000 0.98890  0.36930  0.60340  Biso   1.000  H
  C565     1.0000 0.94390  0.39400  0.61840  Biso   1.000  C
  H471     1.0000 0.95780  0.40330  0.57110  Biso   1.000  H
  H472     1.0000 0.91400  0.39520  0.60740  Biso   1.000  H
  C566     1.0000 0.95410  0.39998  0.72710  Biso   1.000  C
  H473     1.0000 0.94400  0.41370  0.74030  Biso   1.000  H
  H474     1.0000 0.98420  0.39990  0.73670  Biso   1.000  H
  C567     1.0000 0.93390  0.38519  0.80300  Biso   1.000  C
  C568     1.0000 0.94710  0.41248  0.05540  Biso   1.000  C
  C569     1.0000 0.93632  0.39790  0.13500  Biso   1.000  C
  C570     1.0000 0.93210  0.40521  0.23450  Biso   1.000  C
  C571     1.0000 0.94220  0.42499  0.25760  Biso   1.000  C
  H475     1.0000 0.94010  0.42940  0.32570  Biso   1.000  H
  C572     1.0000 0.95540  0.43893  0.18220  Biso   1.000  C
  C573     1.0000 0.95680  0.43210  0.08130  Biso   1.000  C
  H476     1.0000 0.96470  0.44120  0.02950  Biso   1.000  H
  C574     1.0000 0.94600  0.40645  0.94700  Biso   1.000  C
  H477     1.0000 0.94990  0.41670  0.89830  Biso   1.000  H
  C575     1.0000 0.91680  0.39040  0.31770  Biso   1.000  C
  H478     1.0000 0.91110  0.37730  0.28710  Biso   1.000  H
  H479     1.0000 0.89160  0.39570  0.34840  Biso   1.000  H
  H480     1.0000 0.93790  0.38890  0.36980  Biso   1.000  H
  C576     1.0000 0.97270  0.46002  0.21400  Biso   1.000  C
  N45      1.0000 0.92731  0.35010  0.85970  Biso   1.000  N
  N46      1.0000 0.94014  0.38819  0.91270  Biso   1.000  N
  N47      1.0000 0.70058  0.35840  0.66230  Biso   1.000  N
  N48      1.0000 0.67184  0.39465  0.60770  Biso   1.000  N
  O133     1.0000 0.96180  0.46710  0.30300  Biso   1.000  O
  O134     1.0000 0.97840  0.47300  0.15050  Biso   1.000  O
  O135     1.0000 0.91623  0.33978  0.06610  Biso   1.000  O
  O136     1.0000 0.92823  0.37893  0.11470  Biso   1.000  O
  O137     1.0000 0.66645  0.40896  0.80800  Biso   1.000  O
  O138     1.0000 0.67692  0.36901  0.85790  Biso   1.000  O
  O139     1.0000 0.56740  0.48927  0.72130  Biso   1.000  O
  O140     1.0000 0.57310  0.47862  0.56770  Biso   1.000  O
  O141     1.0000 0.81740  0.27105  0.82900  Biso   1.000  O
  O142     1.0000 0.81040  0.26012  0.00070  Biso   1.000  O
  O143     1.0000 0.71720  0.27367  0.90010  Biso   1.000  O
  O144     1.0000 0.71020  0.28300  0.06190  Biso   1.000  O
  Fe25     1.0000 0.80368  0.11395  0.74892  Biso   1.000  Fe
  Fe26     1.0000 0.55461  0.13813  0.00397  Biso   1.000  Fe
  Ba13     1.0000 0.50520  0.99963  0.33103  Biso   1.000  Ba
  C577     1.0000 0.89520  0.04102  0.69390  Biso   1.000  C
  C578     1.0000 0.89160  0.04523  0.80080  Biso   1.000  C
  H481     1.0000 0.90520  0.03680  0.84790  Biso   1.000  H
  C579     1.0000 0.86900  0.06112  0.83590  Biso   1.000  C
  C580     1.0000 0.85270  0.07609  0.77140  Biso   1.000  C
  C581     1.0000 0.85700  0.07273  0.66120  Biso   1.000  C
  C582     1.0000 0.88080  0.05690  0.62860  Biso   1.000  C
  H482     1.0000 0.88810  0.05640  0.55920  Biso   1.000  H
  C583     1.0000 0.92050  0.02290  0.66180  Biso   1.000  C
  C584     1.0000 0.86610  0.06500  0.96010  Biso   1.000  C
  H483     1.0000 0.87940  0.05390  0.99580  Biso   1.000  H
  H484     1.0000 0.83720  0.06580  0.98030  Biso   1.000  H
  H485     1.0000 0.87990  0.07760  0.97710  Biso   1.000  H
  C585     1.0000 0.84660  0.08864  0.59090  Biso   1.000  C
  H486     1.0000 0.85440  0.08640  0.52270  Biso   1.000  H
  C586     1.0000 0.82620  0.12096  0.52430  Biso   1.000  C
  C587     1.0000 0.81940  0.11269  0.41740  Biso   1.000  C
  H487     1.0000 0.79410  0.10450  0.41540  Biso   1.000  H
  H488     1.0000 0.84280  0.10410  0.39740  Biso   1.000  H
  C588     1.0000 0.81550  0.13160  0.34040  Biso   1.000  C
  H489     1.0000 0.84170  0.13910  0.33980  Biso   1.000  H
  H490     1.0000 0.81040  0.12660  0.27110  Biso   1.000  H
  C589     1.0000 0.78200  0.14510  0.37070  Biso   1.000  C
  H491     1.0000 0.75570  0.13770  0.36990  Biso   1.000  H
  H492     1.0000 0.77990  0.15630  0.32170  Biso   1.000  H
  C590     1.0000 0.78990  0.15394  0.48150  Biso   1.000  C
  H493     1.0000 0.81630  0.16130  0.48340  Biso   1.000  H
  H494     1.0000 0.76770  0.16330  0.50040  Biso   1.000  H
  C591     1.0000 0.79100  0.13618  0.55510  Biso   1.000  C
  C592     1.0000 0.80340  0.16456  0.80080  Biso   1.000  C
  C593     1.0000 0.79780  0.18526  0.82900  Biso   1.000  C
  H495     1.0000 0.79080  0.19460  0.77770  Biso   1.000  H
  C594     1.0000 0.80200  0.19216  0.92710  Biso   1.000  C
  C595     1.0000 0.81730  0.17736  0.99800  Biso   1.000  C
  H496     1.0000 0.82240  0.18180  0.06500  Biso   1.000  H
  C596     1.0000 0.82540  0.15682  0.97720  Biso   1.000  C
  C597     1.0000 0.81752  0.15038  0.87940  Biso   1.000  C
  C598     1.0000 0.79820  0.15923  0.69690  Biso   1.000  C
  H497     1.0000 0.79330  0.16980  0.65020  Biso   1.000  H
  C599     1.0000 0.79610  0.21281  0.96020  Biso   1.000  C
  C600     1.0000 0.84130  0.14229  0.05620  Biso   1.000  C
  H498     1.0000 0.84370  0.12890  0.02650  Biso   1.000  H
  H499     1.0000 0.82230  0.14190  0.11350  Biso   1.000  H
  H500     1.0000 0.86830  0.14670  0.07980  Biso   1.000  H
  C601     1.0000 0.65300  0.20898  0.96020  Biso   1.000  C
  C602     1.0000 0.63380  0.19696  0.88860  Biso   1.000  C
  H501     1.0000 0.63560  0.20020  0.81880  Biso   1.000  H
  C603     1.0000 0.61050  0.17905  0.92140  Biso   1.000  C
  C604     1.0000 0.60600  0.17636  0.02720  Biso   1.000  C
  C605     1.0000 0.62590  0.18918  0.10280  Biso   1.000  C
  C606     1.0000 0.64640  0.20570  0.06320  Biso   1.000  C
  H502     1.0000 0.65660  0.21540  0.10930  Biso   1.000  H
  C607     1.0000 0.67600  0.22622  0.91880  Biso   1.000  C
  C608     1.0000 0.59300  0.16664  0.84410  Biso   1.000  C
  H503     1.0000 0.59640  0.17080  0.77600  Biso   1.000  H
  C609     1.0000 0.61670  0.18668  0.20960  Biso   1.000  C
  H504     1.0000 0.60050  0.17450  0.21930  Biso   1.000  H
  H505     1.0000 0.60110  0.19830  0.23380  Biso   1.000  H
  H506     1.0000 0.64240  0.18560  0.24780  Biso   1.000  H
  C610     1.0000 0.55330  0.13723  0.77800  Biso   1.000  C
  C611     1.0000 0.56400  0.14332  0.67060  Biso   1.000  C
  H507     1.0000 0.59390  0.14220  0.66000  Biso   1.000  H
  H508     1.0000 0.55580  0.15740  0.65900  Biso   1.000  H
  C612     1.0000 0.54110  0.12941  0.59460  Biso   1.000  C
  H509     1.0000 0.54810  0.13310  0.52420  Biso   1.000  H
  H510     1.0000 0.51110  0.13070  0.60340  Biso   1.000  H
  C613     1.0000 0.55610  0.10600  0.61840  Biso   1.000  C
  H511     1.0000 0.54220  0.09670  0.57110  Biso   1.000  H
  H512     1.0000 0.58600  0.10480  0.60740  Biso   1.000  H
  C614     1.0000 0.54590  0.10002  0.72710  Biso   1.000  C
  H513     1.0000 0.55600  0.08630  0.74030  Biso   1.000  H
  H514     1.0000 0.51580  0.10010  0.73670  Biso   1.000  H
  C615     1.0000 0.56610  0.11481  0.80300  Biso   1.000  C
  C616     1.0000 0.55290  0.08752  0.05540  Biso   1.000  C
  C617     1.0000 0.56368  0.10210  0.13500  Biso   1.000  C
  C618     1.0000 0.56790  0.09479  0.23450  Biso   1.000  C
  C619     1.0000 0.55780  0.07501  0.25760  Biso   1.000  C
  H515     1.0000 0.55990  0.07060  0.32570  Biso   1.000  H
  C620     1.0000 0.54460  0.06107  0.18220  Biso   1.000  C
  C621     1.0000 0.54320  0.06790  0.08130  Biso   1.000  C
  H516     1.0000 0.53530  0.05880  0.02950  Biso   1.000  H
  C622     1.0000 0.55400  0.09355  0.94700  Biso   1.000  C
  H517     1.0000 0.55010  0.08330  0.89830  Biso   1.000  H
  C623     1.0000 0.58320  0.10960  0.31770  Biso   1.000  C
  H518     1.0000 0.58890  0.12270  0.28710  Biso   1.000  H
  H519     1.0000 0.60840  0.10430  0.34840  Biso   1.000  H
  H520     1.0000 0.56210  0.11110  0.36980  Biso   1.000  H
  C624     1.0000 0.52730  0.03998  0.21400  Biso   1.000  C
  N49      1.0000 0.57269  0.14990  0.85970  Biso   1.000  N
  N50      1.0000 0.55986  0.11181  0.91270  Biso   1.000  N
  N51      1.0000 0.79942  0.14160  0.66230  Biso   1.000  N
  N52      1.0000 0.82816  0.10535  0.60770  Biso   1.000  N
  O145     1.0000 0.53820  0.03290  0.30300  Biso   1.000  O
  O146     1.0000 0.52160  0.02700  0.15050  Biso   1.000  O
  O147     1.0000 0.58377  0.16022  0.06610  Biso   1.000  O
  O148     1.0000 0.57177  0.12107  0.11470  Biso   1.000  O
  O149     1.0000 0.83355  0.09104  0.80800  Biso   1.000  O
  O150     1.0000 0.82308  0.13099  0.85790  Biso   1.000  O
  O151     1.0000 0.93260  0.01073  0.72130  Biso   1.000  O
  O152     1.0000 0.92690  0.02138  0.56770  Biso   1.000  O
  O153     1.0000 0.68260  0.22895  0.82900  Biso   1.000  O
  O154     1.0000 0.68960  0.23988  0.00070  Biso   1.000  O
  O155     1.0000 0.78280  0.22633  0.90010  Biso   1.000  O
  O156     1.0000 0.78980  0.21700  0.06190  Biso   1.000  O
  Fe27     1.0000 0.80368  0.61395  0.24892  Biso   1.000  Fe
  Fe28     1.0000 0.55461  0.63813  0.50397  Biso   1.000  Fe
  Ba14     1.0000 0.50520  0.49963  0.83103  Biso   1.000  Ba
  C625     1.0000 0.89520  0.54102  0.19390  Biso   1.000  C
  C626     1.0000 0.89160  0.54523  0.30080  Biso   1.000  C
  H521     1.0000 0.90520  0.53680  0.34790  Biso   1.000  H
  C627     1.0000 0.86900  0.56112  0.33590  Biso   1.000  C
  C628     1.0000 0.85270  0.57609  0.27140  Biso   1.000  C
  C629     1.0000 0.85700  0.57273  0.16120  Biso   1.000  C
  C630     1.0000 0.88080  0.55690  0.12860  Biso   1.000  C
  H522     1.0000 0.88810  0.55640  0.05920  Biso   1.000  H
  C631     1.0000 0.92050  0.52290  0.16180  Biso   1.000  C
  C632     1.0000 0.86610  0.56500  0.46010  Biso   1.000  C
  H523     1.0000 0.87940  0.55390  0.49580  Biso   1.000  H
  H524     1.0000 0.83720  0.56580  0.48030  Biso   1.000  H
  H525     1.0000 0.87990  0.57760  0.47710  Biso   1.000  H
  C633     1.0000 0.84660  0.58864  0.09090  Biso   1.000  C
  H526     1.0000 0.85440  0.58640  0.02270  Biso   1.000  H
  C634     1.0000 0.82620  0.62096  0.02430  Biso   1.000  C
  C635     1.0000 0.81940  0.61269  0.91740  Biso   1.000  C
  H527     1.0000 0.79410  0.60450  0.91540  Biso   1.000  H
  H528     1.0000 0.84280  0.60410  0.89740  Biso   1.000  H
  C636     1.0000 0.81550  0.63160  0.84040  Biso   1.000  C
  H529     1.0000 0.84170  0.63910  0.83980  Biso   1.000  H
  H530     1.0000 0.81040  0.62660  0.77110  Biso   1.000  H
  C637     1.0000 0.78200  0.64510  0.87070  Biso   1.000  C
  H531     1.0000 0.75570  0.63770  0.86990  Biso   1.000  H
  H532     1.0000 0.77990  0.65630  0.82170  Biso   1.000  H
  C638     1.0000 0.78990  0.65394  0.98150  Biso   1.000  C
  H533     1.0000 0.81630  0.66130  0.98340  Biso   1.000  H
  H534     1.0000 0.76770  0.66330  0.00040  Biso   1.000  H
  C639     1.0000 0.79100  0.63618  0.05510  Biso   1.000  C
  C640     1.0000 0.80340  0.66456  0.30080  Biso   1.000  C
  C641     1.0000 0.79780  0.68526  0.32900  Biso   1.000  C
  H535     1.0000 0.79080  0.69460  0.27770  Biso   1.000  H
  C642     1.0000 0.80200  0.69216  0.42710  Biso   1.000  C
  C643     1.0000 0.81730  0.67736  0.49800  Biso   1.000  C
  H536     1.0000 0.82240  0.68180  0.56500  Biso   1.000  H
  C644     1.0000 0.82540  0.65682  0.47720  Biso   1.000  C
  C645     1.0000 0.81752  0.65038  0.37940  Biso   1.000  C
  C646     1.0000 0.79820  0.65923  0.19690  Biso   1.000  C
  H537     1.0000 0.79330  0.66980  0.15020  Biso   1.000  H
  C647     1.0000 0.79610  0.71281  0.46020  Biso   1.000  C
  C648     1.0000 0.84130  0.64229  0.55620  Biso   1.000  C
  H538     1.0000 0.84370  0.62890  0.52650  Biso   1.000  H
  H539     1.0000 0.82230  0.64190  0.61350  Biso   1.000  H
  H540     1.0000 0.86830  0.64670  0.57980  Biso   1.000  H
  C649     1.0000 0.65300  0.70898  0.46020  Biso   1.000  C
  C650     1.0000 0.63380  0.69696  0.38860  Biso   1.000  C
  H541     1.0000 0.63560  0.70020  0.31880  Biso   1.000  H
  C651     1.0000 0.61050  0.67905  0.42140  Biso   1.000  C
  C652     1.0000 0.60600  0.67636  0.52720  Biso   1.000  C
  C653     1.0000 0.62590  0.68918  0.60280  Biso   1.000  C
  C654     1.0000 0.64640  0.70570  0.56320  Biso   1.000  C
  H542     1.0000 0.65660  0.71540  0.60930  Biso   1.000  H
  C655     1.0000 0.67600  0.72622  0.41880  Biso   1.000  C
  C656     1.0000 0.59300  0.66664  0.34410  Biso   1.000  C
  H543     1.0000 0.59640  0.67080  0.27600  Biso   1.000  H
  C657     1.0000 0.61670  0.68668  0.70960  Biso   1.000  C
  H544     1.0000 0.60050  0.67450  0.71930  Biso   1.000  H
  H545     1.0000 0.60110  0.69830  0.73380  Biso   1.000  H
  H546     1.0000 0.64240  0.68560  0.74780  Biso   1.000  H
  C658     1.0000 0.55330  0.63723  0.27800  Biso   1.000  C
  C659     1.0000 0.56400  0.64332  0.17060  Biso   1.000  C
  H547     1.0000 0.59390  0.64220  0.16000  Biso   1.000  H
  H548     1.0000 0.55580  0.65740  0.15900  Biso   1.000  H
  C660     1.0000 0.54110  0.62941  0.09460  Biso   1.000  C
  H549     1.0000 0.54810  0.63310  0.02420  Biso   1.000  H
  H550     1.0000 0.51110  0.63070  0.10340  Biso   1.000  H
  C661     1.0000 0.55610  0.60600  0.11840  Biso   1.000  C
  H551     1.0000 0.54220  0.59670  0.07110  Biso   1.000  H
  H552     1.0000 0.58600  0.60480  0.10740  Biso   1.000  H
  C662     1.0000 0.54590  0.60002  0.22710  Biso   1.000  C
  H553     1.0000 0.55600  0.58630  0.24030  Biso   1.000  H
  H554     1.0000 0.51580  0.60010  0.23670  Biso   1.000  H
  C663     1.0000 0.56610  0.61481  0.30300  Biso   1.000  C
  C664     1.0000 0.55290  0.58752  0.55540  Biso   1.000  C
  C665     1.0000 0.56368  0.60210  0.63500  Biso   1.000  C
  C666     1.0000 0.56790  0.59479  0.73450  Biso   1.000  C
  C667     1.0000 0.55780  0.57501  0.75760  Biso   1.000  C
  H555     1.0000 0.55990  0.57060  0.82570  Biso   1.000  H
  C668     1.0000 0.54460  0.56107  0.68220  Biso   1.000  C
  C669     1.0000 0.54320  0.56790  0.58130  Biso   1.000  C
  H556     1.0000 0.53530  0.55880  0.52950  Biso   1.000  H
  C670     1.0000 0.55400  0.59355  0.44700  Biso   1.000  C
  H557     1.0000 0.55010  0.58330  0.39830  Biso   1.000  H
  C671     1.0000 0.58320  0.60960  0.81770  Biso   1.000  C
  H558     1.0000 0.58890  0.62270  0.78710  Biso   1.000  H
  H559     1.0000 0.60840  0.60430  0.84840  Biso   1.000  H
  H560     1.0000 0.56210  0.61110  0.86980  Biso   1.000  H
  C672     1.0000 0.52730  0.53998  0.71400  Biso   1.000  C
  N53      1.0000 0.57269  0.64990  0.35970  Biso   1.000  N
  N54      1.0000 0.55986  0.61181  0.41270  Biso   1.000  N
  N55      1.0000 0.79942  0.64160  0.16230  Biso   1.000  N
  N56      1.0000 0.82816  0.60535  0.10770  Biso   1.000  N
  O157     1.0000 0.53820  0.53290  0.80300  Biso   1.000  O
  O158     1.0000 0.52160  0.52700  0.65050  Biso   1.000  O
  O159     1.0000 0.58377  0.66022  0.56610  Biso   1.000  O
  O160     1.0000 0.57177  0.62107  0.61470  Biso   1.000  O
  O161     1.0000 0.83355  0.59104  0.30800  Biso   1.000  O
  O162     1.0000 0.82308  0.63099  0.35790  Biso   1.000  O
  O163     1.0000 0.93260  0.51073  0.22130  Biso   1.000  O
  O164     1.0000 0.92690  0.52138  0.06770  Biso   1.000  O
  O165     1.0000 0.68260  0.72895  0.32900  Biso   1.000  O
  O166     1.0000 0.68960  0.73988  0.50070  Biso   1.000  O
  O167     1.0000 0.78280  0.72633  0.40010  Biso   1.000  O
  O168     1.0000 0.78980  0.71700  0.56190  Biso   1.000  O
  Fe29     1.0000 0.30368  0.11395  0.24892  Biso   1.000  Fe
  Fe30     1.0000 0.05461  0.13813  0.50397  Biso   1.000  Fe
  Ba15     1.0000 0.00520  0.99963  0.83103  Biso   1.000  Ba
  C673     1.0000 0.39520  0.04102  0.19390  Biso   1.000  C
  C674     1.0000 0.39160  0.04523  0.30080  Biso   1.000  C
  H561     1.0000 0.40520  0.03680  0.34790  Biso   1.000  H
  C675     1.0000 0.36900  0.06112  0.33590  Biso   1.000  C
  C676     1.0000 0.35270  0.07609  0.27140  Biso   1.000  C
  C677     1.0000 0.35700  0.07273  0.16120  Biso   1.000  C
  C678     1.0000 0.38080  0.05690  0.12860  Biso   1.000  C
  H562     1.0000 0.38810  0.05640  0.05920  Biso   1.000  H
  C679     1.0000 0.42050  0.02290  0.16180  Biso   1.000  C
  C680     1.0000 0.36610  0.06500  0.46010  Biso   1.000  C
  H563     1.0000 0.37940  0.05390  0.49580  Biso   1.000  H
  H564     1.0000 0.33720  0.06580  0.48030  Biso   1.000  H
  H565     1.0000 0.37990  0.07760  0.47710  Biso   1.000  H
  C681     1.0000 0.34660  0.08864  0.09090  Biso   1.000  C
  H566     1.0000 0.35440  0.08640  0.02270  Biso   1.000  H
  C682     1.0000 0.32620  0.12096  0.02430  Biso   1.000  C
  C683     1.0000 0.31940  0.11269  0.91740  Biso   1.000  C
  H567     1.0000 0.29410  0.10450  0.91540  Biso   1.000  H
  H568     1.0000 0.34280  0.10410  0.89740  Biso   1.000  H
  C684     1.0000 0.31550  0.13160  0.84040  Biso   1.000  C
  H569     1.0000 0.34170  0.13910  0.83980  Biso   1.000  H
  H570     1.0000 0.31040  0.12660  0.77110  Biso   1.000  H
  C685     1.0000 0.28200  0.14510  0.87070  Biso   1.000  C
  H571     1.0000 0.25570  0.13770  0.86990  Biso   1.000  H
  H572     1.0000 0.27990  0.15630  0.82170  Biso   1.000  H
  C686     1.0000 0.28990  0.15394  0.98150  Biso   1.000  C
  H573     1.0000 0.31630  0.16130  0.98340  Biso   1.000  H
  H574     1.0000 0.26770  0.16330  0.00040  Biso   1.000  H
  C687     1.0000 0.29100  0.13618  0.05510  Biso   1.000  C
  C688     1.0000 0.30340  0.16456  0.30080  Biso   1.000  C
  C689     1.0000 0.29780  0.18526  0.32900  Biso   1.000  C
  H575     1.0000 0.29080  0.19460  0.27770  Biso   1.000  H
  C690     1.0000 0.30200  0.19216  0.42710  Biso   1.000  C
  C691     1.0000 0.31730  0.17736  0.49800  Biso   1.000  C
  H576     1.0000 0.32240  0.18180  0.56500  Biso   1.000  H
  C692     1.0000 0.32540  0.15682  0.47720  Biso   1.000  C
  C693     1.0000 0.31752  0.15038  0.37940  Biso   1.000  C
  C694     1.0000 0.29820  0.15923  0.19690  Biso   1.000  C
  H577     1.0000 0.29330  0.16980  0.15020  Biso   1.000  H
  C695     1.0000 0.29610  0.21281  0.46020  Biso   1.000  C
  C696     1.0000 0.34130  0.14229  0.55620  Biso   1.000  C
  H578     1.0000 0.34370  0.12890  0.52650  Biso   1.000  H
  H579     1.0000 0.32230  0.14190  0.61350  Biso   1.000  H
  H580     1.0000 0.36830  0.14670  0.57980  Biso   1.000  H
  C697     1.0000 0.15300  0.20898  0.46020  Biso   1.000  C
  C698     1.0000 0.13380  0.19696  0.38860  Biso   1.000  C
  H581     1.0000 0.13560  0.20020  0.31880  Biso   1.000  H
  C699     1.0000 0.11050  0.17905  0.42140  Biso   1.000  C
  C700     1.0000 0.10600  0.17636  0.52720  Biso   1.000  C
  C701     1.0000 0.12590  0.18918  0.60280  Biso   1.000  C
  C702     1.0000 0.14640  0.20570  0.56320  Biso   1.000  C
  H582     1.0000 0.15660  0.21540  0.60930  Biso   1.000  H
  C703     1.0000 0.17600  0.22622  0.41880  Biso   1.000  C
  C704     1.0000 0.09300  0.16664  0.34410  Biso   1.000  C
  H583     1.0000 0.09640  0.17080  0.27600  Biso   1.000  H
  C705     1.0000 0.11670  0.18668  0.70960  Biso   1.000  C
  H584     1.0000 0.10050  0.17450  0.71930  Biso   1.000  H
  H585     1.0000 0.10110  0.19830  0.73380  Biso   1.000  H
  H586     1.0000 0.14240  0.18560  0.74780  Biso   1.000  H
  C706     1.0000 0.05330  0.13723  0.27800  Biso   1.000  C
  C707     1.0000 0.06400  0.14332  0.17060  Biso   1.000  C
  H587     1.0000 0.09390  0.14220  0.16000  Biso   1.000  H
  H588     1.0000 0.05580  0.15740  0.15900  Biso   1.000  H
  C708     1.0000 0.04110  0.12941  0.09460  Biso   1.000  C
  H589     1.0000 0.04810  0.13310  0.02420  Biso   1.000  H
  H590     1.0000 0.01110  0.13070  0.10340  Biso   1.000  H
  C709     1.0000 0.05610  0.10600  0.11840  Biso   1.000  C
  H591     1.0000 0.04220  0.09670  0.07110  Biso   1.000  H
  H592     1.0000 0.08600  0.10480  0.10740  Biso   1.000  H
  C710     1.0000 0.04590  0.10002  0.22710  Biso   1.000  C
  H593     1.0000 0.05600  0.08630  0.24030  Biso   1.000  H
  H594     1.0000 0.01580  0.10010  0.23670  Biso   1.000  H
  C711     1.0000 0.06610  0.11481  0.30300  Biso   1.000  C
  C712     1.0000 0.05290  0.08752  0.55540  Biso   1.000  C
  C713     1.0000 0.06368  0.10210  0.63500  Biso   1.000  C
  C714     1.0000 0.06790  0.09479  0.73450  Biso   1.000  C
  C715     1.0000 0.05780  0.07501  0.75760  Biso   1.000  C
  H595     1.0000 0.05990  0.07060  0.82570  Biso   1.000  H
  C716     1.0000 0.04460  0.06107  0.68220  Biso   1.000  C
  C717     1.0000 0.04320  0.06790  0.58130  Biso   1.000  C
  H596     1.0000 0.03530  0.05880  0.52950  Biso   1.000  H
  C718     1.0000 0.05400  0.09355  0.44700  Biso   1.000  C
  H597     1.0000 0.05010  0.08330  0.39830  Biso   1.000  H
  C719     1.0000 0.08320  0.10960  0.81770  Biso   1.000  C
  H598     1.0000 0.08890  0.12270  0.78710  Biso   1.000  H
  H599     1.0000 0.10840  0.10430  0.84840  Biso   1.000  H
  H600     1.0000 0.06210  0.11110  0.86980  Biso   1.000  H
  C720     1.0000 0.02730  0.03998  0.71400  Biso   1.000  C
  N57      1.0000 0.07269  0.14990  0.35970  Biso   1.000  N
  N58      1.0000 0.05986  0.11181  0.41270  Biso   1.000  N
  N59      1.0000 0.29942  0.14160  0.16230  Biso   1.000  N
  N60      1.0000 0.32816  0.10535  0.10770  Biso   1.000  N
  O169     1.0000 0.03820  0.03290  0.80300  Biso   1.000  O
  O170     1.0000 0.02160  0.02700  0.65050  Biso   1.000  O
  O171     1.0000 0.08377  0.16022  0.56610  Biso   1.000  O
  O172     1.0000 0.07177  0.12107  0.61470  Biso   1.000  O
  O173     1.0000 0.33355  0.09104  0.30800  Biso   1.000  O
  O174     1.0000 0.32308  0.13099  0.35790  Biso   1.000  O
  O175     1.0000 0.43260  0.01073  0.22130  Biso   1.000  O
  O176     1.0000 0.42690  0.02138  0.06770  Biso   1.000  O
  O177     1.0000 0.18260  0.22895  0.32900  Biso   1.000  O
  O178     1.0000 0.18960  0.23988  0.50070  Biso   1.000  O
  O179     1.0000 0.28280  0.22633  0.40010  Biso   1.000  O
  O180     1.0000 0.28980  0.21700  0.56190  Biso   1.000  O
  Fe31     1.0000 0.30368  0.61395  0.74892  Biso   1.000  Fe
  Fe32     1.0000 0.05461  0.63813  0.00397  Biso   1.000  Fe
  Ba16     1.0000 0.00520  0.49963  0.33103  Biso   1.000  Ba
  C721     1.0000 0.39520  0.54102  0.69390  Biso   1.000  C
  C722     1.0000 0.39160  0.54523  0.80080  Biso   1.000  C
  H601     1.0000 0.40520  0.53680  0.84790  Biso   1.000  H
  C723     1.0000 0.36900  0.56112  0.83590  Biso   1.000  C
  C724     1.0000 0.35270  0.57609  0.77140  Biso   1.000  C
  C725     1.0000 0.35700  0.57273  0.66120  Biso   1.000  C
  C726     1.0000 0.38080  0.55690  0.62860  Biso   1.000  C
  H602     1.0000 0.38810  0.55640  0.55920  Biso   1.000  H
  C727     1.0000 0.42050  0.52290  0.66180  Biso   1.000  C
  C728     1.0000 0.36610  0.56500  0.96010  Biso   1.000  C
  H603     1.0000 0.37940  0.55390  0.99580  Biso   1.000  H
  H604     1.0000 0.33720  0.56580  0.98030  Biso   1.000  H
  H605     1.0000 0.37990  0.57760  0.97710  Biso   1.000  H
  C729     1.0000 0.34660  0.58864  0.59090  Biso   1.000  C
  H606     1.0000 0.35440  0.58640  0.52270  Biso   1.000  H
  C730     1.0000 0.32620  0.62096  0.52430  Biso   1.000  C
  C731     1.0000 0.31940  0.61269  0.41740  Biso   1.000  C
  H607     1.0000 0.29410  0.60450  0.41540  Biso   1.000  H
  H608     1.0000 0.34280  0.60410  0.39740  Biso   1.000  H
  C732     1.0000 0.31550  0.63160  0.34040  Biso   1.000  C
  H609     1.0000 0.34170  0.63910  0.33980  Biso   1.000  H
  H610     1.0000 0.31040  0.62660  0.27110  Biso   1.000  H
  C733     1.0000 0.28200  0.64510  0.37070  Biso   1.000  C
  H611     1.0000 0.25570  0.63770  0.36990  Biso   1.000  H
  H612     1.0000 0.27990  0.65630  0.32170  Biso   1.000  H
  C734     1.0000 0.28990  0.65394  0.48150  Biso   1.000  C
  H613     1.0000 0.31630  0.66130  0.48340  Biso   1.000  H
  H614     1.0000 0.26770  0.66330  0.50040  Biso   1.000  H
  C735     1.0000 0.29100  0.63618  0.55510  Biso   1.000  C
  C736     1.0000 0.30340  0.66456  0.80080  Biso   1.000  C
  C737     1.0000 0.29780  0.68526  0.82900  Biso   1.000  C
  H615     1.0000 0.29080  0.69460  0.77770  Biso   1.000  H
  C738     1.0000 0.30200  0.69216  0.92710  Biso   1.000  C
  C739     1.0000 0.31730  0.67736  0.99800  Biso   1.000  C
  H616     1.0000 0.32240  0.68180  0.06500  Biso   1.000  H
  C740     1.0000 0.32540  0.65682  0.97720  Biso   1.000  C
  C741     1.0000 0.31752  0.65038  0.87940  Biso   1.000  C
  C742     1.0000 0.29820  0.65923  0.69690  Biso   1.000  C
  H617     1.0000 0.29330  0.66980  0.65020  Biso   1.000  H
  C743     1.0000 0.29610  0.71281  0.96020  Biso   1.000  C
  C744     1.0000 0.34130  0.64229  0.05620  Biso   1.000  C
  H618     1.0000 0.34370  0.62890  0.02650  Biso   1.000  H
  H619     1.0000 0.32230  0.64190  0.11350  Biso   1.000  H
  H620     1.0000 0.36830  0.64670  0.07980  Biso   1.000  H
  C745     1.0000 0.15300  0.70898  0.96020  Biso   1.000  C
  C746     1.0000 0.13380  0.69696  0.88860  Biso   1.000  C
  H621     1.0000 0.13560  0.70020  0.81880  Biso   1.000  H
  C747     1.0000 0.11050  0.67905  0.92140  Biso   1.000  C
  C748     1.0000 0.10600  0.67636  0.02720  Biso   1.000  C
  C749     1.0000 0.12590  0.68918  0.10280  Biso   1.000  C
  C750     1.0000 0.14640  0.70570  0.06320  Biso   1.000  C
  H622     1.0000 0.15660  0.71540  0.10930  Biso   1.000  H
  C751     1.0000 0.17600  0.72622  0.91880  Biso   1.000  C
  C752     1.0000 0.09300  0.66664  0.84410  Biso   1.000  C
  H623     1.0000 0.09640  0.67080  0.77600  Biso   1.000  H
  C753     1.0000 0.11670  0.68668  0.20960  Biso   1.000  C
  H624     1.0000 0.10050  0.67450  0.21930  Biso   1.000  H
  H625     1.0000 0.10110  0.69830  0.23380  Biso   1.000  H
  H626     1.0000 0.14240  0.68560  0.24780  Biso   1.000  H
  C754     1.0000 0.05330  0.63723  0.77800  Biso   1.000  C
  C755     1.0000 0.06400  0.64332  0.67060  Biso   1.000  C
  H627     1.0000 0.09390  0.64220  0.66000  Biso   1.000  H
  H628     1.0000 0.05580  0.65740  0.65900  Biso   1.000  H
  C756     1.0000 0.04110  0.62941  0.59460  Biso   1.000  C
  H629     1.0000 0.04810  0.63310  0.52420  Biso   1.000  H
  H630     1.0000 0.01110  0.63070  0.60340  Biso   1.000  H
  C757     1.0000 0.05610  0.60600  0.61840  Biso   1.000  C
  H631     1.0000 0.04220  0.59670  0.57110  Biso   1.000  H
  H632     1.0000 0.08600  0.60480  0.60740  Biso   1.000  H
  C758     1.0000 0.04590  0.60002  0.72710  Biso   1.000  C
  H633     1.0000 0.05600  0.58630  0.74030  Biso   1.000  H
  H634     1.0000 0.01580  0.60010  0.73670  Biso   1.000  H
  C759     1.0000 0.06610  0.61481  0.80300  Biso   1.000  C
  C760     1.0000 0.05290  0.58752  0.05540  Biso   1.000  C
  C761     1.0000 0.06368  0.60210  0.13500  Biso   1.000  C
  C762     1.0000 0.06790  0.59479  0.23450  Biso   1.000  C
  C763     1.0000 0.05780  0.57501  0.25760  Biso   1.000  C
  H635     1.0000 0.05990  0.57060  0.32570  Biso   1.000  H
  C764     1.0000 0.04460  0.56107  0.18220  Biso   1.000  C
  C765     1.0000 0.04320  0.56790  0.08130  Biso   1.000  C
  H636     1.0000 0.03530  0.55880  0.02950  Biso   1.000  H
  C766     1.0000 0.05400  0.59355  0.94700  Biso   1.000  C
  H637     1.0000 0.05010  0.58330  0.89830  Biso   1.000  H
  C767     1.0000 0.08320  0.60960  0.31770  Biso   1.000  C
  H638     1.0000 0.08890  0.62270  0.28710  Biso   1.000  H
  H639     1.0000 0.10840  0.60430  0.34840  Biso   1.000  H
  H640     1.0000 0.06210  0.61110  0.36980  Biso   1.000  H
  C768     1.0000 0.02730  0.53998  0.21400  Biso   1.000  C
  N61      1.0000 0.07269  0.64990  0.85970  Biso   1.000  N
  N62      1.0000 0.05986  0.61181  0.91270  Biso   1.000  N
  N63      1.0000 0.29942  0.64160  0.66230  Biso   1.000  N
  N64      1.0000 0.32816  0.60535  0.60770  Biso   1.000  N
  O181     1.0000 0.03820  0.53290  0.30300  Biso   1.000  O
  O182     1.0000 0.02160  0.52700  0.15050  Biso   1.000  O
  O183     1.0000 0.08377  0.66022  0.06610  Biso   1.000  O
  O184     1.0000 0.07177  0.62107  0.11470  Biso   1.000  O
  O185     1.0000 0.33355  0.59104  0.80800  Biso   1.000  O
  O186     1.0000 0.32308  0.63099  0.85790  Biso   1.000  O
  O187     1.0000 0.43260  0.51073  0.72130  Biso   1.000  O
  O188     1.0000 0.42690  0.52138  0.56770  Biso   1.000  O
  O189     1.0000 0.18260  0.72895  0.82900  Biso   1.000  O
  O190     1.0000 0.18960  0.73988  0.00070  Biso   1.000  O
  O191     1.0000 0.28280  0.72633  0.90010  Biso   1.000  O
  O192     1.0000 0.28980  0.71700  0.06190  Biso   1.000  O
  Ba17     1.0000 0.75000  0.75000  0.25000  Biso   1.000  Ba
  Ba18     1.0000 0.25000  0.25000  0.25000  Biso   1.000  Ba
  Ba19     1.0000 0.25000  0.75000  0.75000  Biso   1.000  Ba
  Ba20     1.0000 0.75000  0.25000  0.75000  Biso   1.000  Ba
  Ba21     1.0000 0.00000  0.00000  0.50000  Biso   1.000  Ba
  Ba22     1.0000 0.00000  0.50000  0.00000  Biso   1.000  Ba
  Ba23     1.0000 0.50000  0.00000  0.00000  Biso   1.000  Ba
  Ba24     1.0000 0.50000  0.50000  0.50000  Biso   1.000  Ba
  O193     1.0000 0.50000  0.85775  0.00000  Biso   1.000  O
  O194     1.0000 0.50000  0.35775  0.50000  Biso   1.000  O
  O195     1.0000 0.00000  0.85775  0.50000  Biso   1.000  O
  O196     1.0000 0.00000  0.35775  0.00000  Biso   1.000  O
  O197     1.0000 0.50000  0.14225  0.00000  Biso   1.000  O
  O198     1.0000 0.50000  0.64225  0.50000  Biso   1.000  O
  O199     1.0000 0.00000  0.14225  0.50000  Biso   1.000  O
  O200     1.0000 0.00000  0.64225  0.00000  Biso   1.000  O
  O201     1.0000 0.75000  0.89284  0.25000  Biso   1.000  O
  O202     1.0000 0.75000  0.39284  0.75000  Biso   1.000  O
  O203     1.0000 0.25000  0.39284  0.25000  Biso   1.000  O
  O204     1.0000 0.25000  0.10716  0.25000  Biso   1.000  O
  O205     1.0000 0.25000  0.60716  0.75000  Biso   1.000  O
  O206     1.0000 0.25000  0.89284  0.75000  Biso   1.000  O
  O207     1.0000 0.75000  0.10716  0.75000  Biso   1.000  O
  O208     1.0000 0.75000  0.60716  0.25000  Biso   1.000  O
  O209     1.0000 0.44760  0.00000  0.50000  Biso   1.000  O
  O210     1.0000 0.44760  0.50000  0.00000  Biso   1.000  O
  O211     1.0000 0.94760  0.00000  0.00000  Biso   1.000  O
  O212     1.0000 0.94760  0.50000  0.50000  Biso   1.000  O
  O213     1.0000 0.55240  0.00000  0.50000  Biso   1.000  O
  O214     1.0000 0.55240  0.50000  0.00000  Biso   1.000  O
  O215     1.0000 0.05240  0.00000  0.00000  Biso   1.000  O
  O216     1.0000 0.05240  0.50000  0.50000  Biso   1.000  O
