data_image0
_cell_length_a       30.63
_cell_length_b       30.63
_cell_length_c       27.811
_cell_angle_alpha    90
_cell_angle_beta     90
_cell_angle_gamma    90

_symmetry_space_group_name_H-M    "P 1"
_symmetry_int_tables_number       1

loop_
  _symmetry_equiv_pos_as_xyz
  'x, y, z'

loop_
  _atom_site_label
  _atom_site_occupancy
  _atom_site_fract_x
  _atom_site_fract_y
  _atom_site_fract_z
  _atom_site_thermal_displace_type
  _atom_site_B_iso_or_equiv
  _atom_site_type_symbol
  O1       1.0000 0.22714  0.83624  0.77744  Biso   1.000  O
  O2       1.0000 0.19273  0.87061  0.83729  Biso   1.000  O
  O3       1.0000 0.27645  0.95560  0.95079  Biso   1.000  O
  O4       1.0000 0.34991  0.95497  0.94989  Biso   1.000  O
  O5       1.0000 0.11622  0.81957  0.71313  Biso   1.000  O
  O6       1.0000 0.08088  0.85437  0.77206  Biso   1.000  O
  C1       1.0000 0.22607  0.85671  0.81677  Biso   1.000  C
  C2       1.0000 0.26933  0.86743  0.83928  Biso   1.000  C
  C3       1.0000 0.27167  0.89643  0.87747  Biso   1.000  C
  H1       1.0000 0.24560  0.90740  0.89140  Biso   1.000  H
  C4       1.0000 0.31177  0.90945  0.89542  Biso   1.000  C
  C5       1.0000 0.34971  0.89360  0.87553  Biso   1.000  C
  H2       1.0000 0.37710  0.90300  0.88770  Biso   1.000  H
  C6       1.0000 0.34834  0.86361  0.83730  Biso   1.000  C
  C7       1.0000 0.30723  0.85090  0.81940  Biso   1.000  C
  H3       1.0000 0.30560  0.83080  0.79350  Biso   1.000  H
  C8       1.0000 0.31281  0.94183  0.93542  Biso   1.000  C
  C9       1.0000 0.38763  0.84786  0.81610  Biso   1.000  C
  C10      1.0000 0.42050  0.83490  0.79720  Biso   1.000  C
  C11      1.0000 0.46014  0.82081  0.77630  Biso   1.000  C
  C12      1.0000 0.46100  0.79300  0.73660  Biso   1.000  C
  H4       1.0000 0.43440  0.78430  0.72210  Biso   1.000  H
  C13      1.0000 0.08198  0.83236  0.73390  Biso   1.000  C
  C14      1.0000 0.03951  0.81816  0.71292  Biso   1.000  C
  C15      1.0000 0.03906  0.78780  0.67588  Biso   1.000  C
  H5       1.0000 0.06600  0.77700  0.66370  Biso   1.000  H
  C16      1.0000 0.98480  0.71490  0.58650  Biso   1.000  C
  C17      1.0000 0.97780  0.69270  0.54320  Biso   1.000  C
  C18      1.0000 0.94860  0.65160  0.54210  Biso   1.000  C
  O7       1.0000 0.77286  0.16376  0.77744  Biso   1.000  O
  O8       1.0000 0.80727  0.12939  0.83729  Biso   1.000  O
  O9       1.0000 0.72355  0.04440  0.95079  Biso   1.000  O
  O10      1.0000 0.65009  0.04503  0.94989  Biso   1.000  O
  O11      1.0000 0.88378  0.18043  0.71313  Biso   1.000  O
  O12      1.0000 0.91912  0.14563  0.77206  Biso   1.000  O
  C19      1.0000 0.77393  0.14329  0.81677  Biso   1.000  C
  C20      1.0000 0.73067  0.13257  0.83928  Biso   1.000  C
  C21      1.0000 0.72833  0.10357  0.87747  Biso   1.000  C
  H6       1.0000 0.75440  0.09260  0.89140  Biso   1.000  H
  C22      1.0000 0.68823  0.09055  0.89542  Biso   1.000  C
  C23      1.0000 0.65029  0.10640  0.87553  Biso   1.000  C
  H7       1.0000 0.62290  0.09700  0.88770  Biso   1.000  H
  C24      1.0000 0.65166  0.13639  0.83730  Biso   1.000  C
  C25      1.0000 0.69277  0.14910  0.81940  Biso   1.000  C
  H8       1.0000 0.69440  0.16920  0.79350  Biso   1.000  H
  C26      1.0000 0.68719  0.05817  0.93542  Biso   1.000  C
  C27      1.0000 0.61237  0.15214  0.81610  Biso   1.000  C
  C28      1.0000 0.57950  0.16510  0.79720  Biso   1.000  C
  C29      1.0000 0.53986  0.17919  0.77630  Biso   1.000  C
  C30      1.0000 0.53900  0.20700  0.73660  Biso   1.000  C
  H9       1.0000 0.56560  0.21570  0.72210  Biso   1.000  H
  C31      1.0000 0.91802  0.16764  0.73390  Biso   1.000  C
  C32      1.0000 0.96049  0.18184  0.71292  Biso   1.000  C
  C33      1.0000 0.96094  0.21220  0.67588  Biso   1.000  C
  H10      1.0000 0.93400  0.22300  0.66370  Biso   1.000  H
  C34      1.0000 0.01520  0.28510  0.58650  Biso   1.000  C
  C35      1.0000 0.02220  0.30730  0.54320  Biso   1.000  C
  C36      1.0000 0.05140  0.34840  0.54210  Biso   1.000  C
  O13      1.0000 0.16376  0.22714  0.77744  Biso   1.000  O
  O14      1.0000 0.12939  0.19273  0.83729  Biso   1.000  O
  O15      1.0000 0.04440  0.27645  0.95079  Biso   1.000  O
  O16      1.0000 0.04503  0.34991  0.94989  Biso   1.000  O
  O17      1.0000 0.18043  0.11622  0.71313  Biso   1.000  O
  O18      1.0000 0.14563  0.08088  0.77206  Biso   1.000  O
  C37      1.0000 0.14329  0.22607  0.81677  Biso   1.000  C
  C38      1.0000 0.13257  0.26933  0.83928  Biso   1.000  C
  C39      1.0000 0.10357  0.27167  0.87747  Biso   1.000  C
  H11      1.0000 0.09260  0.24560  0.89140  Biso   1.000  H
  C40      1.0000 0.09055  0.31177  0.89542  Biso   1.000  C
  C41      1.0000 0.10640  0.34971  0.87553  Biso   1.000  C
  H12      1.0000 0.09700  0.37710  0.88770  Biso   1.000  H
  C42      1.0000 0.13639  0.34834  0.83730  Biso   1.000  C
  C43      1.0000 0.14910  0.30723  0.81940  Biso   1.000  C
  H13      1.0000 0.16920  0.30560  0.79350  Biso   1.000  H
  C44      1.0000 0.05817  0.31281  0.93542  Biso   1.000  C
  C45      1.0000 0.15214  0.38763  0.81610  Biso   1.000  C
  C46      1.0000 0.16510  0.42050  0.79720  Biso   1.000  C
  C47      1.0000 0.17919  0.46014  0.77630  Biso   1.000  C
  C48      1.0000 0.20700  0.46100  0.73660  Biso   1.000  C
  H14      1.0000 0.21570  0.43440  0.72210  Biso   1.000  H
  C49      1.0000 0.16764  0.08198  0.73390  Biso   1.000  C
  C50      1.0000 0.18184  0.03951  0.71292  Biso   1.000  C
  C51      1.0000 0.21220  0.03906  0.67588  Biso   1.000  C
  H15      1.0000 0.22300  0.06600  0.66370  Biso   1.000  H
  C52      1.0000 0.28510  0.98480  0.58650  Biso   1.000  C
  C53      1.0000 0.30730  0.97780  0.54320  Biso   1.000  C
  C54      1.0000 0.34840  0.94860  0.54210  Biso   1.000  C
  O19      1.0000 0.83624  0.77286  0.77744  Biso   1.000  O
  O20      1.0000 0.87061  0.80727  0.83729  Biso   1.000  O
  O21      1.0000 0.95560  0.72355  0.95079  Biso   1.000  O
  O22      1.0000 0.95497  0.65009  0.94989  Biso   1.000  O
  O23      1.0000 0.81957  0.88378  0.71313  Biso   1.000  O
  O24      1.0000 0.85437  0.91912  0.77206  Biso   1.000  O
  C55      1.0000 0.85671  0.77393  0.81677  Biso   1.000  C
  C56      1.0000 0.86743  0.73067  0.83928  Biso   1.000  C
  C57      1.0000 0.89643  0.72833  0.87747  Biso   1.000  C
  H16      1.0000 0.90740  0.75440  0.89140  Biso   1.000  H
  C58      1.0000 0.90945  0.68823  0.89542  Biso   1.000  C
  C59      1.0000 0.89360  0.65029  0.87553  Biso   1.000  C
  H17      1.0000 0.90300  0.62290  0.88770  Biso   1.000  H
  C60      1.0000 0.86361  0.65166  0.83730  Biso   1.000  C
  C61      1.0000 0.85090  0.69277  0.81940  Biso   1.000  C
  H18      1.0000 0.83080  0.69440  0.79350  Biso   1.000  H
  C62      1.0000 0.94183  0.68719  0.93542  Biso   1.000  C
  C63      1.0000 0.84786  0.61237  0.81610  Biso   1.000  C
  C64      1.0000 0.83490  0.57950  0.79720  Biso   1.000  C
  C65      1.0000 0.82081  0.53986  0.77630  Biso   1.000  C
  C66      1.0000 0.79300  0.53900  0.73660  Biso   1.000  C
  H19      1.0000 0.78430  0.56560  0.72210  Biso   1.000  H
  C67      1.0000 0.83236  0.91802  0.73390  Biso   1.000  C
  C68      1.0000 0.81816  0.96049  0.71292  Biso   1.000  C
  C69      1.0000 0.78780  0.96094  0.67588  Biso   1.000  C
  H20      1.0000 0.77700  0.93400  0.66370  Biso   1.000  H
  C70      1.0000 0.71490  0.01520  0.58650  Biso   1.000  C
  C71      1.0000 0.69270  0.02220  0.54320  Biso   1.000  C
  C72      1.0000 0.65160  0.05140  0.54210  Biso   1.000  C
  O25      1.0000 0.77286  0.83624  0.22256  Biso   1.000  O
  O26      1.0000 0.80727  0.87061  0.16271  Biso   1.000  O
  O27      1.0000 0.72355  0.95560  0.04921  Biso   1.000  O
  O28      1.0000 0.65009  0.95497  0.05011  Biso   1.000  O
  O29      1.0000 0.88378  0.81957  0.28687  Biso   1.000  O
  O30      1.0000 0.91912  0.85437  0.22794  Biso   1.000  O
  C73      1.0000 0.77393  0.85671  0.18323  Biso   1.000  C
  C74      1.0000 0.73067  0.86743  0.16072  Biso   1.000  C
  C75      1.0000 0.72833  0.89643  0.12253  Biso   1.000  C
  H21      1.0000 0.75440  0.90740  0.10860  Biso   1.000  H
  C76      1.0000 0.68823  0.90945  0.10458  Biso   1.000  C
  C77      1.0000 0.65029  0.89360  0.12447  Biso   1.000  C
  H22      1.0000 0.62290  0.90300  0.11230  Biso   1.000  H
  C78      1.0000 0.65166  0.86361  0.16270  Biso   1.000  C
  C79      1.0000 0.69277  0.85090  0.18060  Biso   1.000  C
  H23      1.0000 0.69440  0.83080  0.20650  Biso   1.000  H
  C80      1.0000 0.68719  0.94183  0.06458  Biso   1.000  C
  C81      1.0000 0.61237  0.84786  0.18390  Biso   1.000  C
  C82      1.0000 0.57950  0.83490  0.20280  Biso   1.000  C
  C83      1.0000 0.53986  0.82081  0.22370  Biso   1.000  C
  C84      1.0000 0.53900  0.79300  0.26340  Biso   1.000  C
  H24      1.0000 0.56560  0.78430  0.27790  Biso   1.000  H
  C85      1.0000 0.91802  0.83236  0.26610  Biso   1.000  C
  C86      1.0000 0.96049  0.81816  0.28708  Biso   1.000  C
  C87      1.0000 0.96094  0.78780  0.32412  Biso   1.000  C
  H25      1.0000 0.93400  0.77700  0.33630  Biso   1.000  H
  C88      1.0000 0.01520  0.71490  0.41350  Biso   1.000  C
  C89      1.0000 0.02220  0.69270  0.45680  Biso   1.000  C
  C90      1.0000 0.05140  0.65160  0.45790  Biso   1.000  C
  O31      1.0000 0.22714  0.16376  0.22256  Biso   1.000  O
  O32      1.0000 0.19273  0.12939  0.16271  Biso   1.000  O
  O33      1.0000 0.27645  0.04440  0.04921  Biso   1.000  O
  O34      1.0000 0.34991  0.04503  0.05011  Biso   1.000  O
  O35      1.0000 0.11622  0.18043  0.28687  Biso   1.000  O
  O36      1.0000 0.08088  0.14563  0.22794  Biso   1.000  O
  C91      1.0000 0.22607  0.14329  0.18323  Biso   1.000  C
  C92      1.0000 0.26933  0.13257  0.16072  Biso   1.000  C
  C93      1.0000 0.27167  0.10357  0.12253  Biso   1.000  C
  H26      1.0000 0.24560  0.09260  0.10860  Biso   1.000  H
  C94      1.0000 0.31177  0.09055  0.10458  Biso   1.000  C
  C95      1.0000 0.34971  0.10640  0.12447  Biso   1.000  C
  H27      1.0000 0.37710  0.09700  0.11230  Biso   1.000  H
  C96      1.0000 0.34834  0.13639  0.16270  Biso   1.000  C
  C97      1.0000 0.30723  0.14910  0.18060  Biso   1.000  C
  H28      1.0000 0.30560  0.16920  0.20650  Biso   1.000  H
  C98      1.0000 0.31281  0.05817  0.06458  Biso   1.000  C
  C99      1.0000 0.38763  0.15214  0.18390  Biso   1.000  C
  C100     1.0000 0.42050  0.16510  0.20280  Biso   1.000  C
  C101     1.0000 0.46014  0.17919  0.22370  Biso   1.000  C
  C102     1.0000 0.46100  0.20700  0.26340  Biso   1.000  C
  H29      1.0000 0.43440  0.21570  0.27790  Biso   1.000  H
  C103     1.0000 0.08198  0.16764  0.26610  Biso   1.000  C
  C104     1.0000 0.03951  0.18184  0.28708  Biso   1.000  C
  C105     1.0000 0.03906  0.21220  0.32412  Biso   1.000  C
  H30      1.0000 0.06600  0.22300  0.33630  Biso   1.000  H
  C106     1.0000 0.98480  0.28510  0.41350  Biso   1.000  C
  C107     1.0000 0.97780  0.30730  0.45680  Biso   1.000  C
  C108     1.0000 0.94860  0.34840  0.45790  Biso   1.000  C
  O37      1.0000 0.83624  0.22714  0.22256  Biso   1.000  O
  O38      1.0000 0.87061  0.19273  0.16271  Biso   1.000  O
  O39      1.0000 0.95560  0.27645  0.04921  Biso   1.000  O
  O40      1.0000 0.95497  0.34991  0.05011  Biso   1.000  O
  O41      1.0000 0.81957  0.11622  0.28687  Biso   1.000  O
  O42      1.0000 0.85437  0.08088  0.22794  Biso   1.000  O
  C109     1.0000 0.85671  0.22607  0.18323  Biso   1.000  C
  C110     1.0000 0.86743  0.26933  0.16072  Biso   1.000  C
  C111     1.0000 0.89643  0.27167  0.12253  Biso   1.000  C
  H31      1.0000 0.90740  0.24560  0.10860  Biso   1.000  H
  C112     1.0000 0.90945  0.31177  0.10458  Biso   1.000  C
  C113     1.0000 0.89360  0.34971  0.12447  Biso   1.000  C
  H32      1.0000 0.90300  0.37710  0.11230  Biso   1.000  H
  C114     1.0000 0.86361  0.34834  0.16270  Biso   1.000  C
  C115     1.0000 0.85090  0.30723  0.18060  Biso   1.000  C
  H33      1.0000 0.83080  0.30560  0.20650  Biso   1.000  H
  C116     1.0000 0.94183  0.31281  0.06458  Biso   1.000  C
  C117     1.0000 0.84786  0.38763  0.18390  Biso   1.000  C
  C118     1.0000 0.83490  0.42050  0.20280  Biso   1.000  C
  C119     1.0000 0.82081  0.46014  0.22370  Biso   1.000  C
  C120     1.0000 0.79300  0.46100  0.26340  Biso   1.000  C
  H34      1.0000 0.78430  0.43440  0.27790  Biso   1.000  H
  C121     1.0000 0.83236  0.08198  0.26610  Biso   1.000  C
  C122     1.0000 0.81816  0.03951  0.28708  Biso   1.000  C
  C123     1.0000 0.78780  0.03906  0.32412  Biso   1.000  C
  H35      1.0000 0.77700  0.06600  0.33630  Biso   1.000  H
  C124     1.0000 0.71490  0.98480  0.41350  Biso   1.000  C
  C125     1.0000 0.69270  0.97780  0.45680  Biso   1.000  C
  C126     1.0000 0.65160  0.94860  0.45790  Biso   1.000  C
  O43      1.0000 0.16376  0.77286  0.22256  Biso   1.000  O
  O44      1.0000 0.12939  0.80727  0.16271  Biso   1.000  O
  O45      1.0000 0.04440  0.72355  0.04921  Biso   1.000  O
  O46      1.0000 0.04503  0.65009  0.05011  Biso   1.000  O
  O47      1.0000 0.18043  0.88378  0.28687  Biso   1.000  O
  O48      1.0000 0.14563  0.91912  0.22794  Biso   1.000  O
  C127     1.0000 0.14329  0.77393  0.18323  Biso   1.000  C
  C128     1.0000 0.13257  0.73067  0.16072  Biso   1.000  C
  C129     1.0000 0.10357  0.72833  0.12253  Biso   1.000  C
  H36      1.0000 0.09260  0.75440  0.10860  Biso   1.000  H
  C130     1.0000 0.09055  0.68823  0.10458  Biso   1.000  C
  C131     1.0000 0.10640  0.65029  0.12447  Biso   1.000  C
  H37      1.0000 0.09700  0.62290  0.11230  Biso   1.000  H
  C132     1.0000 0.13639  0.65166  0.16270  Biso   1.000  C
  C133     1.0000 0.14910  0.69277  0.18060  Biso   1.000  C
  H38      1.0000 0.16920  0.69440  0.20650  Biso   1.000  H
  C134     1.0000 0.05817  0.68719  0.06458  Biso   1.000  C
  C135     1.0000 0.15214  0.61237  0.18390  Biso   1.000  C
  C136     1.0000 0.16510  0.57950  0.20280  Biso   1.000  C
  C137     1.0000 0.17919  0.53986  0.22370  Biso   1.000  C
  C138     1.0000 0.20700  0.53900  0.26340  Biso   1.000  C
  H39      1.0000 0.21570  0.56560  0.27790  Biso   1.000  H
  C139     1.0000 0.16764  0.91802  0.26610  Biso   1.000  C
  C140     1.0000 0.18184  0.96049  0.28708  Biso   1.000  C
  C141     1.0000 0.21220  0.96094  0.32412  Biso   1.000  C
  H40      1.0000 0.22300  0.93400  0.33630  Biso   1.000  H
  C142     1.0000 0.28510  0.01520  0.41350  Biso   1.000  C
  C143     1.0000 0.30730  0.02220  0.45680  Biso   1.000  C
  C144     1.0000 0.34840  0.05140  0.45790  Biso   1.000  C
  O49      1.0000 0.77286  0.16376  0.22256  Biso   1.000  O
  O50      1.0000 0.80727  0.12939  0.16271  Biso   1.000  O
  O51      1.0000 0.72355  0.04440  0.04921  Biso   1.000  O
  O52      1.0000 0.65009  0.04503  0.05011  Biso   1.000  O
  O53      1.0000 0.88378  0.18043  0.28687  Biso   1.000  O
  O54      1.0000 0.91912  0.14563  0.22794  Biso   1.000  O
  C145     1.0000 0.77393  0.14329  0.18323  Biso   1.000  C
  C146     1.0000 0.73067  0.13257  0.16072  Biso   1.000  C
  C147     1.0000 0.72833  0.10357  0.12253  Biso   1.000  C
  H41      1.0000 0.75440  0.09260  0.10860  Biso   1.000  H
  C148     1.0000 0.68823  0.09055  0.10458  Biso   1.000  C
  C149     1.0000 0.65029  0.10640  0.12447  Biso   1.000  C
  H42      1.0000 0.62290  0.09700  0.11230  Biso   1.000  H
  C150     1.0000 0.65166  0.13639  0.16270  Biso   1.000  C
  C151     1.0000 0.69277  0.14910  0.18060  Biso   1.000  C
  H43      1.0000 0.69440  0.16920  0.20650  Biso   1.000  H
  C152     1.0000 0.68719  0.05817  0.06458  Biso   1.000  C
  C153     1.0000 0.61237  0.15214  0.18390  Biso   1.000  C
  C154     1.0000 0.57950  0.16510  0.20280  Biso   1.000  C
  C155     1.0000 0.53986  0.17919  0.22370  Biso   1.000  C
  C156     1.0000 0.53900  0.20700  0.26340  Biso   1.000  C
  H44      1.0000 0.56560  0.21570  0.27790  Biso   1.000  H
  C157     1.0000 0.91802  0.16764  0.26610  Biso   1.000  C
  C158     1.0000 0.96049  0.18184  0.28708  Biso   1.000  C
  C159     1.0000 0.96094  0.21220  0.32412  Biso   1.000  C
  H45      1.0000 0.93400  0.22300  0.33630  Biso   1.000  H
  C160     1.0000 0.01520  0.28510  0.41350  Biso   1.000  C
  C161     1.0000 0.02220  0.30730  0.45680  Biso   1.000  C
  C162     1.0000 0.05140  0.34840  0.45790  Biso   1.000  C
  O55      1.0000 0.22714  0.83624  0.22256  Biso   1.000  O
  O56      1.0000 0.19273  0.87061  0.16271  Biso   1.000  O
  O57      1.0000 0.27645  0.95560  0.04921  Biso   1.000  O
  O58      1.0000 0.34991  0.95497  0.05011  Biso   1.000  O
  O59      1.0000 0.11622  0.81957  0.28687  Biso   1.000  O
  O60      1.0000 0.08088  0.85437  0.22794  Biso   1.000  O
  C163     1.0000 0.22607  0.85671  0.18323  Biso   1.000  C
  C164     1.0000 0.26933  0.86743  0.16072  Biso   1.000  C
  C165     1.0000 0.27167  0.89643  0.12253  Biso   1.000  C
  H46      1.0000 0.24560  0.90740  0.10860  Biso   1.000  H
  C166     1.0000 0.31177  0.90945  0.10458  Biso   1.000  C
  C167     1.0000 0.34971  0.89360  0.12447  Biso   1.000  C
  H47      1.0000 0.37710  0.90300  0.11230  Biso   1.000  H
  C168     1.0000 0.34834  0.86361  0.16270  Biso   1.000  C
  C169     1.0000 0.30723  0.85090  0.18060  Biso   1.000  C
  H48      1.0000 0.30560  0.83080  0.20650  Biso   1.000  H
  C170     1.0000 0.31281  0.94183  0.06458  Biso   1.000  C
  C171     1.0000 0.38763  0.84786  0.18390  Biso   1.000  C
  C172     1.0000 0.42050  0.83490  0.20280  Biso   1.000  C
  C173     1.0000 0.46014  0.82081  0.22370  Biso   1.000  C
  C174     1.0000 0.46100  0.79300  0.26340  Biso   1.000  C
  H49      1.0000 0.43440  0.78430  0.27790  Biso   1.000  H
  C175     1.0000 0.08198  0.83236  0.26610  Biso   1.000  C
  C176     1.0000 0.03951  0.81816  0.28708  Biso   1.000  C
  C177     1.0000 0.03906  0.78780  0.32412  Biso   1.000  C
  H50      1.0000 0.06600  0.77700  0.33630  Biso   1.000  H
  C178     1.0000 0.98480  0.71490  0.41350  Biso   1.000  C
  C179     1.0000 0.97780  0.69270  0.45680  Biso   1.000  C
  C180     1.0000 0.94860  0.65160  0.45790  Biso   1.000  C
  O61      1.0000 0.83624  0.77286  0.22256  Biso   1.000  O
  O62      1.0000 0.87061  0.80727  0.16271  Biso   1.000  O
  O63      1.0000 0.95560  0.72355  0.04921  Biso   1.000  O
  O64      1.0000 0.95497  0.65009  0.05011  Biso   1.000  O
  O65      1.0000 0.81957  0.88378  0.28687  Biso   1.000  O
  O66      1.0000 0.85437  0.91912  0.22794  Biso   1.000  O
  C181     1.0000 0.85671  0.77393  0.18323  Biso   1.000  C
  C182     1.0000 0.86743  0.73067  0.16072  Biso   1.000  C
  C183     1.0000 0.89643  0.72833  0.12253  Biso   1.000  C
  H51      1.0000 0.90740  0.75440  0.10860  Biso   1.000  H
  C184     1.0000 0.90945  0.68823  0.10458  Biso   1.000  C
  C185     1.0000 0.89360  0.65029  0.12447  Biso   1.000  C
  H52      1.0000 0.90300  0.62290  0.11230  Biso   1.000  H
  C186     1.0000 0.86361  0.65166  0.16270  Biso   1.000  C
  C187     1.0000 0.85090  0.69277  0.18060  Biso   1.000  C
  H53      1.0000 0.83080  0.69440  0.20650  Biso   1.000  H
  C188     1.0000 0.94183  0.68719  0.06458  Biso   1.000  C
  C189     1.0000 0.84786  0.61237  0.18390  Biso   1.000  C
  C190     1.0000 0.83490  0.57950  0.20280  Biso   1.000  C
  C191     1.0000 0.82081  0.53986  0.22370  Biso   1.000  C
  C192     1.0000 0.79300  0.53900  0.26340  Biso   1.000  C
  H54      1.0000 0.78430  0.56560  0.27790  Biso   1.000  H
  C193     1.0000 0.83236  0.91802  0.26610  Biso   1.000  C
  C194     1.0000 0.81816  0.96049  0.28708  Biso   1.000  C
  C195     1.0000 0.78780  0.96094  0.32412  Biso   1.000  C
  H55      1.0000 0.77700  0.93400  0.33630  Biso   1.000  H
  C196     1.0000 0.71490  0.01520  0.41350  Biso   1.000  C
  C197     1.0000 0.69270  0.02220  0.45680  Biso   1.000  C
  C198     1.0000 0.65160  0.05140  0.45790  Biso   1.000  C
  O67      1.0000 0.16376  0.22714  0.22256  Biso   1.000  O
  O68      1.0000 0.12939  0.19273  0.16271  Biso   1.000  O
  O69      1.0000 0.04440  0.27645  0.04921  Biso   1.000  O
  O70      1.0000 0.04503  0.34991  0.05011  Biso   1.000  O
  O71      1.0000 0.18043  0.11622  0.28687  Biso   1.000  O
  O72      1.0000 0.14563  0.08088  0.22794  Biso   1.000  O
  C199     1.0000 0.14329  0.22607  0.18323  Biso   1.000  C
  C200     1.0000 0.13257  0.26933  0.16072  Biso   1.000  C
  C201     1.0000 0.10357  0.27167  0.12253  Biso   1.000  C
  H56      1.0000 0.09260  0.24560  0.10860  Biso   1.000  H
  C202     1.0000 0.09055  0.31177  0.10458  Biso   1.000  C
  C203     1.0000 0.10640  0.34971  0.12447  Biso   1.000  C
  H57      1.0000 0.09700  0.37710  0.11230  Biso   1.000  H
  C204     1.0000 0.13639  0.34834  0.16270  Biso   1.000  C
  C205     1.0000 0.14910  0.30723  0.18060  Biso   1.000  C
  H58      1.0000 0.16920  0.30560  0.20650  Biso   1.000  H
  C206     1.0000 0.05817  0.31281  0.06458  Biso   1.000  C
  C207     1.0000 0.15214  0.38763  0.18390  Biso   1.000  C
  C208     1.0000 0.16510  0.42050  0.20280  Biso   1.000  C
  C209     1.0000 0.17919  0.46014  0.22370  Biso   1.000  C
  C210     1.0000 0.20700  0.46100  0.26340  Biso   1.000  C
  H59      1.0000 0.21570  0.43440  0.27790  Biso   1.000  H
  C211     1.0000 0.16764  0.08198  0.26610  Biso   1.000  C
  C212     1.0000 0.18184  0.03951  0.28708  Biso   1.000  C
  C213     1.0000 0.21220  0.03906  0.32412  Biso   1.000  C
  H60      1.0000 0.22300  0.06600  0.33630  Biso   1.000  H
  C214     1.0000 0.28510  0.98480  0.41350  Biso   1.000  C
  C215     1.0000 0.30730  0.97780  0.45680  Biso   1.000  C
  C216     1.0000 0.34840  0.94860  0.45790  Biso   1.000  C
  O73      1.0000 0.22714  0.16376  0.77744  Biso   1.000  O
  O74      1.0000 0.19273  0.12939  0.83729  Biso   1.000  O
  O75      1.0000 0.27645  0.04440  0.95079  Biso   1.000  O
  O76      1.0000 0.34991  0.04503  0.94989  Biso   1.000  O
  O77      1.0000 0.11622  0.18043  0.71313  Biso   1.000  O
  O78      1.0000 0.08088  0.14563  0.77206  Biso   1.000  O
  C217     1.0000 0.22607  0.14329  0.81677  Biso   1.000  C
  C218     1.0000 0.26933  0.13257  0.83928  Biso   1.000  C
  C219     1.0000 0.27167  0.10357  0.87747  Biso   1.000  C
  H61      1.0000 0.24560  0.09260  0.89140  Biso   1.000  H
  C220     1.0000 0.31177  0.09055  0.89542  Biso   1.000  C
  C221     1.0000 0.34971  0.10640  0.87553  Biso   1.000  C
  H62      1.0000 0.37710  0.09700  0.88770  Biso   1.000  H
  C222     1.0000 0.34834  0.13639  0.83730  Biso   1.000  C
  C223     1.0000 0.30723  0.14910  0.81940  Biso   1.000  C
  H63      1.0000 0.30560  0.16920  0.79350  Biso   1.000  H
  C224     1.0000 0.31281  0.05817  0.93542  Biso   1.000  C
  C225     1.0000 0.38763  0.15214  0.81610  Biso   1.000  C
  C226     1.0000 0.42050  0.16510  0.79720  Biso   1.000  C
  C227     1.0000 0.46014  0.17919  0.77630  Biso   1.000  C
  C228     1.0000 0.46100  0.20700  0.73660  Biso   1.000  C
  H64      1.0000 0.43440  0.21570  0.72210  Biso   1.000  H
  C229     1.0000 0.08198  0.16764  0.73390  Biso   1.000  C
  C230     1.0000 0.03951  0.18184  0.71292  Biso   1.000  C
  C231     1.0000 0.03906  0.21220  0.67588  Biso   1.000  C
  H65      1.0000 0.06600  0.22300  0.66370  Biso   1.000  H
  C232     1.0000 0.98480  0.28510  0.58650  Biso   1.000  C
  C233     1.0000 0.97780  0.30730  0.54320  Biso   1.000  C
  C234     1.0000 0.94860  0.34840  0.54210  Biso   1.000  C
  O79      1.0000 0.77286  0.83624  0.77744  Biso   1.000  O
  O80      1.0000 0.80727  0.87061  0.83729  Biso   1.000  O
  O81      1.0000 0.72355  0.95560  0.95079  Biso   1.000  O
  O82      1.0000 0.65009  0.95497  0.94989  Biso   1.000  O
  O83      1.0000 0.88378  0.81957  0.71313  Biso   1.000  O
  O84      1.0000 0.91912  0.85437  0.77206  Biso   1.000  O
  C235     1.0000 0.77393  0.85671  0.81677  Biso   1.000  C
  C236     1.0000 0.73067  0.86743  0.83928  Biso   1.000  C
  C237     1.0000 0.72833  0.89643  0.87747  Biso   1.000  C
  H66      1.0000 0.75440  0.90740  0.89140  Biso   1.000  H
  C238     1.0000 0.68823  0.90945  0.89542  Biso   1.000  C
  C239     1.0000 0.65029  0.89360  0.87553  Biso   1.000  C
  H67      1.0000 0.62290  0.90300  0.88770  Biso   1.000  H
  C240     1.0000 0.65166  0.86361  0.83730  Biso   1.000  C
  C241     1.0000 0.69277  0.85090  0.81940  Biso   1.000  C
  H68      1.0000 0.69440  0.83080  0.79350  Biso   1.000  H
  C242     1.0000 0.68719  0.94183  0.93542  Biso   1.000  C
  C243     1.0000 0.61237  0.84786  0.81610  Biso   1.000  C
  C244     1.0000 0.57950  0.83490  0.79720  Biso   1.000  C
  C245     1.0000 0.53986  0.82081  0.77630  Biso   1.000  C
  C246     1.0000 0.53900  0.79300  0.73660  Biso   1.000  C
  H69      1.0000 0.56560  0.78430  0.72210  Biso   1.000  H
  C247     1.0000 0.91802  0.83236  0.73390  Biso   1.000  C
  C248     1.0000 0.96049  0.81816  0.71292  Biso   1.000  C
  C249     1.0000 0.96094  0.78780  0.67588  Biso   1.000  C
  H70      1.0000 0.93400  0.77700  0.66370  Biso   1.000  H
  C250     1.0000 0.01520  0.71490  0.58650  Biso   1.000  C
  C251     1.0000 0.02220  0.69270  0.54320  Biso   1.000  C
  C252     1.0000 0.05140  0.65160  0.54210  Biso   1.000  C
  O85      1.0000 0.16376  0.77286  0.77744  Biso   1.000  O
  O86      1.0000 0.12939  0.80727  0.83729  Biso   1.000  O
  O87      1.0000 0.04440  0.72355  0.95079  Biso   1.000  O
  O88      1.0000 0.04503  0.65009  0.94989  Biso   1.000  O
  O89      1.0000 0.18043  0.88378  0.71313  Biso   1.000  O
  O90      1.0000 0.14563  0.91912  0.77206  Biso   1.000  O
  C253     1.0000 0.14329  0.77393  0.81677  Biso   1.000  C
  C254     1.0000 0.13257  0.73067  0.83928  Biso   1.000  C
  C255     1.0000 0.10357  0.72833  0.87747  Biso   1.000  C
  H71      1.0000 0.09260  0.75440  0.89140  Biso   1.000  H
  C256     1.0000 0.09055  0.68823  0.89542  Biso   1.000  C
  C257     1.0000 0.10640  0.65029  0.87553  Biso   1.000  C
  H72      1.0000 0.09700  0.62290  0.88770  Biso   1.000  H
  C258     1.0000 0.13639  0.65166  0.83730  Biso   1.000  C
  C259     1.0000 0.14910  0.69277  0.81940  Biso   1.000  C
  H73      1.0000 0.16920  0.69440  0.79350  Biso   1.000  H
  C260     1.0000 0.05817  0.68719  0.93542  Biso   1.000  C
  C261     1.0000 0.15214  0.61237  0.81610  Biso   1.000  C
  C262     1.0000 0.16510  0.57950  0.79720  Biso   1.000  C
  C263     1.0000 0.17919  0.53986  0.77630  Biso   1.000  C
  C264     1.0000 0.20700  0.53900  0.73660  Biso   1.000  C
  H74      1.0000 0.21570  0.56560  0.72210  Biso   1.000  H
  C265     1.0000 0.16764  0.91802  0.73390  Biso   1.000  C
  C266     1.0000 0.18184  0.96049  0.71292  Biso   1.000  C
  C267     1.0000 0.21220  0.96094  0.67588  Biso   1.000  C
  H75      1.0000 0.22300  0.93400  0.66370  Biso   1.000  H
  C268     1.0000 0.28510  0.01520  0.58650  Biso   1.000  C
  C269     1.0000 0.30730  0.02220  0.54320  Biso   1.000  C
  C270     1.0000 0.34840  0.05140  0.54210  Biso   1.000  C
  O91      1.0000 0.83624  0.22714  0.77744  Biso   1.000  O
  O92      1.0000 0.87061  0.19273  0.83729  Biso   1.000  O
  O93      1.0000 0.95560  0.27645  0.95079  Biso   1.000  O
  O94      1.0000 0.95497  0.34991  0.94989  Biso   1.000  O
  O95      1.0000 0.81957  0.11622  0.71313  Biso   1.000  O
  O96      1.0000 0.85437  0.08088  0.77206  Biso   1.000  O
  C271     1.0000 0.85671  0.22607  0.81677  Biso   1.000  C
  C272     1.0000 0.86743  0.26933  0.83928  Biso   1.000  C
  C273     1.0000 0.89643  0.27167  0.87747  Biso   1.000  C
  H76      1.0000 0.90740  0.24560  0.89140  Biso   1.000  H
  C274     1.0000 0.90945  0.31177  0.89542  Biso   1.000  C
  C275     1.0000 0.89360  0.34971  0.87553  Biso   1.000  C
  H77      1.0000 0.90300  0.37710  0.88770  Biso   1.000  H
  C276     1.0000 0.86361  0.34834  0.83730  Biso   1.000  C
  C277     1.0000 0.85090  0.30723  0.81940  Biso   1.000  C
  H78      1.0000 0.83080  0.30560  0.79350  Biso   1.000  H
  C278     1.0000 0.94183  0.31281  0.93542  Biso   1.000  C
  C279     1.0000 0.84786  0.38763  0.81610  Biso   1.000  C
  C280     1.0000 0.83490  0.42050  0.79720  Biso   1.000  C
  C281     1.0000 0.82081  0.46014  0.77630  Biso   1.000  C
  C282     1.0000 0.79300  0.46100  0.73660  Biso   1.000  C
  H79      1.0000 0.78430  0.43440  0.72210  Biso   1.000  H
  C283     1.0000 0.83236  0.08198  0.73390  Biso   1.000  C
  C284     1.0000 0.81816  0.03951  0.71292  Biso   1.000  C
  C285     1.0000 0.78780  0.03906  0.67588  Biso   1.000  C
  H80      1.0000 0.77700  0.06600  0.66370  Biso   1.000  H
  C286     1.0000 0.71490  0.98480  0.58650  Biso   1.000  C
  C287     1.0000 0.69270  0.97780  0.54320  Biso   1.000  C
  C288     1.0000 0.65160  0.94860  0.54210  Biso   1.000  C
  Cu1      1.0000 0.17514  0.82486  0.73940  Biso   1.000  Cu
  Cu2      1.0000 0.13376  0.86624  0.80999  Biso   1.000  Cu
  Cu3      1.0000 0.82486  0.17514  0.73940  Biso   1.000  Cu
  Cu4      1.0000 0.86624  0.13376  0.80999  Biso   1.000  Cu
  Cu5      1.0000 0.17514  0.17514  0.73940  Biso   1.000  Cu
  Cu6      1.0000 0.13376  0.13376  0.80999  Biso   1.000  Cu
  Cu7      1.0000 0.82486  0.82486  0.73940  Biso   1.000  Cu
  Cu8      1.0000 0.86624  0.86624  0.80999  Biso   1.000  Cu
  Cu9      1.0000 0.82486  0.82486  0.26060  Biso   1.000  Cu
  Cu10     1.0000 0.86624  0.86624  0.19001  Biso   1.000  Cu
  Cu11     1.0000 0.17514  0.17514  0.26060  Biso   1.000  Cu
  Cu12     1.0000 0.13376  0.13376  0.19001  Biso   1.000  Cu
  Cu13     1.0000 0.82486  0.17514  0.26060  Biso   1.000  Cu
  Cu14     1.0000 0.86624  0.13376  0.19001  Biso   1.000  Cu
  Cu15     1.0000 0.17514  0.82486  0.26060  Biso   1.000  Cu
  Cu16     1.0000 0.13376  0.86624  0.19001  Biso   1.000  Cu
  Cu17     1.0000 0.35700  0.00000  0.00000  Biso   1.000  Cu
  Cu18     1.0000 0.27020  0.00000  0.00000  Biso   1.000  Cu
  Cu19     1.0000 0.64300  0.00000  0.00000  Biso   1.000  Cu
  Cu20     1.0000 0.72980  0.00000  0.00000  Biso   1.000  Cu
  Cu21     1.0000 0.00000  0.35700  0.00000  Biso   1.000  Cu
  Cu22     1.0000 0.00000  0.27020  0.00000  Biso   1.000  Cu
  Cu23     1.0000 0.00000  0.64300  0.00000  Biso   1.000  Cu
  Cu24     1.0000 0.00000  0.72980  0.00000  Biso   1.000  Cu
  C289     1.0000 0.50000  0.83490  0.79530  Biso   1.000  C
  H81      1.0000 0.50000  0.85460  0.82170  Biso   1.000  H
  C290     1.0000 0.50000  0.77800  0.71820  Biso   1.000  C
  H82      1.0000 0.50000  0.75720  0.69290  Biso   1.000  H
  C291     1.0000 0.50000  0.16510  0.79530  Biso   1.000  C
  H83      1.0000 0.50000  0.14540  0.82170  Biso   1.000  H
  C292     1.0000 0.50000  0.22200  0.71820  Biso   1.000  C
  H84      1.0000 0.50000  0.24280  0.69290  Biso   1.000  H
  C293     1.0000 0.16510  0.50000  0.79530  Biso   1.000  C
  H85      1.0000 0.14540  0.50000  0.82170  Biso   1.000  H
  C294     1.0000 0.22200  0.50000  0.71820  Biso   1.000  C
  H86      1.0000 0.24280  0.50000  0.69290  Biso   1.000  H
  C295     1.0000 0.83490  0.50000  0.79530  Biso   1.000  C
  H87      1.0000 0.85460  0.50000  0.82170  Biso   1.000  H
  C296     1.0000 0.77800  0.50000  0.71820  Biso   1.000  C
  H88      1.0000 0.75720  0.50000  0.69290  Biso   1.000  H
  C297     1.0000 0.50000  0.83490  0.20470  Biso   1.000  C
  H89      1.0000 0.50000  0.85460  0.17830  Biso   1.000  H
  C298     1.0000 0.50000  0.77800  0.28180  Biso   1.000  C
  H90      1.0000 0.50000  0.75720  0.30710  Biso   1.000  H
  C299     1.0000 0.50000  0.16510  0.20470  Biso   1.000  C
  H91      1.0000 0.50000  0.14540  0.17830  Biso   1.000  H
  C300     1.0000 0.50000  0.22200  0.28180  Biso   1.000  C
  H92      1.0000 0.50000  0.24280  0.30710  Biso   1.000  H
  C301     1.0000 0.83490  0.50000  0.20470  Biso   1.000  C
  H93      1.0000 0.85460  0.50000  0.17830  Biso   1.000  H
  C302     1.0000 0.77800  0.50000  0.28180  Biso   1.000  C
  H94      1.0000 0.75720  0.50000  0.30710  Biso   1.000  H
  C303     1.0000 0.16510  0.50000  0.20470  Biso   1.000  C
  H95      1.0000 0.14540  0.50000  0.17830  Biso   1.000  H
  C304     1.0000 0.22200  0.50000  0.28180  Biso   1.000  C
  H96      1.0000 0.24280  0.50000  0.30710  Biso   1.000  H
  C305     1.0000 0.00000  0.83330  0.73210  Biso   1.000  C
  H97      1.0000 0.00000  0.85360  0.75780  Biso   1.000  H
  C306     1.0000 0.00000  0.77260  0.65610  Biso   1.000  C
  C307     1.0000 0.00000  0.74200  0.61900  Biso   1.000  C
  C308     1.0000 0.00000  0.16670  0.73210  Biso   1.000  C
  H98      1.0000 0.00000  0.14640  0.75780  Biso   1.000  H
  C309     1.0000 0.00000  0.22740  0.65610  Biso   1.000  C
  C310     1.0000 0.00000  0.25800  0.61900  Biso   1.000  C
  C311     1.0000 0.16670  0.00000  0.73210  Biso   1.000  C
  H99      1.0000 0.14640  0.00000  0.75780  Biso   1.000  H
  C312     1.0000 0.22740  0.00000  0.65610  Biso   1.000  C
  C313     1.0000 0.25800  0.00000  0.61900  Biso   1.000  C
  C314     1.0000 0.83330  0.00000  0.73210  Biso   1.000  C
  H100     1.0000 0.85360  0.00000  0.75780  Biso   1.000  H
  C315     1.0000 0.77260  0.00000  0.65610  Biso   1.000  C
  C316     1.0000 0.74200  0.00000  0.61900  Biso   1.000  C
  C317     1.0000 0.00000  0.83330  0.26790  Biso   1.000  C
  H101     1.0000 0.00000  0.85360  0.24220  Biso   1.000  H
  C318     1.0000 0.00000  0.77260  0.34390  Biso   1.000  C
  C319     1.0000 0.00000  0.74200  0.38100  Biso   1.000  C
  C320     1.0000 0.00000  0.16670  0.26790  Biso   1.000  C
  H102     1.0000 0.00000  0.14640  0.24220  Biso   1.000  H
  C321     1.0000 0.00000  0.22740  0.34390  Biso   1.000  C
  C322     1.0000 0.00000  0.25800  0.38100  Biso   1.000  C
  C323     1.0000 0.83330  0.00000  0.26790  Biso   1.000  C
  H103     1.0000 0.85360  0.00000  0.24220  Biso   1.000  H
  C324     1.0000 0.77260  0.00000  0.34390  Biso   1.000  C
  C325     1.0000 0.74200  0.00000  0.38100  Biso   1.000  C
  C326     1.0000 0.16670  0.00000  0.26790  Biso   1.000  C
  H104     1.0000 0.14640  0.00000  0.24220  Biso   1.000  H
  C327     1.0000 0.22740  0.00000  0.34390  Biso   1.000  C
  C328     1.0000 0.25800  0.00000  0.38100  Biso   1.000  C
  C329     1.0000 0.98740  0.71220  0.50000  Biso   1.000  C
  C330     1.0000 0.93460  0.63430  0.50000  Biso   1.000  C
  C331     1.0000 0.01260  0.28780  0.50000  Biso   1.000  C
  C332     1.0000 0.06540  0.36570  0.50000  Biso   1.000  C
  C333     1.0000 0.28780  0.98740  0.50000  Biso   1.000  C
  C334     1.0000 0.36570  0.93460  0.50000  Biso   1.000  C
  C335     1.0000 0.71220  0.01260  0.50000  Biso   1.000  C
  C336     1.0000 0.63430  0.06540  0.50000  Biso   1.000  C
  C337     1.0000 0.01260  0.71220  0.50000  Biso   1.000  C
  C338     1.0000 0.06540  0.63430  0.50000  Biso   1.000  C
  C339     1.0000 0.98740  0.28780  0.50000  Biso   1.000  C
  C340     1.0000 0.93460  0.36570  0.50000  Biso   1.000  C
  C341     1.0000 0.71220  0.98740  0.50000  Biso   1.000  C
  C342     1.0000 0.63430  0.93460  0.50000  Biso   1.000  C
  C343     1.0000 0.28780  0.01260  0.50000  Biso   1.000  C
  C344     1.0000 0.36570  0.06540  0.50000  Biso   1.000  C
  O97      1.0000 0.72714  0.33624  0.27744  Biso   1.000  O
  O98      1.0000 0.69273  0.37061  0.33729  Biso   1.000  O
  O99      1.0000 0.77645  0.45560  0.45079  Biso   1.000  O
  O100     1.0000 0.84991  0.45497  0.44989  Biso   1.000  O
  O101     1.0000 0.61622  0.31957  0.21313  Biso   1.000  O
  O102     1.0000 0.58088  0.35437  0.27206  Biso   1.000  O
  C345     1.0000 0.72607  0.35671  0.31677  Biso   1.000  C
  C346     1.0000 0.76933  0.36743  0.33928  Biso   1.000  C
  C347     1.0000 0.77167  0.39643  0.37747  Biso   1.000  C
  H105     1.0000 0.74560  0.40740  0.39140  Biso   1.000  H
  C348     1.0000 0.81177  0.40945  0.39542  Biso   1.000  C
  C349     1.0000 0.84971  0.39360  0.37553  Biso   1.000  C
  H106     1.0000 0.87710  0.40300  0.38770  Biso   1.000  H
  C350     1.0000 0.84834  0.36361  0.33730  Biso   1.000  C
  C351     1.0000 0.80723  0.35090  0.31940  Biso   1.000  C
  H107     1.0000 0.80560  0.33080  0.29350  Biso   1.000  H
  C352     1.0000 0.81281  0.44183  0.43542  Biso   1.000  C
  C353     1.0000 0.88763  0.34786  0.31610  Biso   1.000  C
  C354     1.0000 0.92050  0.33490  0.29720  Biso   1.000  C
  C355     1.0000 0.96014  0.32081  0.27630  Biso   1.000  C
  C356     1.0000 0.96100  0.29300  0.23660  Biso   1.000  C
  H108     1.0000 0.93440  0.28430  0.22210  Biso   1.000  H
  C357     1.0000 0.58198  0.33236  0.23390  Biso   1.000  C
  C358     1.0000 0.53951  0.31816  0.21292  Biso   1.000  C
  C359     1.0000 0.53906  0.28780  0.17588  Biso   1.000  C
  H109     1.0000 0.56600  0.27700  0.16370  Biso   1.000  H
  C360     1.0000 0.48480  0.21490  0.08650  Biso   1.000  C
  C361     1.0000 0.47780  0.19270  0.04320  Biso   1.000  C
  C362     1.0000 0.44860  0.15160  0.04210  Biso   1.000  C
  O103     1.0000 0.27286  0.66376  0.27744  Biso   1.000  O
  O104     1.0000 0.30727  0.62939  0.33729  Biso   1.000  O
  O105     1.0000 0.22355  0.54440  0.45079  Biso   1.000  O
  O106     1.0000 0.15009  0.54503  0.44989  Biso   1.000  O
  O107     1.0000 0.38378  0.68043  0.21313  Biso   1.000  O
  O108     1.0000 0.41912  0.64563  0.27206  Biso   1.000  O
  C363     1.0000 0.27393  0.64329  0.31677  Biso   1.000  C
  C364     1.0000 0.23067  0.63257  0.33928  Biso   1.000  C
  C365     1.0000 0.22833  0.60357  0.37747  Biso   1.000  C
  H110     1.0000 0.25440  0.59260  0.39140  Biso   1.000  H
  C366     1.0000 0.18823  0.59055  0.39542  Biso   1.000  C
  C367     1.0000 0.15029  0.60640  0.37553  Biso   1.000  C
  H111     1.0000 0.12290  0.59700  0.38770  Biso   1.000  H
  C368     1.0000 0.15166  0.63639  0.33730  Biso   1.000  C
  C369     1.0000 0.19277  0.64910  0.31940  Biso   1.000  C
  H112     1.0000 0.19440  0.66920  0.29350  Biso   1.000  H
  C370     1.0000 0.18719  0.55817  0.43542  Biso   1.000  C
  C371     1.0000 0.11237  0.65214  0.31610  Biso   1.000  C
  C372     1.0000 0.07950  0.66510  0.29720  Biso   1.000  C
  C373     1.0000 0.03986  0.67919  0.27630  Biso   1.000  C
  C374     1.0000 0.03900  0.70700  0.23660  Biso   1.000  C
  H113     1.0000 0.06560  0.71570  0.22210  Biso   1.000  H
  C375     1.0000 0.41802  0.66764  0.23390  Biso   1.000  C
  C376     1.0000 0.46049  0.68184  0.21292  Biso   1.000  C
  C377     1.0000 0.46094  0.71220  0.17588  Biso   1.000  C
  H114     1.0000 0.43400  0.72300  0.16370  Biso   1.000  H
  C378     1.0000 0.51520  0.78510  0.08650  Biso   1.000  C
  C379     1.0000 0.52220  0.80730  0.04320  Biso   1.000  C
  C380     1.0000 0.55140  0.84840  0.04210  Biso   1.000  C
  O109     1.0000 0.66376  0.72714  0.27744  Biso   1.000  O
  O110     1.0000 0.62939  0.69273  0.33729  Biso   1.000  O
  O111     1.0000 0.54440  0.77645  0.45079  Biso   1.000  O
  O112     1.0000 0.54503  0.84991  0.44989  Biso   1.000  O
  O113     1.0000 0.68043  0.61622  0.21313  Biso   1.000  O
  O114     1.0000 0.64563  0.58088  0.27206  Biso   1.000  O
  C381     1.0000 0.64329  0.72607  0.31677  Biso   1.000  C
  C382     1.0000 0.63257  0.76933  0.33928  Biso   1.000  C
  C383     1.0000 0.60357  0.77167  0.37747  Biso   1.000  C
  H115     1.0000 0.59260  0.74560  0.39140  Biso   1.000  H
  C384     1.0000 0.59055  0.81177  0.39542  Biso   1.000  C
  C385     1.0000 0.60640  0.84971  0.37553  Biso   1.000  C
  H116     1.0000 0.59700  0.87710  0.38770  Biso   1.000  H
  C386     1.0000 0.63639  0.84834  0.33730  Biso   1.000  C
  C387     1.0000 0.64910  0.80723  0.31940  Biso   1.000  C
  H117     1.0000 0.66920  0.80560  0.29350  Biso   1.000  H
  C388     1.0000 0.55817  0.81281  0.43542  Biso   1.000  C
  C389     1.0000 0.65214  0.88763  0.31610  Biso   1.000  C
  C390     1.0000 0.66510  0.92050  0.29720  Biso   1.000  C
  C391     1.0000 0.67919  0.96014  0.27630  Biso   1.000  C
  C392     1.0000 0.70700  0.96100  0.23660  Biso   1.000  C
  H118     1.0000 0.71570  0.93440  0.22210  Biso   1.000  H
  C393     1.0000 0.66764  0.58198  0.23390  Biso   1.000  C
  C394     1.0000 0.68184  0.53951  0.21292  Biso   1.000  C
  C395     1.0000 0.71220  0.53906  0.17588  Biso   1.000  C
  H119     1.0000 0.72300  0.56600  0.16370  Biso   1.000  H
  C396     1.0000 0.78510  0.48480  0.08650  Biso   1.000  C
  C397     1.0000 0.80730  0.47780  0.04320  Biso   1.000  C
  C398     1.0000 0.84840  0.44860  0.04210  Biso   1.000  C
  O115     1.0000 0.33624  0.27286  0.27744  Biso   1.000  O
  O116     1.0000 0.37061  0.30727  0.33729  Biso   1.000  O
  O117     1.0000 0.45560  0.22355  0.45079  Biso   1.000  O
  O118     1.0000 0.45497  0.15009  0.44989  Biso   1.000  O
  O119     1.0000 0.31957  0.38378  0.21313  Biso   1.000  O
  O120     1.0000 0.35437  0.41912  0.27206  Biso   1.000  O
  C399     1.0000 0.35671  0.27393  0.31677  Biso   1.000  C
  C400     1.0000 0.36743  0.23067  0.33928  Biso   1.000  C
  C401     1.0000 0.39643  0.22833  0.37747  Biso   1.000  C
  H120     1.0000 0.40740  0.25440  0.39140  Biso   1.000  H
  C402     1.0000 0.40945  0.18823  0.39542  Biso   1.000  C
  C403     1.0000 0.39360  0.15029  0.37553  Biso   1.000  C
  H121     1.0000 0.40300  0.12290  0.38770  Biso   1.000  H
  C404     1.0000 0.36361  0.15166  0.33730  Biso   1.000  C
  C405     1.0000 0.35090  0.19277  0.31940  Biso   1.000  C
  H122     1.0000 0.33080  0.19440  0.29350  Biso   1.000  H
  C406     1.0000 0.44183  0.18719  0.43542  Biso   1.000  C
  C407     1.0000 0.34786  0.11237  0.31610  Biso   1.000  C
  C408     1.0000 0.33490  0.07950  0.29720  Biso   1.000  C
  C409     1.0000 0.32081  0.03986  0.27630  Biso   1.000  C
  C410     1.0000 0.29300  0.03900  0.23660  Biso   1.000  C
  H123     1.0000 0.28430  0.06560  0.22210  Biso   1.000  H
  C411     1.0000 0.33236  0.41802  0.23390  Biso   1.000  C
  C412     1.0000 0.31816  0.46049  0.21292  Biso   1.000  C
  C413     1.0000 0.28780  0.46094  0.17588  Biso   1.000  C
  H124     1.0000 0.27700  0.43400  0.16370  Biso   1.000  H
  C414     1.0000 0.21490  0.51520  0.08650  Biso   1.000  C
  C415     1.0000 0.19270  0.52220  0.04320  Biso   1.000  C
  C416     1.0000 0.15160  0.55140  0.04210  Biso   1.000  C
  O121     1.0000 0.27286  0.33624  0.72256  Biso   1.000  O
  O122     1.0000 0.30727  0.37061  0.66271  Biso   1.000  O
  O123     1.0000 0.22355  0.45560  0.54921  Biso   1.000  O
  O124     1.0000 0.15009  0.45497  0.55011  Biso   1.000  O
  O125     1.0000 0.38378  0.31957  0.78687  Biso   1.000  O
  O126     1.0000 0.41912  0.35437  0.72794  Biso   1.000  O
  C417     1.0000 0.27393  0.35671  0.68323  Biso   1.000  C
  C418     1.0000 0.23067  0.36743  0.66072  Biso   1.000  C
  C419     1.0000 0.22833  0.39643  0.62253  Biso   1.000  C
  H125     1.0000 0.25440  0.40740  0.60860  Biso   1.000  H
  C420     1.0000 0.18823  0.40945  0.60458  Biso   1.000  C
  C421     1.0000 0.15029  0.39360  0.62447  Biso   1.000  C
  H126     1.0000 0.12290  0.40300  0.61230  Biso   1.000  H
  C422     1.0000 0.15166  0.36361  0.66270  Biso   1.000  C
  C423     1.0000 0.19277  0.35090  0.68060  Biso   1.000  C
  H127     1.0000 0.19440  0.33080  0.70650  Biso   1.000  H
  C424     1.0000 0.18719  0.44183  0.56458  Biso   1.000  C
  C425     1.0000 0.11237  0.34786  0.68390  Biso   1.000  C
  C426     1.0000 0.07950  0.33490  0.70280  Biso   1.000  C
  C427     1.0000 0.03986  0.32081  0.72370  Biso   1.000  C
  C428     1.0000 0.03900  0.29300  0.76340  Biso   1.000  C
  H128     1.0000 0.06560  0.28430  0.77790  Biso   1.000  H
  C429     1.0000 0.41802  0.33236  0.76610  Biso   1.000  C
  C430     1.0000 0.46049  0.31816  0.78708  Biso   1.000  C
  C431     1.0000 0.46094  0.28780  0.82412  Biso   1.000  C
  H129     1.0000 0.43400  0.27700  0.83630  Biso   1.000  H
  C432     1.0000 0.51520  0.21490  0.91350  Biso   1.000  C
  C433     1.0000 0.52220  0.19270  0.95680  Biso   1.000  C
  C434     1.0000 0.55140  0.15160  0.95790  Biso   1.000  C
  O127     1.0000 0.72714  0.66376  0.72256  Biso   1.000  O
  O128     1.0000 0.69273  0.62939  0.66271  Biso   1.000  O
  O129     1.0000 0.77645  0.54440  0.54921  Biso   1.000  O
  O130     1.0000 0.84991  0.54503  0.55011  Biso   1.000  O
  O131     1.0000 0.61622  0.68043  0.78687  Biso   1.000  O
  O132     1.0000 0.58088  0.64563  0.72794  Biso   1.000  O
  C435     1.0000 0.72607  0.64329  0.68323  Biso   1.000  C
  C436     1.0000 0.76933  0.63257  0.66072  Biso   1.000  C
  C437     1.0000 0.77167  0.60357  0.62253  Biso   1.000  C
  H130     1.0000 0.74560  0.59260  0.60860  Biso   1.000  H
  C438     1.0000 0.81177  0.59055  0.60458  Biso   1.000  C
  C439     1.0000 0.84971  0.60640  0.62447  Biso   1.000  C
  H131     1.0000 0.87710  0.59700  0.61230  Biso   1.000  H
  C440     1.0000 0.84834  0.63639  0.66270  Biso   1.000  C
  C441     1.0000 0.80723  0.64910  0.68060  Biso   1.000  C
  H132     1.0000 0.80560  0.66920  0.70650  Biso   1.000  H
  C442     1.0000 0.81281  0.55817  0.56458  Biso   1.000  C
  C443     1.0000 0.88763  0.65214  0.68390  Biso   1.000  C
  C444     1.0000 0.92050  0.66510  0.70280  Biso   1.000  C
  C445     1.0000 0.96014  0.67919  0.72370  Biso   1.000  C
  C446     1.0000 0.96100  0.70700  0.76340  Biso   1.000  C
  H133     1.0000 0.93440  0.71570  0.77790  Biso   1.000  H
  C447     1.0000 0.58198  0.66764  0.76610  Biso   1.000  C
  C448     1.0000 0.53951  0.68184  0.78708  Biso   1.000  C
  C449     1.0000 0.53906  0.71220  0.82412  Biso   1.000  C
  H134     1.0000 0.56600  0.72300  0.83630  Biso   1.000  H
  C450     1.0000 0.48480  0.78510  0.91350  Biso   1.000  C
  C451     1.0000 0.47780  0.80730  0.95680  Biso   1.000  C
  C452     1.0000 0.44860  0.84840  0.95790  Biso   1.000  C
  O133     1.0000 0.33624  0.72714  0.72256  Biso   1.000  O
  O134     1.0000 0.37061  0.69273  0.66271  Biso   1.000  O
  O135     1.0000 0.45560  0.77645  0.54921  Biso   1.000  O
  O136     1.0000 0.45497  0.84991  0.55011  Biso   1.000  O
  O137     1.0000 0.31957  0.61622  0.78687  Biso   1.000  O
  O138     1.0000 0.35437  0.58088  0.72794  Biso   1.000  O
  C453     1.0000 0.35671  0.72607  0.68323  Biso   1.000  C
  C454     1.0000 0.36743  0.76933  0.66072  Biso   1.000  C
  C455     1.0000 0.39643  0.77167  0.62253  Biso   1.000  C
  H135     1.0000 0.40740  0.74560  0.60860  Biso   1.000  H
  C456     1.0000 0.40945  0.81177  0.60458  Biso   1.000  C
  C457     1.0000 0.39360  0.84971  0.62447  Biso   1.000  C
  H136     1.0000 0.40300  0.87710  0.61230  Biso   1.000  H
  C458     1.0000 0.36361  0.84834  0.66270  Biso   1.000  C
  C459     1.0000 0.35090  0.80723  0.68060  Biso   1.000  C
  H137     1.0000 0.33080  0.80560  0.70650  Biso   1.000  H
  C460     1.0000 0.44183  0.81281  0.56458  Biso   1.000  C
  C461     1.0000 0.34786  0.88763  0.68390  Biso   1.000  C
  C462     1.0000 0.33490  0.92050  0.70280  Biso   1.000  C
  C463     1.0000 0.32081  0.96014  0.72370  Biso   1.000  C
  C464     1.0000 0.29300  0.96100  0.76340  Biso   1.000  C
  H138     1.0000 0.28430  0.93440  0.77790  Biso   1.000  H
  C465     1.0000 0.33236  0.58198  0.76610  Biso   1.000  C
  C466     1.0000 0.31816  0.53951  0.78708  Biso   1.000  C
  C467     1.0000 0.28780  0.53906  0.82412  Biso   1.000  C
  H139     1.0000 0.27700  0.56600  0.83630  Biso   1.000  H
  C468     1.0000 0.21490  0.48480  0.91350  Biso   1.000  C
  C469     1.0000 0.19270  0.47780  0.95680  Biso   1.000  C
  C470     1.0000 0.15160  0.44860  0.95790  Biso   1.000  C
  O139     1.0000 0.66376  0.27286  0.72256  Biso   1.000  O
  O140     1.0000 0.62939  0.30727  0.66271  Biso   1.000  O
  O141     1.0000 0.54440  0.22355  0.54921  Biso   1.000  O
  O142     1.0000 0.54503  0.15009  0.55011  Biso   1.000  O
  O143     1.0000 0.68043  0.38378  0.78687  Biso   1.000  O
  O144     1.0000 0.64563  0.41912  0.72794  Biso   1.000  O
  C471     1.0000 0.64329  0.27393  0.68323  Biso   1.000  C
  C472     1.0000 0.63257  0.23067  0.66072  Biso   1.000  C
  C473     1.0000 0.60357  0.22833  0.62253  Biso   1.000  C
  H140     1.0000 0.59260  0.25440  0.60860  Biso   1.000  H
  C474     1.0000 0.59055  0.18823  0.60458  Biso   1.000  C
  C475     1.0000 0.60640  0.15029  0.62447  Biso   1.000  C
  H141     1.0000 0.59700  0.12290  0.61230  Biso   1.000  H
  C476     1.0000 0.63639  0.15166  0.66270  Biso   1.000  C
  C477     1.0000 0.64910  0.19277  0.68060  Biso   1.000  C
  H142     1.0000 0.66920  0.19440  0.70650  Biso   1.000  H
  C478     1.0000 0.55817  0.18719  0.56458  Biso   1.000  C
  C479     1.0000 0.65214  0.11237  0.68390  Biso   1.000  C
  C480     1.0000 0.66510  0.07950  0.70280  Biso   1.000  C
  C481     1.0000 0.67919  0.03986  0.72370  Biso   1.000  C
  C482     1.0000 0.70700  0.03900  0.76340  Biso   1.000  C
  H143     1.0000 0.71570  0.06560  0.77790  Biso   1.000  H
  C483     1.0000 0.66764  0.41802  0.76610  Biso   1.000  C
  C484     1.0000 0.68184  0.46049  0.78708  Biso   1.000  C
  C485     1.0000 0.71220  0.46094  0.82412  Biso   1.000  C
  H144     1.0000 0.72300  0.43400  0.83630  Biso   1.000  H
  C486     1.0000 0.78510  0.51520  0.91350  Biso   1.000  C
  C487     1.0000 0.80730  0.52220  0.95680  Biso   1.000  C
  C488     1.0000 0.84840  0.55140  0.95790  Biso   1.000  C
  O145     1.0000 0.27286  0.66376  0.72256  Biso   1.000  O
  O146     1.0000 0.30727  0.62939  0.66271  Biso   1.000  O
  O147     1.0000 0.22355  0.54440  0.54921  Biso   1.000  O
  O148     1.0000 0.15009  0.54503  0.55011  Biso   1.000  O
  O149     1.0000 0.38378  0.68043  0.78687  Biso   1.000  O
  O150     1.0000 0.41912  0.64563  0.72794  Biso   1.000  O
  C489     1.0000 0.27393  0.64329  0.68323  Biso   1.000  C
  C490     1.0000 0.23067  0.63257  0.66072  Biso   1.000  C
  C491     1.0000 0.22833  0.60357  0.62253  Biso   1.000  C
  H145     1.0000 0.25440  0.59260  0.60860  Biso   1.000  H
  C492     1.0000 0.18823  0.59055  0.60458  Biso   1.000  C
  C493     1.0000 0.15029  0.60640  0.62447  Biso   1.000  C
  H146     1.0000 0.12290  0.59700  0.61230  Biso   1.000  H
  C494     1.0000 0.15166  0.63639  0.66270  Biso   1.000  C
  C495     1.0000 0.19277  0.64910  0.68060  Biso   1.000  C
  H147     1.0000 0.19440  0.66920  0.70650  Biso   1.000  H
  C496     1.0000 0.18719  0.55817  0.56458  Biso   1.000  C
  C497     1.0000 0.11237  0.65214  0.68390  Biso   1.000  C
  C498     1.0000 0.07950  0.66510  0.70280  Biso   1.000  C
  C499     1.0000 0.03986  0.67919  0.72370  Biso   1.000  C
  C500     1.0000 0.03900  0.70700  0.76340  Biso   1.000  C
  H148     1.0000 0.06560  0.71570  0.77790  Biso   1.000  H
  C501     1.0000 0.41802  0.66764  0.76610  Biso   1.000  C
  C502     1.0000 0.46049  0.68184  0.78708  Biso   1.000  C
  C503     1.0000 0.46094  0.71220  0.82412  Biso   1.000  C
  H149     1.0000 0.43400  0.72300  0.83630  Biso   1.000  H
  C504     1.0000 0.51520  0.78510  0.91350  Biso   1.000  C
  C505     1.0000 0.52220  0.80730  0.95680  Biso   1.000  C
  C506     1.0000 0.55140  0.84840  0.95790  Biso   1.000  C
  O151     1.0000 0.72714  0.33624  0.72256  Biso   1.000  O
  O152     1.0000 0.69273  0.37061  0.66271  Biso   1.000  O
  O153     1.0000 0.77645  0.45560  0.54921  Biso   1.000  O
  O154     1.0000 0.84991  0.45497  0.55011  Biso   1.000  O
  O155     1.0000 0.61622  0.31957  0.78687  Biso   1.000  O
  O156     1.0000 0.58088  0.35437  0.72794  Biso   1.000  O
  C507     1.0000 0.72607  0.35671  0.68323  Biso   1.000  C
  C508     1.0000 0.76933  0.36743  0.66072  Biso   1.000  C
  C509     1.0000 0.77167  0.39643  0.62253  Biso   1.000  C
  H150     1.0000 0.74560  0.40740  0.60860  Biso   1.000  H
  C510     1.0000 0.81177  0.40945  0.60458  Biso   1.000  C
  C511     1.0000 0.84971  0.39360  0.62447  Biso   1.000  C
  H151     1.0000 0.87710  0.40300  0.61230  Biso   1.000  H
  C512     1.0000 0.84834  0.36361  0.66270  Biso   1.000  C
  C513     1.0000 0.80723  0.35090  0.68060  Biso   1.000  C
  H152     1.0000 0.80560  0.33080  0.70650  Biso   1.000  H
  C514     1.0000 0.81281  0.44183  0.56458  Biso   1.000  C
  C515     1.0000 0.88763  0.34786  0.68390  Biso   1.000  C
  C516     1.0000 0.92050  0.33490  0.70280  Biso   1.000  C
  C517     1.0000 0.96014  0.32081  0.72370  Biso   1.000  C
  C518     1.0000 0.96100  0.29300  0.76340  Biso   1.000  C
  H153     1.0000 0.93440  0.28430  0.77790  Biso   1.000  H
  C519     1.0000 0.58198  0.33236  0.76610  Biso   1.000  C
  C520     1.0000 0.53951  0.31816  0.78708  Biso   1.000  C
  C521     1.0000 0.53906  0.28780  0.82412  Biso   1.000  C
  H154     1.0000 0.56600  0.27700  0.83630  Biso   1.000  H
  C522     1.0000 0.48480  0.21490  0.91350  Biso   1.000  C
  C523     1.0000 0.47780  0.19270  0.95680  Biso   1.000  C
  C524     1.0000 0.44860  0.15160  0.95790  Biso   1.000  C
  O157     1.0000 0.33624  0.27286  0.72256  Biso   1.000  O
  O158     1.0000 0.37061  0.30727  0.66271  Biso   1.000  O
  O159     1.0000 0.45560  0.22355  0.54921  Biso   1.000  O
  O160     1.0000 0.45497  0.15009  0.55011  Biso   1.000  O
  O161     1.0000 0.31957  0.38378  0.78687  Biso   1.000  O
  O162     1.0000 0.35437  0.41912  0.72794  Biso   1.000  O
  C525     1.0000 0.35671  0.27393  0.68323  Biso   1.000  C
  C526     1.0000 0.36743  0.23067  0.66072  Biso   1.000  C
  C527     1.0000 0.39643  0.22833  0.62253  Biso   1.000  C
  H155     1.0000 0.40740  0.25440  0.60860  Biso   1.000  H
  C528     1.0000 0.40945  0.18823  0.60458  Biso   1.000  C
  C529     1.0000 0.39360  0.15029  0.62447  Biso   1.000  C
  H156     1.0000 0.40300  0.12290  0.61230  Biso   1.000  H
  C530     1.0000 0.36361  0.15166  0.66270  Biso   1.000  C
  C531     1.0000 0.35090  0.19277  0.68060  Biso   1.000  C
  H157     1.0000 0.33080  0.19440  0.70650  Biso   1.000  H
  C532     1.0000 0.44183  0.18719  0.56458  Biso   1.000  C
  C533     1.0000 0.34786  0.11237  0.68390  Biso   1.000  C
  C534     1.0000 0.33490  0.07950  0.70280  Biso   1.000  C
  C535     1.0000 0.32081  0.03986  0.72370  Biso   1.000  C
  C536     1.0000 0.29300  0.03900  0.76340  Biso   1.000  C
  H158     1.0000 0.28430  0.06560  0.77790  Biso   1.000  H
  C537     1.0000 0.33236  0.41802  0.76610  Biso   1.000  C
  C538     1.0000 0.31816  0.46049  0.78708  Biso   1.000  C
  C539     1.0000 0.28780  0.46094  0.82412  Biso   1.000  C
  H159     1.0000 0.27700  0.43400  0.83630  Biso   1.000  H
  C540     1.0000 0.21490  0.51520  0.91350  Biso   1.000  C
  C541     1.0000 0.19270  0.52220  0.95680  Biso   1.000  C
  C542     1.0000 0.15160  0.55140  0.95790  Biso   1.000  C
  O163     1.0000 0.66376  0.72714  0.72256  Biso   1.000  O
  O164     1.0000 0.62939  0.69273  0.66271  Biso   1.000  O
  O165     1.0000 0.54440  0.77645  0.54921  Biso   1.000  O
  O166     1.0000 0.54503  0.84991  0.55011  Biso   1.000  O
  O167     1.0000 0.68043  0.61622  0.78687  Biso   1.000  O
  O168     1.0000 0.64563  0.58088  0.72794  Biso   1.000  O
  C543     1.0000 0.64329  0.72607  0.68323  Biso   1.000  C
  C544     1.0000 0.63257  0.76933  0.66072  Biso   1.000  C
  C545     1.0000 0.60357  0.77167  0.62253  Biso   1.000  C
  H160     1.0000 0.59260  0.74560  0.60860  Biso   1.000  H
  C546     1.0000 0.59055  0.81177  0.60458  Biso   1.000  C
  C547     1.0000 0.60640  0.84971  0.62447  Biso   1.000  C
  H161     1.0000 0.59700  0.87710  0.61230  Biso   1.000  H
  C548     1.0000 0.63639  0.84834  0.66270  Biso   1.000  C
  C549     1.0000 0.64910  0.80723  0.68060  Biso   1.000  C
  H162     1.0000 0.66920  0.80560  0.70650  Biso   1.000  H
  C550     1.0000 0.55817  0.81281  0.56458  Biso   1.000  C
  C551     1.0000 0.65214  0.88763  0.68390  Biso   1.000  C
  C552     1.0000 0.66510  0.92050  0.70280  Biso   1.000  C
  C553     1.0000 0.67919  0.96014  0.72370  Biso   1.000  C
  C554     1.0000 0.70700  0.96100  0.76340  Biso   1.000  C
  H163     1.0000 0.71570  0.93440  0.77790  Biso   1.000  H
  C555     1.0000 0.66764  0.58198  0.76610  Biso   1.000  C
  C556     1.0000 0.68184  0.53951  0.78708  Biso   1.000  C
  C557     1.0000 0.71220  0.53906  0.82412  Biso   1.000  C
  H164     1.0000 0.72300  0.56600  0.83630  Biso   1.000  H
  C558     1.0000 0.78510  0.48480  0.91350  Biso   1.000  C
  C559     1.0000 0.80730  0.47780  0.95680  Biso   1.000  C
  C560     1.0000 0.84840  0.44860  0.95790  Biso   1.000  C
  O169     1.0000 0.72714  0.66376  0.27744  Biso   1.000  O
  O170     1.0000 0.69273  0.62939  0.33729  Biso   1.000  O
  O171     1.0000 0.77645  0.54440  0.45079  Biso   1.000  O
  O172     1.0000 0.84991  0.54503  0.44989  Biso   1.000  O
  O173     1.0000 0.61622  0.68043  0.21313  Biso   1.000  O
  O174     1.0000 0.58088  0.64563  0.27206  Biso   1.000  O
  C561     1.0000 0.72607  0.64329  0.31677  Biso   1.000  C
  C562     1.0000 0.76933  0.63257  0.33928  Biso   1.000  C
  C563     1.0000 0.77167  0.60357  0.37747  Biso   1.000  C
  H165     1.0000 0.74560  0.59260  0.39140  Biso   1.000  H
  C564     1.0000 0.81177  0.59055  0.39542  Biso   1.000  C
  C565     1.0000 0.84971  0.60640  0.37553  Biso   1.000  C
  H166     1.0000 0.87710  0.59700  0.38770  Biso   1.000  H
  C566     1.0000 0.84834  0.63639  0.33730  Biso   1.000  C
  C567     1.0000 0.80723  0.64910  0.31940  Biso   1.000  C
  H167     1.0000 0.80560  0.66920  0.29350  Biso   1.000  H
  C568     1.0000 0.81281  0.55817  0.43542  Biso   1.000  C
  C569     1.0000 0.88763  0.65214  0.31610  Biso   1.000  C
  C570     1.0000 0.92050  0.66510  0.29720  Biso   1.000  C
  C571     1.0000 0.96014  0.67919  0.27630  Biso   1.000  C
  C572     1.0000 0.96100  0.70700  0.23660  Biso   1.000  C
  H168     1.0000 0.93440  0.71570  0.22210  Biso   1.000  H
  C573     1.0000 0.58198  0.66764  0.23390  Biso   1.000  C
  C574     1.0000 0.53951  0.68184  0.21292  Biso   1.000  C
  C575     1.0000 0.53906  0.71220  0.17588  Biso   1.000  C
  H169     1.0000 0.56600  0.72300  0.16370  Biso   1.000  H
  C576     1.0000 0.48480  0.78510  0.08650  Biso   1.000  C
  C577     1.0000 0.47780  0.80730  0.04320  Biso   1.000  C
  C578     1.0000 0.44860  0.84840  0.04210  Biso   1.000  C
  O175     1.0000 0.27286  0.33624  0.27744  Biso   1.000  O
  O176     1.0000 0.30727  0.37061  0.33729  Biso   1.000  O
  O177     1.0000 0.22355  0.45560  0.45079  Biso   1.000  O
  O178     1.0000 0.15009  0.45497  0.44989  Biso   1.000  O
  O179     1.0000 0.38378  0.31957  0.21313  Biso   1.000  O
  O180     1.0000 0.41912  0.35437  0.27206  Biso   1.000  O
  C579     1.0000 0.27393  0.35671  0.31677  Biso   1.000  C
  C580     1.0000 0.23067  0.36743  0.33928  Biso   1.000  C
  C581     1.0000 0.22833  0.39643  0.37747  Biso   1.000  C
  H170     1.0000 0.25440  0.40740  0.39140  Biso   1.000  H
  C582     1.0000 0.18823  0.40945  0.39542  Biso   1.000  C
  C583     1.0000 0.15029  0.39360  0.37553  Biso   1.000  C
  H171     1.0000 0.12290  0.40300  0.38770  Biso   1.000  H
  C584     1.0000 0.15166  0.36361  0.33730  Biso   1.000  C
  C585     1.0000 0.19277  0.35090  0.31940  Biso   1.000  C
  H172     1.0000 0.19440  0.33080  0.29350  Biso   1.000  H
  C586     1.0000 0.18719  0.44183  0.43542  Biso   1.000  C
  C587     1.0000 0.11237  0.34786  0.31610  Biso   1.000  C
  C588     1.0000 0.07950  0.33490  0.29720  Biso   1.000  C
  C589     1.0000 0.03986  0.32081  0.27630  Biso   1.000  C
  C590     1.0000 0.03900  0.29300  0.23660  Biso   1.000  C
  H173     1.0000 0.06560  0.28430  0.22210  Biso   1.000  H
  C591     1.0000 0.41802  0.33236  0.23390  Biso   1.000  C
  C592     1.0000 0.46049  0.31816  0.21292  Biso   1.000  C
  C593     1.0000 0.46094  0.28780  0.17588  Biso   1.000  C
  H174     1.0000 0.43400  0.27700  0.16370  Biso   1.000  H
  C594     1.0000 0.51520  0.21490  0.08650  Biso   1.000  C
  C595     1.0000 0.52220  0.19270  0.04320  Biso   1.000  C
  C596     1.0000 0.55140  0.15160  0.04210  Biso   1.000  C
  O181     1.0000 0.66376  0.27286  0.27744  Biso   1.000  O
  O182     1.0000 0.62939  0.30727  0.33729  Biso   1.000  O
  O183     1.0000 0.54440  0.22355  0.45079  Biso   1.000  O
  O184     1.0000 0.54503  0.15009  0.44989  Biso   1.000  O
  O185     1.0000 0.68043  0.38378  0.21313  Biso   1.000  O
  O186     1.0000 0.64563  0.41912  0.27206  Biso   1.000  O
  C597     1.0000 0.64329  0.27393  0.31677  Biso   1.000  C
  C598     1.0000 0.63257  0.23067  0.33928  Biso   1.000  C
  C599     1.0000 0.60357  0.22833  0.37747  Biso   1.000  C
  H175     1.0000 0.59260  0.25440  0.39140  Biso   1.000  H
  C600     1.0000 0.59055  0.18823  0.39542  Biso   1.000  C
  C601     1.0000 0.60640  0.15029  0.37553  Biso   1.000  C
  H176     1.0000 0.59700  0.12290  0.38770  Biso   1.000  H
  C602     1.0000 0.63639  0.15166  0.33730  Biso   1.000  C
  C603     1.0000 0.64910  0.19277  0.31940  Biso   1.000  C
  H177     1.0000 0.66920  0.19440  0.29350  Biso   1.000  H
  C604     1.0000 0.55817  0.18719  0.43542  Biso   1.000  C
  C605     1.0000 0.65214  0.11237  0.31610  Biso   1.000  C
  C606     1.0000 0.66510  0.07950  0.29720  Biso   1.000  C
  C607     1.0000 0.67919  0.03986  0.27630  Biso   1.000  C
  C608     1.0000 0.70700  0.03900  0.23660  Biso   1.000  C
  H178     1.0000 0.71570  0.06560  0.22210  Biso   1.000  H
  C609     1.0000 0.66764  0.41802  0.23390  Biso   1.000  C
  C610     1.0000 0.68184  0.46049  0.21292  Biso   1.000  C
  C611     1.0000 0.71220  0.46094  0.17588  Biso   1.000  C
  H179     1.0000 0.72300  0.43400  0.16370  Biso   1.000  H
  C612     1.0000 0.78510  0.51520  0.08650  Biso   1.000  C
  C613     1.0000 0.80730  0.52220  0.04320  Biso   1.000  C
  C614     1.0000 0.84840  0.55140  0.04210  Biso   1.000  C
  O187     1.0000 0.33624  0.72714  0.27744  Biso   1.000  O
  O188     1.0000 0.37061  0.69273  0.33729  Biso   1.000  O
  O189     1.0000 0.45560  0.77645  0.45079  Biso   1.000  O
  O190     1.0000 0.45497  0.84991  0.44989  Biso   1.000  O
  O191     1.0000 0.31957  0.61622  0.21313  Biso   1.000  O
  O192     1.0000 0.35437  0.58088  0.27206  Biso   1.000  O
  C615     1.0000 0.35671  0.72607  0.31677  Biso   1.000  C
  C616     1.0000 0.36743  0.76933  0.33928  Biso   1.000  C
  C617     1.0000 0.39643  0.77167  0.37747  Biso   1.000  C
  H180     1.0000 0.40740  0.74560  0.39140  Biso   1.000  H
  C618     1.0000 0.40945  0.81177  0.39542  Biso   1.000  C
  C619     1.0000 0.39360  0.84971  0.37553  Biso   1.000  C
  H181     1.0000 0.40300  0.87710  0.38770  Biso   1.000  H
  C620     1.0000 0.36361  0.84834  0.33730  Biso   1.000  C
  C621     1.0000 0.35090  0.80723  0.31940  Biso   1.000  C
  H182     1.0000 0.33080  0.80560  0.29350  Biso   1.000  H
  C622     1.0000 0.44183  0.81281  0.43542  Biso   1.000  C
  C623     1.0000 0.34786  0.88763  0.31610  Biso   1.000  C
  C624     1.0000 0.33490  0.92050  0.29720  Biso   1.000  C
  C625     1.0000 0.32081  0.96014  0.27630  Biso   1.000  C
  C626     1.0000 0.29300  0.96100  0.23660  Biso   1.000  C
  H183     1.0000 0.28430  0.93440  0.22210  Biso   1.000  H
  C627     1.0000 0.33236  0.58198  0.23390  Biso   1.000  C
  C628     1.0000 0.31816  0.53951  0.21292  Biso   1.000  C
  C629     1.0000 0.28780  0.53906  0.17588  Biso   1.000  C
  H184     1.0000 0.27700  0.56600  0.16370  Biso   1.000  H
  C630     1.0000 0.21490  0.48480  0.08650  Biso   1.000  C
  C631     1.0000 0.19270  0.47780  0.04320  Biso   1.000  C
  C632     1.0000 0.15160  0.44860  0.04210  Biso   1.000  C
  Cu25     1.0000 0.67514  0.32486  0.23940  Biso   1.000  Cu
  Cu26     1.0000 0.63376  0.36624  0.30999  Biso   1.000  Cu
  Cu27     1.0000 0.32486  0.67514  0.23940  Biso   1.000  Cu
  Cu28     1.0000 0.36624  0.63376  0.30999  Biso   1.000  Cu
  Cu29     1.0000 0.67514  0.67514  0.23940  Biso   1.000  Cu
  Cu30     1.0000 0.63376  0.63376  0.30999  Biso   1.000  Cu
  Cu31     1.0000 0.32486  0.32486  0.23940  Biso   1.000  Cu
  Cu32     1.0000 0.36624  0.36624  0.30999  Biso   1.000  Cu
  Cu33     1.0000 0.32486  0.32486  0.76060  Biso   1.000  Cu
  Cu34     1.0000 0.36624  0.36624  0.69001  Biso   1.000  Cu
  Cu35     1.0000 0.67514  0.67514  0.76060  Biso   1.000  Cu
  Cu36     1.0000 0.63376  0.63376  0.69001  Biso   1.000  Cu
  Cu37     1.0000 0.32486  0.67514  0.76060  Biso   1.000  Cu
  Cu38     1.0000 0.36624  0.63376  0.69001  Biso   1.000  Cu
  Cu39     1.0000 0.67514  0.32486  0.76060  Biso   1.000  Cu
  Cu40     1.0000 0.63376  0.36624  0.69001  Biso   1.000  Cu
  Cu41     1.0000 0.85700  0.50000  0.50000  Biso   1.000  Cu
  Cu42     1.0000 0.77020  0.50000  0.50000  Biso   1.000  Cu
  Cu43     1.0000 0.14300  0.50000  0.50000  Biso   1.000  Cu
  Cu44     1.0000 0.22980  0.50000  0.50000  Biso   1.000  Cu
  Cu45     1.0000 0.50000  0.85700  0.50000  Biso   1.000  Cu
  Cu46     1.0000 0.50000  0.77020  0.50000  Biso   1.000  Cu
  Cu47     1.0000 0.50000  0.14300  0.50000  Biso   1.000  Cu
  Cu48     1.0000 0.50000  0.22980  0.50000  Biso   1.000  Cu
  C633     1.0000 0.00000  0.33490  0.29530  Biso   1.000  C
  H185     1.0000 0.00000  0.35460  0.32170  Biso   1.000  H
  C634     1.0000 0.00000  0.27800  0.21820  Biso   1.000  C
  H186     1.0000 0.00000  0.25720  0.19290  Biso   1.000  H
  C635     1.0000 0.00000  0.66510  0.29530  Biso   1.000  C
  H187     1.0000 0.00000  0.64540  0.32170  Biso   1.000  H
  C636     1.0000 0.00000  0.72200  0.21820  Biso   1.000  C
  H188     1.0000 0.00000  0.74280  0.19290  Biso   1.000  H
  C637     1.0000 0.66510  0.00000  0.29530  Biso   1.000  C
  H189     1.0000 0.64540  0.00000  0.32170  Biso   1.000  H
  C638     1.0000 0.72200  0.00000  0.21820  Biso   1.000  C
  H190     1.0000 0.74280  0.00000  0.19290  Biso   1.000  H
  C639     1.0000 0.33490  0.00000  0.29530  Biso   1.000  C
  H191     1.0000 0.35460  0.00000  0.32170  Biso   1.000  H
  C640     1.0000 0.27800  0.00000  0.21820  Biso   1.000  C
  H192     1.0000 0.25720  0.00000  0.19290  Biso   1.000  H
  C641     1.0000 0.00000  0.33490  0.70470  Biso   1.000  C
  H193     1.0000 0.00000  0.35460  0.67830  Biso   1.000  H
  C642     1.0000 0.00000  0.27800  0.78180  Biso   1.000  C
  H194     1.0000 0.00000  0.25720  0.80710  Biso   1.000  H
  C643     1.0000 0.00000  0.66510  0.70470  Biso   1.000  C
  H195     1.0000 0.00000  0.64540  0.67830  Biso   1.000  H
  C644     1.0000 0.00000  0.72200  0.78180  Biso   1.000  C
  H196     1.0000 0.00000  0.74280  0.80710  Biso   1.000  H
  C645     1.0000 0.33490  0.00000  0.70470  Biso   1.000  C
  H197     1.0000 0.35460  0.00000  0.67830  Biso   1.000  H
  C646     1.0000 0.27800  0.00000  0.78180  Biso   1.000  C
  H198     1.0000 0.25720  0.00000  0.80710  Biso   1.000  H
  C647     1.0000 0.66510  0.00000  0.70470  Biso   1.000  C
  H199     1.0000 0.64540  0.00000  0.67830  Biso   1.000  H
  C648     1.0000 0.72200  0.00000  0.78180  Biso   1.000  C
  H200     1.0000 0.74280  0.00000  0.80710  Biso   1.000  H
  C649     1.0000 0.50000  0.33330  0.23210  Biso   1.000  C
  H201     1.0000 0.50000  0.35360  0.25780  Biso   1.000  H
  C650     1.0000 0.50000  0.27260  0.15610  Biso   1.000  C
  C651     1.0000 0.50000  0.24200  0.11900  Biso   1.000  C
  C652     1.0000 0.50000  0.66670  0.23210  Biso   1.000  C
  H202     1.0000 0.50000  0.64640  0.25780  Biso   1.000  H
  C653     1.0000 0.50000  0.72740  0.15610  Biso   1.000  C
  C654     1.0000 0.50000  0.75800  0.11900  Biso   1.000  C
  C655     1.0000 0.66670  0.50000  0.23210  Biso   1.000  C
  H203     1.0000 0.64640  0.50000  0.25780  Biso   1.000  H
  C656     1.0000 0.72740  0.50000  0.15610  Biso   1.000  C
  C657     1.0000 0.75800  0.50000  0.11900  Biso   1.000  C
  C658     1.0000 0.33330  0.50000  0.23210  Biso   1.000  C
  H204     1.0000 0.35360  0.50000  0.25780  Biso   1.000  H
  C659     1.0000 0.27260  0.50000  0.15610  Biso   1.000  C
  C660     1.0000 0.24200  0.50000  0.11900  Biso   1.000  C
  C661     1.0000 0.50000  0.33330  0.76790  Biso   1.000  C
  H205     1.0000 0.50000  0.35360  0.74220  Biso   1.000  H
  C662     1.0000 0.50000  0.27260  0.84390  Biso   1.000  C
  C663     1.0000 0.50000  0.24200  0.88100  Biso   1.000  C
  C664     1.0000 0.50000  0.66670  0.76790  Biso   1.000  C
  H206     1.0000 0.50000  0.64640  0.74220  Biso   1.000  H
  C665     1.0000 0.50000  0.72740  0.84390  Biso   1.000  C
  C666     1.0000 0.50000  0.75800  0.88100  Biso   1.000  C
  C667     1.0000 0.33330  0.50000  0.76790  Biso   1.000  C
  H207     1.0000 0.35360  0.50000  0.74220  Biso   1.000  H
  C668     1.0000 0.27260  0.50000  0.84390  Biso   1.000  C
  C669     1.0000 0.24200  0.50000  0.88100  Biso   1.000  C
  C670     1.0000 0.66670  0.50000  0.76790  Biso   1.000  C
  H208     1.0000 0.64640  0.50000  0.74220  Biso   1.000  H
  C671     1.0000 0.72740  0.50000  0.84390  Biso   1.000  C
  C672     1.0000 0.75800  0.50000  0.88100  Biso   1.000  C
  C673     1.0000 0.48740  0.21220  0.00000  Biso   1.000  C
  C674     1.0000 0.43460  0.13430  0.00000  Biso   1.000  C
  C675     1.0000 0.51260  0.78780  0.00000  Biso   1.000  C
  C676     1.0000 0.56540  0.86570  0.00000  Biso   1.000  C
  C677     1.0000 0.78780  0.48740  0.00000  Biso   1.000  C
  C678     1.0000 0.86570  0.43460  0.00000  Biso   1.000  C
  C679     1.0000 0.21220  0.51260  0.00000  Biso   1.000  C
  C680     1.0000 0.13430  0.56540  0.00000  Biso   1.000  C
  C681     1.0000 0.51260  0.21220  0.00000  Biso   1.000  C
  C682     1.0000 0.56540  0.13430  0.00000  Biso   1.000  C
  C683     1.0000 0.48740  0.78780  0.00000  Biso   1.000  C
  C684     1.0000 0.43460  0.86570  0.00000  Biso   1.000  C
  C685     1.0000 0.21220  0.48740  0.00000  Biso   1.000  C
  C686     1.0000 0.13430  0.43460  0.00000  Biso   1.000  C
  C687     1.0000 0.78780  0.51260  0.00000  Biso   1.000  C
  C688     1.0000 0.86570  0.56540  0.00000  Biso   1.000  C
