data_image0
_cell_length_a       39.273
_cell_length_b       27.4978
_cell_length_c       27.3722
_cell_angle_alpha    90
_cell_angle_beta     134.278
_cell_angle_gamma    90

_symmetry_space_group_name_H-M    "P 1"
_symmetry_int_tables_number       1

loop_
  _symmetry_equiv_pos_as_xyz
  'x, y, z'

loop_
  _atom_site_label
  _atom_site_occupancy
  _atom_site_fract_x
  _atom_site_fract_y
  _atom_site_fract_z
  _atom_site_thermal_displace_type
  _atom_site_B_iso_or_equiv
  _atom_site_type_symbol
  C1       1.0000 0.09970  0.69780  0.03110  Biso   1.000  C
  C2       1.0000 0.09930  0.66430  0.07220  Biso   1.000  C
  C3       1.0000 0.14030  0.64400  0.13070  Biso   1.000  C
  H1       1.0000 0.16860  0.64850  0.14210  Biso   1.000  H
  C4       1.0000 0.14030  0.61770  0.17170  Biso   1.000  C
  H2       1.0000 0.17000  0.61000  0.21430  Biso   1.000  H
  C5       1.0000 0.10410  0.60200  0.15890  Biso   1.000  C
  C6       1.0000 0.05540  0.61530  0.08860  Biso   1.000  C
  H3       1.0000 0.02710  0.60240  0.07220  Biso   1.000  H
  C7       1.0000 0.05680  0.65040  0.04880  Biso   1.000  C
  H4       1.0000 0.02860  0.66290  0.00790  Biso   1.000  H
  C8       1.0000 0.09980  0.32890  0.40160  Biso   1.000  C
  C9       1.0000 0.09530  0.37550  0.36510  Biso   1.000  C
  C10      1.0000 0.14210  0.39120  0.39590  Biso   1.000  C
  H5       1.0000 0.17030  0.37930  0.43720  Biso   1.000  H
  C11      1.0000 0.14030  0.42780  0.35490  Biso   1.000  C
  H6       1.0000 0.16820  0.43730  0.36730  Biso   1.000  H
  C12      1.0000 0.09950  0.44710  0.30090  Biso   1.000  C
  C13      1.0000 0.05670  0.42960  0.27910  Biso   1.000  C
  H7       1.0000 0.02800  0.44430  0.24210  Biso   1.000  H
  C14      1.0000 0.05680  0.39450  0.30860  Biso   1.000  C
  H8       1.0000 0.02770  0.38140  0.28890  Biso   1.000  H
  C15      1.0000 0.09490  0.49070  0.26200  Biso   1.000  C
  C16      1.0000 0.11420  0.53110  0.29070  Biso   1.000  C
  H9       1.0000 0.12660  0.53800  0.33380  Biso   1.000  H
  C17      1.0000 0.11630  0.57010  0.24880  Biso   1.000  C
  C18      1.0000 0.09810  0.55990  0.19110  Biso   1.000  C
  C19      1.0000 0.06380  0.51780  0.14860  Biso   1.000  C
  H10      1.0000 0.04690  0.51540  0.10260  Biso   1.000  H
  C20      1.0000 0.05760  0.48050  0.18130  Biso   1.000  C
  C21      1.0000 0.15690  0.63360  0.34230  Biso   1.000  C
  H11      1.0000 0.16070  0.60910  0.37130  Biso   1.000  H
  H12      1.0000 0.13490  0.65760  0.33290  Biso   1.000  H
  C22      1.0000 0.20920  0.66110  0.38830  Biso   1.000  C
  H13      1.0000 0.23480  0.64360  0.42990  Biso   1.000  H
  H14      1.0000 0.20860  0.69460  0.39900  Biso   1.000  H
  C23      1.0000 0.99680  0.44730  0.08130  Biso   1.000  C
  H15      1.0000 0.99570  0.48130  0.07100  Biso   1.000  H
  H16      1.0000 0.99850  0.42830  0.05320  Biso   1.000  H
  C24      1.0000 0.95400  0.43580  0.06240  Biso   1.000  C
  H17      1.0000 0.94260  0.40610  0.03590  Biso   1.000  H
  H18      1.0000 0.96270  0.42740  0.10430  Biso   1.000  H
  C25      1.0000 0.91650  0.46480  0.02840  Biso   1.000  C
  H19      1.0000 0.89630  0.45260  0.03420  Biso   1.000  H
  H20      1.0000 0.89850  0.46250  0.98030  Biso   1.000  H
  C26      1.0000 0.92660  0.52000  0.04880  Biso   1.000  C
  H21      1.0000 0.92980  0.52650  0.08670  Biso   1.000  H
  H22      1.0000 0.95490  0.53120  0.06020  Biso   1.000  H
  C27      1.0000 0.88840  0.53930  0.99270  Biso   1.000  C
  H23      1.0000 0.87360  0.56010  0.00220  Biso   1.000  H
  H24      1.0000 0.86590  0.51400  0.96150  Biso   1.000  H
  C28      1.0000 0.90040  0.56720  0.96230  Biso   1.000  C
  H25      1.0000 0.89690  0.60040  0.97000  Biso   1.000  H
  H26      1.0000 0.93440  0.56220  0.99350  Biso   1.000  H
  C29      1.0000 0.88530  0.57000  0.89730  Biso   1.000  C
  H27      1.0000 0.90330  0.59460  0.89870  Biso   1.000  H
  H28      1.0000 0.85210  0.57810  0.86280  Biso   1.000  H
  H29      1.0000 0.89040  0.53920  0.88680  Biso   1.000  H
  C30      1.0000 0.60350  0.67110  0.50600  Biso   1.000  C
  C31      1.0000 0.60020  0.62500  0.53570  Biso   1.000  C
  C32      1.0000 0.64470  0.61240  0.59930  Biso   1.000  C
  H30      1.0000 0.67240  0.62280  0.61160  Biso   1.000  H
  C33      1.0000 0.64730  0.58310  0.64560  Biso   1.000  C
  H31      1.0000 0.67100  0.58470  0.69290  Biso   1.000  H
  C34      1.0000 0.60580  0.55010  0.60450  Biso   1.000  C
  C35      1.0000 0.55630  0.56780  0.54010  Biso   1.000  C
  H32      1.0000 0.52770  0.55500  0.52250  Biso   1.000  H
  C36      1.0000 0.56150  0.60660  0.51210  Biso   1.000  C
  H33      1.0000 0.53350  0.62020  0.47210  Biso   1.000  H
  C37      1.0000 0.59920  0.30170  0.87380  Biso   1.000  C
  C38      1.0000 0.60110  0.33790  0.83020  Biso   1.000  C
  C39      1.0000 0.55710  0.35070  0.76740  Biso   1.000  C
  H34      1.0000 0.52880  0.33700  0.74980  Biso   1.000  H
  C40      1.0000 0.55910  0.38660  0.73220  Biso   1.000  C
  H35      1.0000 0.53110  0.40100  0.69320  Biso   1.000  H
  C41      1.0000 0.60190  0.40040  0.75480  Biso   1.000  C
  C42      1.0000 0.64260  0.38050  0.81680  Biso   1.000  C
  H36      1.0000 0.67200  0.38950  0.83360  Biso   1.000  H
  C43      1.0000 0.64190  0.35190  0.85050  Biso   1.000  C
  H37      1.0000 0.67050  0.33970  0.89110  Biso   1.000  H
  C44      1.0000 0.60650  0.44040  0.71560  Biso   1.000  C
  C45      1.0000 0.57650  0.43540  0.64990  Biso   1.000  C
  H38      1.0000 0.55250  0.41220  0.62540  Biso   1.000  H
  C46      1.0000 0.58480  0.47130  0.61760  Biso   1.000  C
  C47      1.0000 0.60060  0.50880  0.63890  Biso   1.000  C
  C48      1.0000 0.64290  0.51040  0.72070  Biso   1.000  C
  H39      1.0000 0.66490  0.53540  0.73880  Biso   1.000  H
  C49      1.0000 0.65120  0.47810  0.76960  Biso   1.000  C
  C50      1.0000 0.55360  0.41770  0.53260  Biso   1.000  C
  H40      1.0000 0.56340  0.39980  0.57120  Biso   1.000  H
  H41      1.0000 0.51920  0.41880  0.49960  Biso   1.000  H
  C51      1.0000 0.56430  0.37990  0.49830  Biso   1.000  C
  H42      1.0000 0.58970  0.39230  0.50320  Biso   1.000  H
  H43      1.0000 0.57390  0.34850  0.52060  Biso   1.000  H
  C52      1.0000 0.94880  0.76030  0.84000  Biso   1.000  C
  H44      1.0000 0.96490  0.76710  0.88500  Biso   1.000  H
  C53      1.0000 0.89890  0.76190  0.78950  Biso   1.000  C
  H45      1.0000 0.88280  0.77040  0.80180  Biso   1.000  H
  C54      1.0000 0.87660  0.75270  0.73130  Biso   1.000  C
  C55      1.0000 0.90100  0.72130  0.71910  Biso   1.000  C
  H46      1.0000 0.88430  0.70220  0.68020  Biso   1.000  H
  C56      1.0000 0.94920  0.72260  0.76870  Biso   1.000  C
  H47      1.0000 0.96680  0.70480  0.76370  Biso   1.000  H
  C57      1.0000 0.74700  0.74690  0.64210  Biso   1.000  C
  H48      1.0000 0.73110  0.74070  0.65530  Biso   1.000  H
  C58      1.0000 0.79630  0.75000  0.68980  Biso   1.000  C
  H49      1.0000 0.81120  0.75480  0.73470  Biso   1.000  H
  C59      1.0000 0.82640  0.74700  0.67990  Biso   1.000  C
  C60      1.0000 0.74580  0.75000  0.56110  Biso   1.000  C
  H50      1.0000 0.73020  0.74740  0.51560  Biso   1.000  H
  C61      1.0000 0.79510  0.75000  0.61160  Biso   1.000  C
  H51      1.0000 0.80920  0.75260  0.59510  Biso   1.000  H
  N1       1.0000 0.97200  0.75010  0.82610  Biso   1.000  N
  O1       1.0000 0.13670  0.70960  0.04880  Biso   1.000  O
  O2       1.0000 0.05950  0.71550  0.97480  Biso   1.000  O
  O3       1.0000 0.13830  0.30720  0.44660  Biso   1.000  O
  O4       1.0000 0.05800  0.31190  0.37230  Biso   1.000  O
  O5       1.0000 0.13460  0.61110  0.28060  Biso   1.000  O
  O6       1.0000 0.03930  0.43910  0.15120  Biso   1.000  O
  O7       1.0000 0.64200  0.69310  0.53980  Biso   1.000  O
  O8       1.0000 0.55990  0.68519  0.44960  Biso   1.000  O
  O9       1.0000 0.64210  0.29320  0.93590  Biso   1.000  O
  O10      1.0000 0.56011  0.28950  0.85040  Biso   1.000  O
  O11      1.0000 0.56310  0.45110  0.54930  Biso   1.000  O
  Zn1      1.0000 0.04693  0.75113  0.89921  Biso   1.000  Zn
  Zn2      1.0000 0.15084  0.74762  0.00314  Biso   1.000  Zn
  N2       1.0000 0.72280  0.75330  0.57500  Biso   1.000  N
  N3       1.0000 0.75450  0.74622  0.60830  Biso   1.000  N
  C62      1.0000 0.59970  0.19780  0.03110  Biso   1.000  C
  C63      1.0000 0.59930  0.16430  0.07220  Biso   1.000  C
  C64      1.0000 0.64030  0.14400  0.13070  Biso   1.000  C
  H52      1.0000 0.66860  0.14850  0.14210  Biso   1.000  H
  C65      1.0000 0.64030  0.11770  0.17170  Biso   1.000  C
  H53      1.0000 0.67000  0.11000  0.21430  Biso   1.000  H
  C66      1.0000 0.60410  0.10200  0.15890  Biso   1.000  C
  C67      1.0000 0.55540  0.11530  0.08860  Biso   1.000  C
  H54      1.0000 0.52710  0.10240  0.07220  Biso   1.000  H
  C68      1.0000 0.55680  0.15040  0.04880  Biso   1.000  C
  H55      1.0000 0.52860  0.16290  0.00790  Biso   1.000  H
  C69      1.0000 0.59980  0.82890  0.40160  Biso   1.000  C
  C70      1.0000 0.59530  0.87550  0.36510  Biso   1.000  C
  C71      1.0000 0.64210  0.89120  0.39590  Biso   1.000  C
  H56      1.0000 0.67030  0.87930  0.43720  Biso   1.000  H
  C72      1.0000 0.64030  0.92780  0.35490  Biso   1.000  C
  H57      1.0000 0.66820  0.93730  0.36730  Biso   1.000  H
  C73      1.0000 0.59950  0.94710  0.30090  Biso   1.000  C
  C74      1.0000 0.55670  0.92960  0.27910  Biso   1.000  C
  H58      1.0000 0.52800  0.94430  0.24210  Biso   1.000  H
  C75      1.0000 0.55680  0.89450  0.30860  Biso   1.000  C
  H59      1.0000 0.52770  0.88140  0.28890  Biso   1.000  H
  C76      1.0000 0.59490  0.99070  0.26200  Biso   1.000  C
  C77      1.0000 0.61420  0.03110  0.29070  Biso   1.000  C
  H60      1.0000 0.62660  0.03800  0.33380  Biso   1.000  H
  C78      1.0000 0.61630  0.07010  0.24880  Biso   1.000  C
  C79      1.0000 0.59810  0.05990  0.19110  Biso   1.000  C
  C80      1.0000 0.56380  0.01780  0.14860  Biso   1.000  C
  H61      1.0000 0.54690  0.01540  0.10260  Biso   1.000  H
  C81      1.0000 0.55760  0.98050  0.18130  Biso   1.000  C
  C82      1.0000 0.65690  0.13360  0.34230  Biso   1.000  C
  H62      1.0000 0.66070  0.10910  0.37130  Biso   1.000  H
  H63      1.0000 0.63490  0.15760  0.33290  Biso   1.000  H
  C83      1.0000 0.70920  0.16110  0.38830  Biso   1.000  C
  H64      1.0000 0.73480  0.14360  0.42990  Biso   1.000  H
  H65      1.0000 0.70860  0.19460  0.39900  Biso   1.000  H
  C84      1.0000 0.49680  0.94730  0.08130  Biso   1.000  C
  H66      1.0000 0.49570  0.98130  0.07100  Biso   1.000  H
  H67      1.0000 0.49850  0.92830  0.05320  Biso   1.000  H
  C85      1.0000 0.45400  0.93580  0.06240  Biso   1.000  C
  H68      1.0000 0.44260  0.90610  0.03590  Biso   1.000  H
  H69      1.0000 0.46270  0.92740  0.10430  Biso   1.000  H
  C86      1.0000 0.41650  0.96480  0.02840  Biso   1.000  C
  H70      1.0000 0.39630  0.95260  0.03420  Biso   1.000  H
  H71      1.0000 0.39850  0.96250  0.98030  Biso   1.000  H
  C87      1.0000 0.42660  0.02000  0.04880  Biso   1.000  C
  H72      1.0000 0.42980  0.02650  0.08670  Biso   1.000  H
  H73      1.0000 0.45490  0.03120  0.06020  Biso   1.000  H
  C88      1.0000 0.38840  0.03930  0.99270  Biso   1.000  C
  H74      1.0000 0.37360  0.06010  0.00220  Biso   1.000  H
  H75      1.0000 0.36590  0.01400  0.96150  Biso   1.000  H
  C89      1.0000 0.40040  0.06720  0.96230  Biso   1.000  C
  H76      1.0000 0.39690  0.10040  0.97000  Biso   1.000  H
  H77      1.0000 0.43440  0.06220  0.99350  Biso   1.000  H
  C90      1.0000 0.38530  0.07000  0.89730  Biso   1.000  C
  H78      1.0000 0.40330  0.09460  0.89870  Biso   1.000  H
  H79      1.0000 0.35210  0.07810  0.86280  Biso   1.000  H
  H80      1.0000 0.39040  0.03920  0.88680  Biso   1.000  H
  C91      1.0000 0.10350  0.17110  0.50600  Biso   1.000  C
  C92      1.0000 0.10020  0.12500  0.53570  Biso   1.000  C
  C93      1.0000 0.14470  0.11240  0.59930  Biso   1.000  C
  H81      1.0000 0.17240  0.12280  0.61160  Biso   1.000  H
  C94      1.0000 0.14730  0.08310  0.64560  Biso   1.000  C
  H82      1.0000 0.17100  0.08470  0.69290  Biso   1.000  H
  C95      1.0000 0.10580  0.05010  0.60450  Biso   1.000  C
  C96      1.0000 0.05630  0.06780  0.54010  Biso   1.000  C
  H83      1.0000 0.02770  0.05500  0.52250  Biso   1.000  H
  C97      1.0000 0.06150  0.10660  0.51210  Biso   1.000  C
  H84      1.0000 0.03350  0.12020  0.47210  Biso   1.000  H
  C98      1.0000 0.09920  0.80170  0.87380  Biso   1.000  C
  C99      1.0000 0.10110  0.83790  0.83020  Biso   1.000  C
  C100     1.0000 0.05710  0.85070  0.76740  Biso   1.000  C
  H85      1.0000 0.02880  0.83700  0.74980  Biso   1.000  H
  C101     1.0000 0.05910  0.88660  0.73220  Biso   1.000  C
  H86      1.0000 0.03110  0.90100  0.69320  Biso   1.000  H
  C102     1.0000 0.10190  0.90040  0.75480  Biso   1.000  C
  C103     1.0000 0.14260  0.88050  0.81680  Biso   1.000  C
  H87      1.0000 0.17200  0.88950  0.83360  Biso   1.000  H
  C104     1.0000 0.14190  0.85190  0.85050  Biso   1.000  C
  H88      1.0000 0.17050  0.83970  0.89110  Biso   1.000  H
  C105     1.0000 0.10650  0.94040  0.71560  Biso   1.000  C
  C106     1.0000 0.07650  0.93540  0.64990  Biso   1.000  C
  H89      1.0000 0.05250  0.91220  0.62540  Biso   1.000  H
  C107     1.0000 0.08480  0.97130  0.61760  Biso   1.000  C
  C108     1.0000 0.10060  0.00880  0.63890  Biso   1.000  C
  C109     1.0000 0.14290  0.01040  0.72070  Biso   1.000  C
  H90      1.0000 0.16490  0.03540  0.73880  Biso   1.000  H
  C110     1.0000 0.15120  0.97810  0.76960  Biso   1.000  C
  C111     1.0000 0.05360  0.91770  0.53260  Biso   1.000  C
  H91      1.0000 0.06340  0.89980  0.57120  Biso   1.000  H
  H92      1.0000 0.01920  0.91880  0.49960  Biso   1.000  H
  C112     1.0000 0.06430  0.87990  0.49830  Biso   1.000  C
  H93      1.0000 0.08970  0.89230  0.50320  Biso   1.000  H
  H94      1.0000 0.07390  0.84850  0.52060  Biso   1.000  H
  C113     1.0000 0.44880  0.26030  0.84000  Biso   1.000  C
  H95      1.0000 0.46490  0.26710  0.88500  Biso   1.000  H
  C114     1.0000 0.39890  0.26190  0.78950  Biso   1.000  C
  H96      1.0000 0.38280  0.27040  0.80180  Biso   1.000  H
  C115     1.0000 0.37660  0.25270  0.73130  Biso   1.000  C
  C116     1.0000 0.40100  0.22130  0.71910  Biso   1.000  C
  H97      1.0000 0.38430  0.20220  0.68020  Biso   1.000  H
  C117     1.0000 0.44920  0.22260  0.76870  Biso   1.000  C
  H98      1.0000 0.46680  0.20480  0.76370  Biso   1.000  H
  C118     1.0000 0.24700  0.24690  0.64210  Biso   1.000  C
  H99      1.0000 0.23110  0.24070  0.65530  Biso   1.000  H
  C119     1.0000 0.29630  0.25000  0.68980  Biso   1.000  C
  H100     1.0000 0.31120  0.25480  0.73470  Biso   1.000  H
  C120     1.0000 0.32640  0.24700  0.67990  Biso   1.000  C
  C121     1.0000 0.24580  0.25000  0.56110  Biso   1.000  C
  H101     1.0000 0.23020  0.24740  0.51560  Biso   1.000  H
  C122     1.0000 0.29510  0.25000  0.61160  Biso   1.000  C
  H102     1.0000 0.30920  0.25260  0.59510  Biso   1.000  H
  N4       1.0000 0.47200  0.25010  0.82610  Biso   1.000  N
  O12      1.0000 0.63670  0.20960  0.04880  Biso   1.000  O
  O13      1.0000 0.55950  0.21550  0.97480  Biso   1.000  O
  O14      1.0000 0.63830  0.80720  0.44660  Biso   1.000  O
  O15      1.0000 0.55800  0.81190  0.37230  Biso   1.000  O
  O16      1.0000 0.63460  0.11110  0.28060  Biso   1.000  O
  O17      1.0000 0.53930  0.93910  0.15120  Biso   1.000  O
  O18      1.0000 0.14200  0.19310  0.53980  Biso   1.000  O
  O19      1.0000 0.05990  0.18519  0.44960  Biso   1.000  O
  O20      1.0000 0.14210  0.79320  0.93590  Biso   1.000  O
  O21      1.0000 0.06011  0.78950  0.85040  Biso   1.000  O
  O22      1.0000 0.06310  0.95110  0.54930  Biso   1.000  O
  Zn3      1.0000 0.54693  0.25113  0.89921  Biso   1.000  Zn
  Zn4      1.0000 0.65084  0.24762  0.00314  Biso   1.000  Zn
  N5       1.0000 0.22280  0.25330  0.57500  Biso   1.000  N
  N6       1.0000 0.25450  0.24622  0.60830  Biso   1.000  N
  C123     1.0000 0.09970  0.30220  0.53110  Biso   1.000  C
  C124     1.0000 0.09930  0.33570  0.57220  Biso   1.000  C
  C125     1.0000 0.14030  0.35600  0.63070  Biso   1.000  C
  H103     1.0000 0.16860  0.35150  0.64210  Biso   1.000  H
  C126     1.0000 0.14030  0.38230  0.67170  Biso   1.000  C
  H104     1.0000 0.17000  0.39000  0.71430  Biso   1.000  H
  C127     1.0000 0.10410  0.39800  0.65890  Biso   1.000  C
  C128     1.0000 0.05540  0.38470  0.58860  Biso   1.000  C
  H105     1.0000 0.02710  0.39760  0.57220  Biso   1.000  H
  C129     1.0000 0.05680  0.34960  0.54880  Biso   1.000  C
  H106     1.0000 0.02860  0.33710  0.50790  Biso   1.000  H
  C130     1.0000 0.09980  0.67110  0.90160  Biso   1.000  C
  C131     1.0000 0.09530  0.62450  0.86510  Biso   1.000  C
  C132     1.0000 0.14210  0.60880  0.89590  Biso   1.000  C
  H107     1.0000 0.17030  0.62070  0.93720  Biso   1.000  H
  C133     1.0000 0.14030  0.57220  0.85490  Biso   1.000  C
  H108     1.0000 0.16820  0.56270  0.86730  Biso   1.000  H
  C134     1.0000 0.09950  0.55290  0.80090  Biso   1.000  C
  C135     1.0000 0.05670  0.57040  0.77910  Biso   1.000  C
  H109     1.0000 0.02800  0.55570  0.74210  Biso   1.000  H
  C136     1.0000 0.05680  0.60550  0.80860  Biso   1.000  C
  H110     1.0000 0.02770  0.61860  0.78890  Biso   1.000  H
  C137     1.0000 0.09490  0.50930  0.76200  Biso   1.000  C
  C138     1.0000 0.11420  0.46890  0.79070  Biso   1.000  C
  H111     1.0000 0.12660  0.46200  0.83380  Biso   1.000  H
  C139     1.0000 0.11630  0.42990  0.74880  Biso   1.000  C
  C140     1.0000 0.09810  0.44010  0.69110  Biso   1.000  C
  C141     1.0000 0.06380  0.48220  0.64860  Biso   1.000  C
  H112     1.0000 0.04690  0.48460  0.60260  Biso   1.000  H
  C142     1.0000 0.05760  0.51950  0.68130  Biso   1.000  C
  C143     1.0000 0.15690  0.36640  0.84230  Biso   1.000  C
  H113     1.0000 0.16070  0.39090  0.87130  Biso   1.000  H
  H114     1.0000 0.13490  0.34240  0.83290  Biso   1.000  H
  C144     1.0000 0.20920  0.33890  0.88830  Biso   1.000  C
  H115     1.0000 0.23480  0.35640  0.92990  Biso   1.000  H
  H116     1.0000 0.20860  0.30540  0.89900  Biso   1.000  H
  C145     1.0000 0.99680  0.55270  0.58130  Biso   1.000  C
  H117     1.0000 0.99570  0.51870  0.57100  Biso   1.000  H
  H118     1.0000 0.99850  0.57170  0.55320  Biso   1.000  H
  C146     1.0000 0.95400  0.56420  0.56240  Biso   1.000  C
  H119     1.0000 0.94260  0.59390  0.53590  Biso   1.000  H
  H120     1.0000 0.96270  0.57260  0.60430  Biso   1.000  H
  C147     1.0000 0.91650  0.53520  0.52840  Biso   1.000  C
  H121     1.0000 0.89630  0.54740  0.53420  Biso   1.000  H
  H122     1.0000 0.89850  0.53750  0.48030  Biso   1.000  H
  C148     1.0000 0.92660  0.48000  0.54880  Biso   1.000  C
  H123     1.0000 0.92980  0.47350  0.58670  Biso   1.000  H
  H124     1.0000 0.95490  0.46880  0.56020  Biso   1.000  H
  C149     1.0000 0.88840  0.46070  0.49270  Biso   1.000  C
  H125     1.0000 0.87360  0.43990  0.50220  Biso   1.000  H
  H126     1.0000 0.86590  0.48600  0.46150  Biso   1.000  H
  C150     1.0000 0.90040  0.43280  0.46230  Biso   1.000  C
  H127     1.0000 0.89690  0.39960  0.47000  Biso   1.000  H
  H128     1.0000 0.93440  0.43780  0.49350  Biso   1.000  H
  C151     1.0000 0.88530  0.43000  0.39730  Biso   1.000  C
  H129     1.0000 0.90330  0.40540  0.39870  Biso   1.000  H
  H130     1.0000 0.85210  0.42190  0.36280  Biso   1.000  H
  H131     1.0000 0.89040  0.46080  0.38680  Biso   1.000  H
  C152     1.0000 0.60350  0.32890  0.00600  Biso   1.000  C
  C153     1.0000 0.60020  0.37500  0.03570  Biso   1.000  C
  C154     1.0000 0.64470  0.38760  0.09930  Biso   1.000  C
  H132     1.0000 0.67240  0.37720  0.11160  Biso   1.000  H
  C155     1.0000 0.64730  0.41690  0.14560  Biso   1.000  C
  H133     1.0000 0.67100  0.41530  0.19290  Biso   1.000  H
  C156     1.0000 0.60580  0.44990  0.10450  Biso   1.000  C
  C157     1.0000 0.55630  0.43220  0.04010  Biso   1.000  C
  H134     1.0000 0.52770  0.44500  0.02250  Biso   1.000  H
  C158     1.0000 0.56150  0.39340  0.01210  Biso   1.000  C
  H135     1.0000 0.53350  0.37980  0.97210  Biso   1.000  H
  C159     1.0000 0.59920  0.69830  0.37380  Biso   1.000  C
  C160     1.0000 0.60110  0.66210  0.33020  Biso   1.000  C
  C161     1.0000 0.55710  0.64930  0.26740  Biso   1.000  C
  H136     1.0000 0.52880  0.66300  0.24980  Biso   1.000  H
  C162     1.0000 0.55910  0.61340  0.23220  Biso   1.000  C
  H137     1.0000 0.53110  0.59900  0.19320  Biso   1.000  H
  C163     1.0000 0.60190  0.59960  0.25480  Biso   1.000  C
  C164     1.0000 0.64260  0.61950  0.31680  Biso   1.000  C
  H138     1.0000 0.67200  0.61050  0.33360  Biso   1.000  H
  C165     1.0000 0.64190  0.64810  0.35050  Biso   1.000  C
  H139     1.0000 0.67050  0.66030  0.39110  Biso   1.000  H
  C166     1.0000 0.60650  0.55960  0.21560  Biso   1.000  C
  C167     1.0000 0.57650  0.56460  0.14990  Biso   1.000  C
  H140     1.0000 0.55250  0.58780  0.12540  Biso   1.000  H
  C168     1.0000 0.58480  0.52870  0.11760  Biso   1.000  C
  C169     1.0000 0.60060  0.49120  0.13890  Biso   1.000  C
  C170     1.0000 0.64290  0.48960  0.22070  Biso   1.000  C
  H141     1.0000 0.66490  0.46460  0.23880  Biso   1.000  H
  C171     1.0000 0.65120  0.52190  0.26960  Biso   1.000  C
  C172     1.0000 0.55360  0.58230  0.03260  Biso   1.000  C
  H142     1.0000 0.56340  0.60020  0.07120  Biso   1.000  H
  H143     1.0000 0.51920  0.58120  0.99960  Biso   1.000  H
  C173     1.0000 0.56430  0.62010  0.99830  Biso   1.000  C
  H144     1.0000 0.58970  0.60770  0.00320  Biso   1.000  H
  H145     1.0000 0.57390  0.65150  0.02060  Biso   1.000  H
  C174     1.0000 0.94880  0.23970  0.34000  Biso   1.000  C
  H146     1.0000 0.96490  0.23290  0.38500  Biso   1.000  H
  C175     1.0000 0.89890  0.23810  0.28950  Biso   1.000  C
  H147     1.0000 0.88280  0.22960  0.30180  Biso   1.000  H
  C176     1.0000 0.87660  0.24730  0.23130  Biso   1.000  C
  C177     1.0000 0.90100  0.27870  0.21910  Biso   1.000  C
  H148     1.0000 0.88430  0.29780  0.18020  Biso   1.000  H
  C178     1.0000 0.94920  0.27740  0.26870  Biso   1.000  C
  H149     1.0000 0.96680  0.29520  0.26370  Biso   1.000  H
  C179     1.0000 0.74700  0.25310  0.14210  Biso   1.000  C
  H150     1.0000 0.73110  0.25930  0.15530  Biso   1.000  H
  C180     1.0000 0.79630  0.25000  0.18980  Biso   1.000  C
  H151     1.0000 0.81120  0.24520  0.23470  Biso   1.000  H
  C181     1.0000 0.82640  0.25300  0.17990  Biso   1.000  C
  C182     1.0000 0.74580  0.25000  0.06110  Biso   1.000  C
  H152     1.0000 0.73020  0.25260  0.01560  Biso   1.000  H
  C183     1.0000 0.79510  0.25000  0.11160  Biso   1.000  C
  H153     1.0000 0.80920  0.24740  0.09510  Biso   1.000  H
  N7       1.0000 0.97200  0.24990  0.32610  Biso   1.000  N
  O23      1.0000 0.13670  0.29040  0.54880  Biso   1.000  O
  O24      1.0000 0.05950  0.28450  0.47480  Biso   1.000  O
  O25      1.0000 0.13830  0.69280  0.94660  Biso   1.000  O
  O26      1.0000 0.05800  0.68810  0.87230  Biso   1.000  O
  O27      1.0000 0.13460  0.38890  0.78060  Biso   1.000  O
  O28      1.0000 0.03930  0.56090  0.65120  Biso   1.000  O
  O29      1.0000 0.64200  0.30690  0.03980  Biso   1.000  O
  O30      1.0000 0.55990  0.31481  0.94960  Biso   1.000  O
  O31      1.0000 0.64210  0.70680  0.43590  Biso   1.000  O
  O32      1.0000 0.56011  0.71050  0.35040  Biso   1.000  O
  O33      1.0000 0.56310  0.54890  0.04930  Biso   1.000  O
  Zn5      1.0000 0.04693  0.24887  0.39921  Biso   1.000  Zn
  Zn6      1.0000 0.15084  0.25238  0.50314  Biso   1.000  Zn
  N8       1.0000 0.72280  0.24670  0.07500  Biso   1.000  N
  N9       1.0000 0.75450  0.25378  0.10830  Biso   1.000  N
  C184     1.0000 0.59970  0.80220  0.53110  Biso   1.000  C
  C185     1.0000 0.59930  0.83570  0.57220  Biso   1.000  C
  C186     1.0000 0.64030  0.85600  0.63070  Biso   1.000  C
  H154     1.0000 0.66860  0.85150  0.64210  Biso   1.000  H
  C187     1.0000 0.64030  0.88230  0.67170  Biso   1.000  C
  H155     1.0000 0.67000  0.89000  0.71430  Biso   1.000  H
  C188     1.0000 0.60410  0.89800  0.65890  Biso   1.000  C
  C189     1.0000 0.55540  0.88470  0.58860  Biso   1.000  C
  H156     1.0000 0.52710  0.89760  0.57220  Biso   1.000  H
  C190     1.0000 0.55680  0.84960  0.54880  Biso   1.000  C
  H157     1.0000 0.52860  0.83710  0.50790  Biso   1.000  H
  C191     1.0000 0.59980  0.17110  0.90160  Biso   1.000  C
  C192     1.0000 0.59530  0.12450  0.86510  Biso   1.000  C
  C193     1.0000 0.64210  0.10880  0.89590  Biso   1.000  C
  H158     1.0000 0.67030  0.12070  0.93720  Biso   1.000  H
  C194     1.0000 0.64030  0.07220  0.85490  Biso   1.000  C
  H159     1.0000 0.66820  0.06270  0.86730  Biso   1.000  H
  C195     1.0000 0.59950  0.05290  0.80090  Biso   1.000  C
  C196     1.0000 0.55670  0.07040  0.77910  Biso   1.000  C
  H160     1.0000 0.52800  0.05570  0.74210  Biso   1.000  H
  C197     1.0000 0.55680  0.10550  0.80860  Biso   1.000  C
  H161     1.0000 0.52770  0.11860  0.78890  Biso   1.000  H
  C198     1.0000 0.59490  0.00930  0.76200  Biso   1.000  C
  C199     1.0000 0.61420  0.96890  0.79070  Biso   1.000  C
  H162     1.0000 0.62660  0.96200  0.83380  Biso   1.000  H
  C200     1.0000 0.61630  0.92990  0.74880  Biso   1.000  C
  C201     1.0000 0.59810  0.94010  0.69110  Biso   1.000  C
  C202     1.0000 0.56380  0.98220  0.64860  Biso   1.000  C
  H163     1.0000 0.54690  0.98460  0.60260  Biso   1.000  H
  C203     1.0000 0.55760  0.01950  0.68130  Biso   1.000  C
  C204     1.0000 0.65690  0.86640  0.84230  Biso   1.000  C
  H164     1.0000 0.66070  0.89090  0.87130  Biso   1.000  H
  H165     1.0000 0.63490  0.84240  0.83290  Biso   1.000  H
  C205     1.0000 0.70920  0.83890  0.88830  Biso   1.000  C
  H166     1.0000 0.73480  0.85640  0.92990  Biso   1.000  H
  H167     1.0000 0.70860  0.80540  0.89900  Biso   1.000  H
  C206     1.0000 0.49680  0.05270  0.58130  Biso   1.000  C
  H168     1.0000 0.49570  0.01870  0.57100  Biso   1.000  H
  H169     1.0000 0.49850  0.07170  0.55320  Biso   1.000  H
  C207     1.0000 0.45400  0.06420  0.56240  Biso   1.000  C
  H170     1.0000 0.44260  0.09390  0.53590  Biso   1.000  H
  H171     1.0000 0.46270  0.07260  0.60430  Biso   1.000  H
  C208     1.0000 0.41650  0.03520  0.52840  Biso   1.000  C
  H172     1.0000 0.39630  0.04740  0.53420  Biso   1.000  H
  H173     1.0000 0.39850  0.03750  0.48030  Biso   1.000  H
  C209     1.0000 0.42660  0.98000  0.54880  Biso   1.000  C
  H174     1.0000 0.42980  0.97350  0.58670  Biso   1.000  H
  H175     1.0000 0.45490  0.96880  0.56020  Biso   1.000  H
  C210     1.0000 0.38840  0.96070  0.49270  Biso   1.000  C
  H176     1.0000 0.37360  0.93990  0.50220  Biso   1.000  H
  H177     1.0000 0.36590  0.98600  0.46150  Biso   1.000  H
  C211     1.0000 0.40040  0.93280  0.46230  Biso   1.000  C
  H178     1.0000 0.39690  0.89960  0.47000  Biso   1.000  H
  H179     1.0000 0.43440  0.93780  0.49350  Biso   1.000  H
  C212     1.0000 0.38530  0.93000  0.39730  Biso   1.000  C
  H180     1.0000 0.40330  0.90540  0.39870  Biso   1.000  H
  H181     1.0000 0.35210  0.92190  0.36280  Biso   1.000  H
  H182     1.0000 0.39040  0.96080  0.38680  Biso   1.000  H
  C213     1.0000 0.10350  0.82890  0.00600  Biso   1.000  C
  C214     1.0000 0.10020  0.87500  0.03570  Biso   1.000  C
  C215     1.0000 0.14470  0.88760  0.09930  Biso   1.000  C
  H183     1.0000 0.17240  0.87720  0.11160  Biso   1.000  H
  C216     1.0000 0.14730  0.91690  0.14560  Biso   1.000  C
  H184     1.0000 0.17100  0.91530  0.19290  Biso   1.000  H
  C217     1.0000 0.10580  0.94990  0.10450  Biso   1.000  C
  C218     1.0000 0.05630  0.93220  0.04010  Biso   1.000  C
  H185     1.0000 0.02770  0.94500  0.02250  Biso   1.000  H
  C219     1.0000 0.06150  0.89340  0.01210  Biso   1.000  C
  H186     1.0000 0.03350  0.87980  0.97210  Biso   1.000  H
  C220     1.0000 0.09920  0.19830  0.37380  Biso   1.000  C
  C221     1.0000 0.10110  0.16210  0.33020  Biso   1.000  C
  C222     1.0000 0.05710  0.14930  0.26740  Biso   1.000  C
  H187     1.0000 0.02880  0.16300  0.24980  Biso   1.000  H
  C223     1.0000 0.05910  0.11340  0.23220  Biso   1.000  C
  H188     1.0000 0.03110  0.09900  0.19320  Biso   1.000  H
  C224     1.0000 0.10190  0.09960  0.25480  Biso   1.000  C
  C225     1.0000 0.14260  0.11950  0.31680  Biso   1.000  C
  H189     1.0000 0.17200  0.11050  0.33360  Biso   1.000  H
  C226     1.0000 0.14190  0.14810  0.35050  Biso   1.000  C
  H190     1.0000 0.17050  0.16030  0.39110  Biso   1.000  H
  C227     1.0000 0.10650  0.05960  0.21560  Biso   1.000  C
  C228     1.0000 0.07650  0.06460  0.14990  Biso   1.000  C
  H191     1.0000 0.05250  0.08780  0.12540  Biso   1.000  H
  C229     1.0000 0.08480  0.02870  0.11760  Biso   1.000  C
  C230     1.0000 0.10060  0.99120  0.13890  Biso   1.000  C
  C231     1.0000 0.14290  0.98960  0.22070  Biso   1.000  C
  H192     1.0000 0.16490  0.96460  0.23880  Biso   1.000  H
  C232     1.0000 0.15120  0.02190  0.26960  Biso   1.000  C
  C233     1.0000 0.05360  0.08230  0.03260  Biso   1.000  C
  H193     1.0000 0.06340  0.10020  0.07120  Biso   1.000  H
  H194     1.0000 0.01920  0.08120  0.99960  Biso   1.000  H
  C234     1.0000 0.06430  0.12010  0.99830  Biso   1.000  C
  H195     1.0000 0.08970  0.10770  0.00320  Biso   1.000  H
  H196     1.0000 0.07390  0.15150  0.02060  Biso   1.000  H
  C235     1.0000 0.44880  0.73970  0.34000  Biso   1.000  C
  H197     1.0000 0.46490  0.73290  0.38500  Biso   1.000  H
  C236     1.0000 0.39890  0.73810  0.28950  Biso   1.000  C
  H198     1.0000 0.38280  0.72960  0.30180  Biso   1.000  H
  C237     1.0000 0.37660  0.74730  0.23130  Biso   1.000  C
  C238     1.0000 0.40100  0.77870  0.21910  Biso   1.000  C
  H199     1.0000 0.38430  0.79780  0.18020  Biso   1.000  H
  C239     1.0000 0.44920  0.77740  0.26870  Biso   1.000  C
  H200     1.0000 0.46680  0.79520  0.26370  Biso   1.000  H
  C240     1.0000 0.24700  0.75310  0.14210  Biso   1.000  C
  H201     1.0000 0.23110  0.75930  0.15530  Biso   1.000  H
  C241     1.0000 0.29630  0.75000  0.18980  Biso   1.000  C
  H202     1.0000 0.31120  0.74520  0.23470  Biso   1.000  H
  C242     1.0000 0.32640  0.75300  0.17990  Biso   1.000  C
  C243     1.0000 0.24580  0.75000  0.06110  Biso   1.000  C
  H203     1.0000 0.23020  0.75260  0.01560  Biso   1.000  H
  C244     1.0000 0.29510  0.75000  0.11160  Biso   1.000  C
  H204     1.0000 0.30920  0.74740  0.09510  Biso   1.000  H
  N10      1.0000 0.47200  0.74990  0.32610  Biso   1.000  N
  O34      1.0000 0.63670  0.79040  0.54880  Biso   1.000  O
  O35      1.0000 0.55950  0.78450  0.47480  Biso   1.000  O
  O36      1.0000 0.63830  0.19280  0.94660  Biso   1.000  O
  O37      1.0000 0.55800  0.18810  0.87230  Biso   1.000  O
  O38      1.0000 0.63460  0.88890  0.78060  Biso   1.000  O
  O39      1.0000 0.53930  0.06090  0.65120  Biso   1.000  O
  O40      1.0000 0.14200  0.80690  0.03980  Biso   1.000  O
  O41      1.0000 0.05990  0.81481  0.94960  Biso   1.000  O
  O42      1.0000 0.14210  0.20680  0.43590  Biso   1.000  O
  O43      1.0000 0.06011  0.21050  0.35040  Biso   1.000  O
  O44      1.0000 0.06310  0.04890  0.04930  Biso   1.000  O
  Zn7      1.0000 0.54693  0.74887  0.39921  Biso   1.000  Zn
  Zn8      1.0000 0.65084  0.75238  0.50314  Biso   1.000  Zn
  N11      1.0000 0.22280  0.74670  0.07500  Biso   1.000  N
  N12      1.0000 0.25450  0.75378  0.10830  Biso   1.000  N
  C245     1.0000 0.90030  0.69780  0.46890  Biso   1.000  C
  C246     1.0000 0.90070  0.66430  0.42780  Biso   1.000  C
  C247     1.0000 0.85970  0.64400  0.36930  Biso   1.000  C
  H205     1.0000 0.83140  0.64850  0.35790  Biso   1.000  H
  C248     1.0000 0.85970  0.61770  0.32830  Biso   1.000  C
  H206     1.0000 0.83000  0.61000  0.28570  Biso   1.000  H
  C249     1.0000 0.89590  0.60200  0.34110  Biso   1.000  C
  C250     1.0000 0.94460  0.61530  0.41140  Biso   1.000  C
  H207     1.0000 0.97290  0.60240  0.42780  Biso   1.000  H
  C251     1.0000 0.94320  0.65040  0.45120  Biso   1.000  C
  H208     1.0000 0.97140  0.66290  0.49210  Biso   1.000  H
  C252     1.0000 0.90020  0.32890  0.09840  Biso   1.000  C
  C253     1.0000 0.90470  0.37550  0.13490  Biso   1.000  C
  C254     1.0000 0.85790  0.39120  0.10410  Biso   1.000  C
  H209     1.0000 0.82970  0.37930  0.06280  Biso   1.000  H
  C255     1.0000 0.85970  0.42780  0.14510  Biso   1.000  C
  H210     1.0000 0.83180  0.43730  0.13270  Biso   1.000  H
  C256     1.0000 0.90050  0.44710  0.19910  Biso   1.000  C
  C257     1.0000 0.94330  0.42960  0.22090  Biso   1.000  C
  H211     1.0000 0.97200  0.44430  0.25790  Biso   1.000  H
  C258     1.0000 0.94320  0.39450  0.19140  Biso   1.000  C
  H212     1.0000 0.97230  0.38140  0.21110  Biso   1.000  H
  C259     1.0000 0.90510  0.49070  0.23800  Biso   1.000  C
  C260     1.0000 0.88580  0.53110  0.20930  Biso   1.000  C
  H213     1.0000 0.87340  0.53800  0.16620  Biso   1.000  H
  C261     1.0000 0.88370  0.57010  0.25120  Biso   1.000  C
  C262     1.0000 0.90190  0.55990  0.30890  Biso   1.000  C
  C263     1.0000 0.93620  0.51780  0.35140  Biso   1.000  C
  H214     1.0000 0.95310  0.51540  0.39740  Biso   1.000  H
  C264     1.0000 0.94240  0.48050  0.31870  Biso   1.000  C
  C265     1.0000 0.84310  0.63360  0.15770  Biso   1.000  C
  H215     1.0000 0.83930  0.60910  0.12870  Biso   1.000  H
  H216     1.0000 0.86510  0.65760  0.16710  Biso   1.000  H
  C266     1.0000 0.79080  0.66110  0.11170  Biso   1.000  C
  H217     1.0000 0.76520  0.64360  0.07010  Biso   1.000  H
  H218     1.0000 0.79140  0.69460  0.10100  Biso   1.000  H
  C267     1.0000 0.00320  0.44730  0.41870  Biso   1.000  C
  H219     1.0000 0.00430  0.48130  0.42900  Biso   1.000  H
  H220     1.0000 0.00150  0.42830  0.44680  Biso   1.000  H
  C268     1.0000 0.04600  0.43580  0.43760  Biso   1.000  C
  H221     1.0000 0.05740  0.40610  0.46410  Biso   1.000  H
  H222     1.0000 0.03730  0.42740  0.39570  Biso   1.000  H
  C269     1.0000 0.08350  0.46480  0.47160  Biso   1.000  C
  H223     1.0000 0.10370  0.45260  0.46580  Biso   1.000  H
  H224     1.0000 0.10150  0.46250  0.51970  Biso   1.000  H
  C270     1.0000 0.07340  0.52000  0.45120  Biso   1.000  C
  H225     1.0000 0.07020  0.52650  0.41330  Biso   1.000  H
  H226     1.0000 0.04510  0.53120  0.43980  Biso   1.000  H
  C271     1.0000 0.11160  0.53930  0.50730  Biso   1.000  C
  H227     1.0000 0.12640  0.56010  0.49780  Biso   1.000  H
  H228     1.0000 0.13410  0.51400  0.53850  Biso   1.000  H
  C272     1.0000 0.09960  0.56720  0.53770  Biso   1.000  C
  H229     1.0000 0.10310  0.60040  0.53000  Biso   1.000  H
  H230     1.0000 0.06560  0.56220  0.50650  Biso   1.000  H
  C273     1.0000 0.11470  0.57000  0.60270  Biso   1.000  C
  H231     1.0000 0.09670  0.59460  0.60130  Biso   1.000  H
  H232     1.0000 0.14790  0.57810  0.63720  Biso   1.000  H
  H233     1.0000 0.10960  0.53920  0.61320  Biso   1.000  H
  C274     1.0000 0.39650  0.67110  0.99400  Biso   1.000  C
  C275     1.0000 0.39980  0.62500  0.96430  Biso   1.000  C
  C276     1.0000 0.35530  0.61240  0.90070  Biso   1.000  C
  H234     1.0000 0.32760  0.62280  0.88840  Biso   1.000  H
  C277     1.0000 0.35270  0.58310  0.85440  Biso   1.000  C
  H235     1.0000 0.32900  0.58470  0.80710  Biso   1.000  H
  C278     1.0000 0.39420  0.55010  0.89550  Biso   1.000  C
  C279     1.0000 0.44370  0.56780  0.95990  Biso   1.000  C
  H236     1.0000 0.47230  0.55500  0.97750  Biso   1.000  H
  C280     1.0000 0.43850  0.60660  0.98790  Biso   1.000  C
  H237     1.0000 0.46650  0.62020  0.02790  Biso   1.000  H
  C281     1.0000 0.40080  0.30170  0.62620  Biso   1.000  C
  C282     1.0000 0.39890  0.33790  0.66980  Biso   1.000  C
  C283     1.0000 0.44290  0.35070  0.73260  Biso   1.000  C
  H238     1.0000 0.47120  0.33700  0.75020  Biso   1.000  H
  C284     1.0000 0.44090  0.38660  0.76780  Biso   1.000  C
  H239     1.0000 0.46890  0.40100  0.80680  Biso   1.000  H
  C285     1.0000 0.39810  0.40040  0.74520  Biso   1.000  C
  C286     1.0000 0.35740  0.38050  0.68320  Biso   1.000  C
  H240     1.0000 0.32800  0.38950  0.66640  Biso   1.000  H
  C287     1.0000 0.35810  0.35190  0.64950  Biso   1.000  C
  H241     1.0000 0.32950  0.33970  0.60890  Biso   1.000  H
  C288     1.0000 0.39350  0.44040  0.78440  Biso   1.000  C
  C289     1.0000 0.42350  0.43540  0.85010  Biso   1.000  C
  H242     1.0000 0.44750  0.41220  0.87460  Biso   1.000  H
  C290     1.0000 0.41520  0.47130  0.88240  Biso   1.000  C
  C291     1.0000 0.39940  0.50880  0.86110  Biso   1.000  C
  C292     1.0000 0.35710  0.51040  0.77930  Biso   1.000  C
  H243     1.0000 0.33510  0.53540  0.76120  Biso   1.000  H
  C293     1.0000 0.34880  0.47810  0.73040  Biso   1.000  C
  C294     1.0000 0.44640  0.41770  0.96740  Biso   1.000  C
  H244     1.0000 0.43660  0.39980  0.92880  Biso   1.000  H
  H245     1.0000 0.48080  0.41880  0.00040  Biso   1.000  H
  C295     1.0000 0.43570  0.37990  0.00170  Biso   1.000  C
  H246     1.0000 0.41030  0.39230  0.99680  Biso   1.000  H
  H247     1.0000 0.42610  0.34850  0.97940  Biso   1.000  H
  C296     1.0000 0.05120  0.76030  0.66000  Biso   1.000  C
  H248     1.0000 0.03510  0.76710  0.61500  Biso   1.000  H
  C297     1.0000 0.10110  0.76190  0.71050  Biso   1.000  C
  H249     1.0000 0.11720  0.77040  0.69820  Biso   1.000  H
  C298     1.0000 0.12340  0.75270  0.76870  Biso   1.000  C
  C299     1.0000 0.09900  0.72130  0.78090  Biso   1.000  C
  H250     1.0000 0.11570  0.70220  0.81980  Biso   1.000  H
  C300     1.0000 0.05080  0.72260  0.73130  Biso   1.000  C
  H251     1.0000 0.03320  0.70480  0.73630  Biso   1.000  H
  C301     1.0000 0.25300  0.74690  0.85790  Biso   1.000  C
  H252     1.0000 0.26890  0.74070  0.84470  Biso   1.000  H
  C302     1.0000 0.20370  0.75000  0.81020  Biso   1.000  C
  H253     1.0000 0.18880  0.75480  0.76530  Biso   1.000  H
  C303     1.0000 0.17360  0.74700  0.82010  Biso   1.000  C
  C304     1.0000 0.25420  0.75000  0.93890  Biso   1.000  C
  H254     1.0000 0.26980  0.74740  0.98440  Biso   1.000  H
  C305     1.0000 0.20490  0.75000  0.88840  Biso   1.000  C
  H255     1.0000 0.19080  0.75260  0.90490  Biso   1.000  H
  N13      1.0000 0.02800  0.75010  0.67390  Biso   1.000  N
  O45      1.0000 0.86330  0.70960  0.45120  Biso   1.000  O
  O46      1.0000 0.94050  0.71550  0.52520  Biso   1.000  O
  O47      1.0000 0.86170  0.30720  0.05340  Biso   1.000  O
  O48      1.0000 0.94200  0.31190  0.12770  Biso   1.000  O
  O49      1.0000 0.86540  0.61110  0.21940  Biso   1.000  O
  O50      1.0000 0.96070  0.43910  0.34880  Biso   1.000  O
  O51      1.0000 0.35800  0.69310  0.96020  Biso   1.000  O
  O52      1.0000 0.44010  0.68519  0.05040  Biso   1.000  O
  O53      1.0000 0.35790  0.29320  0.56410  Biso   1.000  O
  O54      1.0000 0.43989  0.28950  0.64960  Biso   1.000  O
  O55      1.0000 0.43690  0.45110  0.95070  Biso   1.000  O
  Zn9      1.0000 0.95307  0.75113  0.60079  Biso   1.000  Zn
  Zn10     1.0000 0.84915  0.74762  0.49686  Biso   1.000  Zn
  N14      1.0000 0.27720  0.75330  0.92500  Biso   1.000  N
  N15      1.0000 0.24550  0.74622  0.89170  Biso   1.000  N
  C306     1.0000 0.40030  0.19780  0.46890  Biso   1.000  C
  C307     1.0000 0.40070  0.16430  0.42780  Biso   1.000  C
  C308     1.0000 0.35970  0.14400  0.36930  Biso   1.000  C
  H256     1.0000 0.33140  0.14850  0.35790  Biso   1.000  H
  C309     1.0000 0.35970  0.11770  0.32830  Biso   1.000  C
  H257     1.0000 0.33000  0.11000  0.28570  Biso   1.000  H
  C310     1.0000 0.39590  0.10200  0.34110  Biso   1.000  C
  C311     1.0000 0.44460  0.11530  0.41140  Biso   1.000  C
  H258     1.0000 0.47290  0.10240  0.42780  Biso   1.000  H
  C312     1.0000 0.44320  0.15040  0.45120  Biso   1.000  C
  H259     1.0000 0.47140  0.16290  0.49210  Biso   1.000  H
  C313     1.0000 0.40020  0.82890  0.09840  Biso   1.000  C
  C314     1.0000 0.40470  0.87550  0.13490  Biso   1.000  C
  C315     1.0000 0.35790  0.89120  0.10410  Biso   1.000  C
  H260     1.0000 0.32970  0.87930  0.06280  Biso   1.000  H
  C316     1.0000 0.35970  0.92780  0.14510  Biso   1.000  C
  H261     1.0000 0.33180  0.93730  0.13270  Biso   1.000  H
  C317     1.0000 0.40050  0.94710  0.19910  Biso   1.000  C
  C318     1.0000 0.44330  0.92960  0.22090  Biso   1.000  C
  H262     1.0000 0.47200  0.94430  0.25790  Biso   1.000  H
  C319     1.0000 0.44320  0.89450  0.19140  Biso   1.000  C
  H263     1.0000 0.47230  0.88140  0.21110  Biso   1.000  H
  C320     1.0000 0.40510  0.99070  0.23800  Biso   1.000  C
  C321     1.0000 0.38580  0.03110  0.20930  Biso   1.000  C
  H264     1.0000 0.37340  0.03800  0.16620  Biso   1.000  H
  C322     1.0000 0.38370  0.07010  0.25120  Biso   1.000  C
  C323     1.0000 0.40190  0.05990  0.30890  Biso   1.000  C
  C324     1.0000 0.43620  0.01780  0.35140  Biso   1.000  C
  H265     1.0000 0.45310  0.01540  0.39740  Biso   1.000  H
  C325     1.0000 0.44240  0.98050  0.31870  Biso   1.000  C
  C326     1.0000 0.34310  0.13360  0.15770  Biso   1.000  C
  H266     1.0000 0.33930  0.10910  0.12870  Biso   1.000  H
  H267     1.0000 0.36510  0.15760  0.16710  Biso   1.000  H
  C327     1.0000 0.29080  0.16110  0.11170  Biso   1.000  C
  H268     1.0000 0.26520  0.14360  0.07010  Biso   1.000  H
  H269     1.0000 0.29140  0.19460  0.10100  Biso   1.000  H
  C328     1.0000 0.50320  0.94730  0.41870  Biso   1.000  C
  H270     1.0000 0.50430  0.98130  0.42900  Biso   1.000  H
  H271     1.0000 0.50150  0.92830  0.44680  Biso   1.000  H
  C329     1.0000 0.54600  0.93580  0.43760  Biso   1.000  C
  H272     1.0000 0.55740  0.90610  0.46410  Biso   1.000  H
  H273     1.0000 0.53730  0.92740  0.39570  Biso   1.000  H
  C330     1.0000 0.58350  0.96480  0.47160  Biso   1.000  C
  H274     1.0000 0.60370  0.95260  0.46580  Biso   1.000  H
  H275     1.0000 0.60150  0.96250  0.51970  Biso   1.000  H
  C331     1.0000 0.57340  0.02000  0.45120  Biso   1.000  C
  H276     1.0000 0.57020  0.02650  0.41330  Biso   1.000  H
  H277     1.0000 0.54510  0.03120  0.43980  Biso   1.000  H
  C332     1.0000 0.61160  0.03930  0.50730  Biso   1.000  C
  H278     1.0000 0.62640  0.06010  0.49780  Biso   1.000  H
  H279     1.0000 0.63410  0.01400  0.53850  Biso   1.000  H
  C333     1.0000 0.59960  0.06720  0.53770  Biso   1.000  C
  H280     1.0000 0.60310  0.10040  0.53000  Biso   1.000  H
  H281     1.0000 0.56560  0.06220  0.50650  Biso   1.000  H
  C334     1.0000 0.61470  0.07000  0.60270  Biso   1.000  C
  H282     1.0000 0.59670  0.09460  0.60130  Biso   1.000  H
  H283     1.0000 0.64790  0.07810  0.63720  Biso   1.000  H
  H284     1.0000 0.60960  0.03920  0.61320  Biso   1.000  H
  C335     1.0000 0.89650  0.17110  0.99400  Biso   1.000  C
  C336     1.0000 0.89980  0.12500  0.96430  Biso   1.000  C
  C337     1.0000 0.85530  0.11240  0.90070  Biso   1.000  C
  H285     1.0000 0.82760  0.12280  0.88840  Biso   1.000  H
  C338     1.0000 0.85270  0.08310  0.85440  Biso   1.000  C
  H286     1.0000 0.82900  0.08470  0.80710  Biso   1.000  H
  C339     1.0000 0.89420  0.05010  0.89550  Biso   1.000  C
  C340     1.0000 0.94370  0.06780  0.95990  Biso   1.000  C
  H287     1.0000 0.97230  0.05500  0.97750  Biso   1.000  H
  C341     1.0000 0.93850  0.10660  0.98790  Biso   1.000  C
  H288     1.0000 0.96650  0.12020  0.02790  Biso   1.000  H
  C342     1.0000 0.90080  0.80170  0.62620  Biso   1.000  C
  C343     1.0000 0.89890  0.83790  0.66980  Biso   1.000  C
  C344     1.0000 0.94290  0.85070  0.73260  Biso   1.000  C
  H289     1.0000 0.97120  0.83700  0.75020  Biso   1.000  H
  C345     1.0000 0.94090  0.88660  0.76780  Biso   1.000  C
  H290     1.0000 0.96890  0.90100  0.80680  Biso   1.000  H
  C346     1.0000 0.89810  0.90040  0.74520  Biso   1.000  C
  C347     1.0000 0.85740  0.88050  0.68320  Biso   1.000  C
  H291     1.0000 0.82800  0.88950  0.66640  Biso   1.000  H
  C348     1.0000 0.85810  0.85190  0.64950  Biso   1.000  C
  H292     1.0000 0.82950  0.83970  0.60890  Biso   1.000  H
  C349     1.0000 0.89350  0.94040  0.78440  Biso   1.000  C
  C350     1.0000 0.92350  0.93540  0.85010  Biso   1.000  C
  H293     1.0000 0.94750  0.91220  0.87460  Biso   1.000  H
  C351     1.0000 0.91520  0.97130  0.88240  Biso   1.000  C
  C352     1.0000 0.89940  0.00880  0.86110  Biso   1.000  C
  C353     1.0000 0.85710  0.01040  0.77930  Biso   1.000  C
  H294     1.0000 0.83510  0.03540  0.76120  Biso   1.000  H
  C354     1.0000 0.84880  0.97810  0.73040  Biso   1.000  C
  C355     1.0000 0.94640  0.91770  0.96740  Biso   1.000  C
  H295     1.0000 0.93660  0.89980  0.92880  Biso   1.000  H
  H296     1.0000 0.98080  0.91880  0.00040  Biso   1.000  H
  C356     1.0000 0.93570  0.87990  0.00170  Biso   1.000  C
  H297     1.0000 0.91030  0.89230  0.99680  Biso   1.000  H
  H298     1.0000 0.92610  0.84850  0.97940  Biso   1.000  H
  C357     1.0000 0.55120  0.26030  0.66000  Biso   1.000  C
  H299     1.0000 0.53510  0.26710  0.61500  Biso   1.000  H
  C358     1.0000 0.60110  0.26190  0.71050  Biso   1.000  C
  H300     1.0000 0.61720  0.27040  0.69820  Biso   1.000  H
  C359     1.0000 0.62340  0.25270  0.76870  Biso   1.000  C
  C360     1.0000 0.59900  0.22130  0.78090  Biso   1.000  C
  H301     1.0000 0.61570  0.20220  0.81980  Biso   1.000  H
  C361     1.0000 0.55080  0.22260  0.73130  Biso   1.000  C
  H302     1.0000 0.53320  0.20480  0.73630  Biso   1.000  H
  C362     1.0000 0.75300  0.24690  0.85790  Biso   1.000  C
  H303     1.0000 0.76890  0.24070  0.84470  Biso   1.000  H
  C363     1.0000 0.70370  0.25000  0.81020  Biso   1.000  C
  H304     1.0000 0.68880  0.25480  0.76530  Biso   1.000  H
  C364     1.0000 0.67360  0.24700  0.82010  Biso   1.000  C
  C365     1.0000 0.75420  0.25000  0.93890  Biso   1.000  C
  H305     1.0000 0.76980  0.24740  0.98440  Biso   1.000  H
  C366     1.0000 0.70490  0.25000  0.88840  Biso   1.000  C
  H306     1.0000 0.69080  0.25260  0.90490  Biso   1.000  H
  N16      1.0000 0.52800  0.25010  0.67390  Biso   1.000  N
  O56      1.0000 0.36330  0.20960  0.45120  Biso   1.000  O
  O57      1.0000 0.44050  0.21550  0.52520  Biso   1.000  O
  O58      1.0000 0.36170  0.80720  0.05340  Biso   1.000  O
  O59      1.0000 0.44200  0.81190  0.12770  Biso   1.000  O
  O60      1.0000 0.36540  0.11110  0.21940  Biso   1.000  O
  O61      1.0000 0.46070  0.93910  0.34880  Biso   1.000  O
  O62      1.0000 0.85800  0.19310  0.96020  Biso   1.000  O
  O63      1.0000 0.94010  0.18519  0.05040  Biso   1.000  O
  O64      1.0000 0.85790  0.79320  0.56410  Biso   1.000  O
  O65      1.0000 0.93989  0.78950  0.64960  Biso   1.000  O
  O66      1.0000 0.93690  0.95110  0.95070  Biso   1.000  O
  Zn11     1.0000 0.45307  0.25113  0.60079  Biso   1.000  Zn
  Zn12     1.0000 0.34916  0.24762  0.49686  Biso   1.000  Zn
  N17      1.0000 0.77720  0.25330  0.92500  Biso   1.000  N
  N18      1.0000 0.74550  0.24622  0.89170  Biso   1.000  N
  C367     1.0000 0.90030  0.30220  0.96890  Biso   1.000  C
  C368     1.0000 0.90070  0.33570  0.92780  Biso   1.000  C
  C369     1.0000 0.85970  0.35600  0.86930  Biso   1.000  C
  H307     1.0000 0.83140  0.35150  0.85790  Biso   1.000  H
  C370     1.0000 0.85970  0.38230  0.82830  Biso   1.000  C
  H308     1.0000 0.83000  0.39000  0.78570  Biso   1.000  H
  C371     1.0000 0.89590  0.39800  0.84110  Biso   1.000  C
  C372     1.0000 0.94460  0.38470  0.91140  Biso   1.000  C
  H309     1.0000 0.97290  0.39760  0.92780  Biso   1.000  H
  C373     1.0000 0.94320  0.34960  0.95120  Biso   1.000  C
  H310     1.0000 0.97140  0.33710  0.99210  Biso   1.000  H
  C374     1.0000 0.90020  0.67110  0.59840  Biso   1.000  C
  C375     1.0000 0.90470  0.62450  0.63490  Biso   1.000  C
  C376     1.0000 0.85790  0.60880  0.60410  Biso   1.000  C
  H311     1.0000 0.82970  0.62070  0.56280  Biso   1.000  H
  C377     1.0000 0.85970  0.57220  0.64510  Biso   1.000  C
  H312     1.0000 0.83180  0.56270  0.63270  Biso   1.000  H
  C378     1.0000 0.90050  0.55290  0.69910  Biso   1.000  C
  C379     1.0000 0.94330  0.57040  0.72090  Biso   1.000  C
  H313     1.0000 0.97200  0.55570  0.75790  Biso   1.000  H
  C380     1.0000 0.94320  0.60550  0.69140  Biso   1.000  C
  H314     1.0000 0.97230  0.61860  0.71110  Biso   1.000  H
  C381     1.0000 0.90510  0.50930  0.73800  Biso   1.000  C
  C382     1.0000 0.88580  0.46890  0.70930  Biso   1.000  C
  H315     1.0000 0.87340  0.46200  0.66620  Biso   1.000  H
  C383     1.0000 0.88370  0.42990  0.75120  Biso   1.000  C
  C384     1.0000 0.90190  0.44010  0.80890  Biso   1.000  C
  C385     1.0000 0.93620  0.48220  0.85140  Biso   1.000  C
  H316     1.0000 0.95310  0.48460  0.89740  Biso   1.000  H
  C386     1.0000 0.94240  0.51950  0.81870  Biso   1.000  C
  C387     1.0000 0.84310  0.36640  0.65770  Biso   1.000  C
  H317     1.0000 0.83930  0.39090  0.62870  Biso   1.000  H
  H318     1.0000 0.86510  0.34240  0.66710  Biso   1.000  H
  C388     1.0000 0.79080  0.33890  0.61170  Biso   1.000  C
  H319     1.0000 0.76520  0.35640  0.57010  Biso   1.000  H
  H320     1.0000 0.79140  0.30540  0.60100  Biso   1.000  H
  C389     1.0000 0.00320  0.55270  0.91870  Biso   1.000  C
  H321     1.0000 0.00430  0.51870  0.92900  Biso   1.000  H
  H322     1.0000 0.00150  0.57170  0.94680  Biso   1.000  H
  C390     1.0000 0.04600  0.56420  0.93760  Biso   1.000  C
  H323     1.0000 0.05740  0.59390  0.96410  Biso   1.000  H
  H324     1.0000 0.03730  0.57260  0.89570  Biso   1.000  H
  C391     1.0000 0.08350  0.53520  0.97160  Biso   1.000  C
  H325     1.0000 0.10370  0.54740  0.96580  Biso   1.000  H
  H326     1.0000 0.10150  0.53750  0.01970  Biso   1.000  H
  C392     1.0000 0.07340  0.48000  0.95120  Biso   1.000  C
  H327     1.0000 0.07020  0.47350  0.91330  Biso   1.000  H
  H328     1.0000 0.04510  0.46880  0.93980  Biso   1.000  H
  C393     1.0000 0.11160  0.46070  0.00730  Biso   1.000  C
  H329     1.0000 0.12640  0.43990  0.99780  Biso   1.000  H
  H330     1.0000 0.13410  0.48600  0.03850  Biso   1.000  H
  C394     1.0000 0.09960  0.43280  0.03770  Biso   1.000  C
  H331     1.0000 0.10310  0.39960  0.03000  Biso   1.000  H
  H332     1.0000 0.06560  0.43780  0.00650  Biso   1.000  H
  C395     1.0000 0.11470  0.43000  0.10270  Biso   1.000  C
  H333     1.0000 0.09670  0.40540  0.10130  Biso   1.000  H
  H334     1.0000 0.14790  0.42190  0.13720  Biso   1.000  H
  H335     1.0000 0.10960  0.46080  0.11320  Biso   1.000  H
  C396     1.0000 0.39650  0.32890  0.49400  Biso   1.000  C
  C397     1.0000 0.39980  0.37500  0.46430  Biso   1.000  C
  C398     1.0000 0.35530  0.38760  0.40070  Biso   1.000  C
  H336     1.0000 0.32760  0.37720  0.38840  Biso   1.000  H
  C399     1.0000 0.35270  0.41690  0.35440  Biso   1.000  C
  H337     1.0000 0.32900  0.41530  0.30710  Biso   1.000  H
  C400     1.0000 0.39420  0.44990  0.39550  Biso   1.000  C
  C401     1.0000 0.44370  0.43220  0.45990  Biso   1.000  C
  H338     1.0000 0.47230  0.44500  0.47750  Biso   1.000  H
  C402     1.0000 0.43850  0.39340  0.48790  Biso   1.000  C
  H339     1.0000 0.46650  0.37980  0.52790  Biso   1.000  H
  C403     1.0000 0.40080  0.69830  0.12620  Biso   1.000  C
  C404     1.0000 0.39890  0.66210  0.16980  Biso   1.000  C
  C405     1.0000 0.44290  0.64930  0.23260  Biso   1.000  C
  H340     1.0000 0.47120  0.66300  0.25020  Biso   1.000  H
  C406     1.0000 0.44090  0.61340  0.26780  Biso   1.000  C
  H341     1.0000 0.46890  0.59900  0.30680  Biso   1.000  H
  C407     1.0000 0.39810  0.59960  0.24520  Biso   1.000  C
  C408     1.0000 0.35740  0.61950  0.18320  Biso   1.000  C
  H342     1.0000 0.32800  0.61050  0.16640  Biso   1.000  H
  C409     1.0000 0.35810  0.64810  0.14950  Biso   1.000  C
  H343     1.0000 0.32950  0.66030  0.10890  Biso   1.000  H
  C410     1.0000 0.39350  0.55960  0.28440  Biso   1.000  C
  C411     1.0000 0.42350  0.56460  0.35010  Biso   1.000  C
  H344     1.0000 0.44750  0.58780  0.37460  Biso   1.000  H
  C412     1.0000 0.41520  0.52870  0.38240  Biso   1.000  C
  C413     1.0000 0.39940  0.49120  0.36110  Biso   1.000  C
  C414     1.0000 0.35710  0.48960  0.27930  Biso   1.000  C
  H345     1.0000 0.33510  0.46460  0.26120  Biso   1.000  H
  C415     1.0000 0.34880  0.52190  0.23040  Biso   1.000  C
  C416     1.0000 0.44640  0.58230  0.46740  Biso   1.000  C
  H346     1.0000 0.43660  0.60020  0.42880  Biso   1.000  H
  H347     1.0000 0.48080  0.58120  0.50040  Biso   1.000  H
  C417     1.0000 0.43570  0.62010  0.50170  Biso   1.000  C
  H348     1.0000 0.41030  0.60770  0.49680  Biso   1.000  H
  H349     1.0000 0.42610  0.65150  0.47940  Biso   1.000  H
  C418     1.0000 0.05120  0.23970  0.16000  Biso   1.000  C
  H350     1.0000 0.03510  0.23290  0.11500  Biso   1.000  H
  C419     1.0000 0.10110  0.23810  0.21050  Biso   1.000  C
  H351     1.0000 0.11720  0.22960  0.19820  Biso   1.000  H
  C420     1.0000 0.12340  0.24730  0.26870  Biso   1.000  C
  C421     1.0000 0.09900  0.27870  0.28090  Biso   1.000  C
  H352     1.0000 0.11570  0.29780  0.31980  Biso   1.000  H
  C422     1.0000 0.05080  0.27740  0.23130  Biso   1.000  C
  H353     1.0000 0.03320  0.29520  0.23630  Biso   1.000  H
  C423     1.0000 0.25300  0.25310  0.35790  Biso   1.000  C
  H354     1.0000 0.26890  0.25930  0.34470  Biso   1.000  H
  C424     1.0000 0.20370  0.25000  0.31020  Biso   1.000  C
  H355     1.0000 0.18880  0.24520  0.26530  Biso   1.000  H
  C425     1.0000 0.17360  0.25300  0.32010  Biso   1.000  C
  C426     1.0000 0.25420  0.25000  0.43890  Biso   1.000  C
  H356     1.0000 0.26980  0.25260  0.48440  Biso   1.000  H
  C427     1.0000 0.20490  0.25000  0.38840  Biso   1.000  C
  H357     1.0000 0.19080  0.24740  0.40490  Biso   1.000  H
  N19      1.0000 0.02800  0.24990  0.17390  Biso   1.000  N
  O67      1.0000 0.86330  0.29040  0.95120  Biso   1.000  O
  O68      1.0000 0.94050  0.28450  0.02520  Biso   1.000  O
  O69      1.0000 0.86170  0.69280  0.55340  Biso   1.000  O
  O70      1.0000 0.94200  0.68810  0.62770  Biso   1.000  O
  O71      1.0000 0.86540  0.38890  0.71940  Biso   1.000  O
  O72      1.0000 0.96070  0.56090  0.84880  Biso   1.000  O
  O73      1.0000 0.35800  0.30690  0.46020  Biso   1.000  O
  O74      1.0000 0.44010  0.31481  0.55040  Biso   1.000  O
  O75      1.0000 0.35790  0.70680  0.06410  Biso   1.000  O
  O76      1.0000 0.43989  0.71050  0.14960  Biso   1.000  O
  O77      1.0000 0.43690  0.54890  0.45070  Biso   1.000  O
  Zn13     1.0000 0.95307  0.24887  0.10079  Biso   1.000  Zn
  Zn14     1.0000 0.84915  0.25238  0.99686  Biso   1.000  Zn
  N20      1.0000 0.27720  0.24670  0.42500  Biso   1.000  N
  N21      1.0000 0.24550  0.25378  0.39170  Biso   1.000  N
  C428     1.0000 0.40030  0.80220  0.96890  Biso   1.000  C
  C429     1.0000 0.40070  0.83570  0.92780  Biso   1.000  C
  C430     1.0000 0.35970  0.85600  0.86930  Biso   1.000  C
  H358     1.0000 0.33140  0.85150  0.85790  Biso   1.000  H
  C431     1.0000 0.35970  0.88230  0.82830  Biso   1.000  C
  H359     1.0000 0.33000  0.89000  0.78570  Biso   1.000  H
  C432     1.0000 0.39590  0.89800  0.84110  Biso   1.000  C
  C433     1.0000 0.44460  0.88470  0.91140  Biso   1.000  C
  H360     1.0000 0.47290  0.89760  0.92780  Biso   1.000  H
  C434     1.0000 0.44320  0.84960  0.95120  Biso   1.000  C
  H361     1.0000 0.47140  0.83710  0.99210  Biso   1.000  H
  C435     1.0000 0.40020  0.17110  0.59840  Biso   1.000  C
  C436     1.0000 0.40470  0.12450  0.63490  Biso   1.000  C
  C437     1.0000 0.35790  0.10880  0.60410  Biso   1.000  C
  H362     1.0000 0.32970  0.12070  0.56280  Biso   1.000  H
  C438     1.0000 0.35970  0.07220  0.64510  Biso   1.000  C
  H363     1.0000 0.33180  0.06270  0.63270  Biso   1.000  H
  C439     1.0000 0.40050  0.05290  0.69910  Biso   1.000  C
  C440     1.0000 0.44330  0.07040  0.72090  Biso   1.000  C
  H364     1.0000 0.47200  0.05570  0.75790  Biso   1.000  H
  C441     1.0000 0.44320  0.10550  0.69140  Biso   1.000  C
  H365     1.0000 0.47230  0.11860  0.71110  Biso   1.000  H
  C442     1.0000 0.40510  0.00930  0.73800  Biso   1.000  C
  C443     1.0000 0.38580  0.96890  0.70930  Biso   1.000  C
  H366     1.0000 0.37340  0.96200  0.66620  Biso   1.000  H
  C444     1.0000 0.38370  0.92990  0.75120  Biso   1.000  C
  C445     1.0000 0.40190  0.94010  0.80890  Biso   1.000  C
  C446     1.0000 0.43620  0.98220  0.85140  Biso   1.000  C
  H367     1.0000 0.45310  0.98460  0.89740  Biso   1.000  H
  C447     1.0000 0.44240  0.01950  0.81870  Biso   1.000  C
  C448     1.0000 0.34310  0.86640  0.65770  Biso   1.000  C
  H368     1.0000 0.33930  0.89090  0.62870  Biso   1.000  H
  H369     1.0000 0.36510  0.84240  0.66710  Biso   1.000  H
  C449     1.0000 0.29080  0.83890  0.61170  Biso   1.000  C
  H370     1.0000 0.26520  0.85640  0.57010  Biso   1.000  H
  H371     1.0000 0.29140  0.80540  0.60100  Biso   1.000  H
  C450     1.0000 0.50320  0.05270  0.91870  Biso   1.000  C
  H372     1.0000 0.50430  0.01870  0.92900  Biso   1.000  H
  H373     1.0000 0.50150  0.07170  0.94680  Biso   1.000  H
  C451     1.0000 0.54600  0.06420  0.93760  Biso   1.000  C
  H374     1.0000 0.55740  0.09390  0.96410  Biso   1.000  H
  H375     1.0000 0.53730  0.07260  0.89570  Biso   1.000  H
  C452     1.0000 0.58350  0.03520  0.97160  Biso   1.000  C
  H376     1.0000 0.60370  0.04740  0.96580  Biso   1.000  H
  H377     1.0000 0.60150  0.03750  0.01970  Biso   1.000  H
  C453     1.0000 0.57340  0.98000  0.95120  Biso   1.000  C
  H378     1.0000 0.57020  0.97350  0.91330  Biso   1.000  H
  H379     1.0000 0.54510  0.96880  0.93980  Biso   1.000  H
  C454     1.0000 0.61160  0.96070  0.00730  Biso   1.000  C
  H380     1.0000 0.62640  0.93990  0.99780  Biso   1.000  H
  H381     1.0000 0.63410  0.98600  0.03850  Biso   1.000  H
  C455     1.0000 0.59960  0.93280  0.03770  Biso   1.000  C
  H382     1.0000 0.60310  0.89960  0.03000  Biso   1.000  H
  H383     1.0000 0.56560  0.93780  0.00650  Biso   1.000  H
  C456     1.0000 0.61470  0.93000  0.10270  Biso   1.000  C
  H384     1.0000 0.59670  0.90540  0.10130  Biso   1.000  H
  H385     1.0000 0.64790  0.92190  0.13720  Biso   1.000  H
  H386     1.0000 0.60960  0.96080  0.11320  Biso   1.000  H
  C457     1.0000 0.89650  0.82890  0.49400  Biso   1.000  C
  C458     1.0000 0.89980  0.87500  0.46430  Biso   1.000  C
  C459     1.0000 0.85530  0.88760  0.40070  Biso   1.000  C
  H387     1.0000 0.82760  0.87720  0.38840  Biso   1.000  H
  C460     1.0000 0.85270  0.91690  0.35440  Biso   1.000  C
  H388     1.0000 0.82900  0.91530  0.30710  Biso   1.000  H
  C461     1.0000 0.89420  0.94990  0.39550  Biso   1.000  C
  C462     1.0000 0.94370  0.93220  0.45990  Biso   1.000  C
  H389     1.0000 0.97230  0.94500  0.47750  Biso   1.000  H
  C463     1.0000 0.93850  0.89340  0.48790  Biso   1.000  C
  H390     1.0000 0.96650  0.87980  0.52790  Biso   1.000  H
  C464     1.0000 0.90080  0.19830  0.12620  Biso   1.000  C
  C465     1.0000 0.89890  0.16210  0.16980  Biso   1.000  C
  C466     1.0000 0.94290  0.14930  0.23260  Biso   1.000  C
  H391     1.0000 0.97120  0.16300  0.25020  Biso   1.000  H
  C467     1.0000 0.94090  0.11340  0.26780  Biso   1.000  C
  H392     1.0000 0.96890  0.09900  0.30680  Biso   1.000  H
  C468     1.0000 0.89810  0.09960  0.24520  Biso   1.000  C
  C469     1.0000 0.85740  0.11950  0.18320  Biso   1.000  C
  H393     1.0000 0.82800  0.11050  0.16640  Biso   1.000  H
  C470     1.0000 0.85810  0.14810  0.14950  Biso   1.000  C
  H394     1.0000 0.82950  0.16030  0.10890  Biso   1.000  H
  C471     1.0000 0.89350  0.05960  0.28440  Biso   1.000  C
  C472     1.0000 0.92350  0.06460  0.35010  Biso   1.000  C
  H395     1.0000 0.94750  0.08780  0.37460  Biso   1.000  H
  C473     1.0000 0.91520  0.02870  0.38240  Biso   1.000  C
  C474     1.0000 0.89940  0.99120  0.36110  Biso   1.000  C
  C475     1.0000 0.85710  0.98960  0.27930  Biso   1.000  C
  H396     1.0000 0.83510  0.96460  0.26120  Biso   1.000  H
  C476     1.0000 0.84880  0.02190  0.23040  Biso   1.000  C
  C477     1.0000 0.94640  0.08230  0.46740  Biso   1.000  C
  H397     1.0000 0.93660  0.10020  0.42880  Biso   1.000  H
  H398     1.0000 0.98080  0.08120  0.50040  Biso   1.000  H
  C478     1.0000 0.93570  0.12010  0.50170  Biso   1.000  C
  H399     1.0000 0.91030  0.10770  0.49680  Biso   1.000  H
  H400     1.0000 0.92610  0.15150  0.47940  Biso   1.000  H
  C479     1.0000 0.55120  0.73970  0.16000  Biso   1.000  C
  H401     1.0000 0.53510  0.73290  0.11500  Biso   1.000  H
  C480     1.0000 0.60110  0.73810  0.21050  Biso   1.000  C
  H402     1.0000 0.61720  0.72960  0.19820  Biso   1.000  H
  C481     1.0000 0.62340  0.74730  0.26870  Biso   1.000  C
  C482     1.0000 0.59900  0.77870  0.28090  Biso   1.000  C
  H403     1.0000 0.61570  0.79780  0.31980  Biso   1.000  H
  C483     1.0000 0.55080  0.77740  0.23130  Biso   1.000  C
  H404     1.0000 0.53320  0.79520  0.23630  Biso   1.000  H
  C484     1.0000 0.75300  0.75310  0.35790  Biso   1.000  C
  H405     1.0000 0.76890  0.75930  0.34470  Biso   1.000  H
  C485     1.0000 0.70370  0.75000  0.31020  Biso   1.000  C
  H406     1.0000 0.68880  0.74520  0.26530  Biso   1.000  H
  C486     1.0000 0.67360  0.75300  0.32010  Biso   1.000  C
  C487     1.0000 0.75420  0.75000  0.43890  Biso   1.000  C
  H407     1.0000 0.76980  0.75260  0.48440  Biso   1.000  H
  C488     1.0000 0.70490  0.75000  0.38840  Biso   1.000  C
  H408     1.0000 0.69080  0.74740  0.40490  Biso   1.000  H
  N22      1.0000 0.52800  0.74990  0.17390  Biso   1.000  N
  O78      1.0000 0.36330  0.79040  0.95120  Biso   1.000  O
  O79      1.0000 0.44050  0.78450  0.02520  Biso   1.000  O
  O80      1.0000 0.36170  0.19280  0.55340  Biso   1.000  O
  O81      1.0000 0.44200  0.18810  0.62770  Biso   1.000  O
  O82      1.0000 0.36540  0.88890  0.71940  Biso   1.000  O
  O83      1.0000 0.46070  0.06090  0.84880  Biso   1.000  O
  O84      1.0000 0.85800  0.80690  0.46020  Biso   1.000  O
  O85      1.0000 0.94010  0.81481  0.55040  Biso   1.000  O
  O86      1.0000 0.85790  0.20680  0.06410  Biso   1.000  O
  O87      1.0000 0.93989  0.21050  0.14960  Biso   1.000  O
  O88      1.0000 0.93690  0.04890  0.45070  Biso   1.000  O
  Zn15     1.0000 0.45307  0.74887  0.10079  Biso   1.000  Zn
  Zn16     1.0000 0.34916  0.75238  0.99686  Biso   1.000  Zn
  N23      1.0000 0.77720  0.74670  0.42500  Biso   1.000  N
  N24      1.0000 0.74550  0.75378  0.39170  Biso   1.000  N
