data_image0
_cell_length_a       39.0207
_cell_length_b       26.9906
_cell_length_c       27.3897
_cell_angle_alpha    90
_cell_angle_beta     134.565
_cell_angle_gamma    90

_symmetry_space_group_name_H-M    "P 1"
_symmetry_int_tables_number       1

loop_
  _symmetry_equiv_pos_as_xyz
  'x, y, z'

loop_
  _atom_site_label
  _atom_site_occupancy
  _atom_site_fract_x
  _atom_site_fract_y
  _atom_site_fract_z
  _atom_site_thermal_displace_type
  _atom_site_B_iso_or_equiv
  _atom_site_type_symbol
  C1       1.0000 0.60680  0.83410  0.41280  Biso   1.000  C
  C2       1.0000 0.60720  0.87800  0.38260  Biso   1.000  C
  C3       1.0000 0.65010  0.89690  0.40610  Biso   1.000  C
  H1       1.0000 0.67970  0.88310  0.44640  Biso   1.000  H
  C4       1.0000 0.65130  0.93440  0.37340  Biso   1.000  C
  H2       1.0000 0.68110  0.94430  0.38940  Biso   1.000  H
  C5       1.0000 0.61020  0.95730  0.31880  Biso   1.000  C
  C6       1.0000 0.56650  0.94270  0.29520  Biso   1.000  C
  H3       1.0000 0.53740  0.95880  0.25710  Biso   1.000  H
  C7       1.0000 0.56620  0.90380  0.32890  Biso   1.000  C
  H4       1.0000 0.53660  0.89490  0.31420  Biso   1.000  H
  C8       1.0000 0.61130  0.99820  0.28430  Biso   1.000  C
  C9       1.0000 0.63670  0.99210  0.26540  Biso   1.000  C
  C10      1.0000 0.58220  0.04140  0.26160  Biso   1.000  C
  H5       1.0000 0.56380  0.04790  0.27160  Biso   1.000  H
  C11      1.0000 0.58390  0.07270  0.22350  Biso   1.000  C
  C12      1.0000 0.60480  0.07090  0.20250  Biso   1.000  C
  C13      1.0000 0.63660  0.02780  0.22640  Biso   1.000  C
  H6       1.0000 0.65560  0.02400  0.21680  Biso   1.000  H
  C14      1.0000 0.60550  0.10800  0.16420  Biso   1.000  C
  C15      1.0000 0.56600  0.12530  0.10810  Biso   1.000  C
  H7       1.0000 0.53650  0.11450  0.09260  Biso   1.000  H
  C16      1.0000 0.56480  0.16160  0.06680  Biso   1.000  C
  H8       1.0000 0.53560  0.17740  0.02860  Biso   1.000  H
  C17      1.0000 0.60550  0.17180  0.08410  Biso   1.000  C
  C18      1.0000 0.64720  0.15320  0.14380  Biso   1.000  C
  H9       1.0000 0.67630  0.16100  0.15670  Biso   1.000  H
  C19      1.0000 0.64930  0.12380  0.18660  Biso   1.000  C
  H10      1.0000 0.67930  0.11420  0.23020  Biso   1.000  H
  C20      1.0000 0.60390  0.20410  0.03650  Biso   1.000  C
  C21      1.0000 0.68660  0.94630  0.25980  Biso   1.000  C
  H11      1.0000 0.71430  0.96920  0.28900  Biso   1.000  H
  H12      1.0000 0.66660  0.95430  0.21100  Biso   1.000  H
  C22      1.0000 0.70410  0.88720  0.27710  Biso   1.000  C
  H13      1.0000 0.67630  0.86490  0.25480  Biso   1.000  H
  H14      1.0000 0.72830  0.88120  0.32720  Biso   1.000  H
  C23      1.0000 0.59590  0.66680  0.49350  Biso   1.000  C
  C24      1.0000 0.59420  0.62200  0.52220  Biso   1.000  C
  C25      1.0000 0.55050  0.59910  0.49190  Biso   1.000  C
  H15      1.0000 0.52110  0.61280  0.45100  Biso   1.000  H
  C26      1.0000 0.54920  0.55660  0.52050  Biso   1.000  C
  H16      1.0000 0.52030  0.53900  0.49820  Biso   1.000  H
  C27      1.0000 0.59640  0.54160  0.58820  Biso   1.000  C
  C28      1.0000 0.63820  0.56510  0.61820  Biso   1.000  C
  H17      1.0000 0.66770  0.55470  0.66190  Biso   1.000  H
  C29      1.0000 0.63710  0.60460  0.58430  Biso   1.000  C
  H18      1.0000 0.66650  0.61990  0.60420  Biso   1.000  H
  C30      1.0000 0.60100  0.49400  0.62920  Biso   1.000  C
  C31      1.0000 0.63140  0.50800  0.70810  Biso   1.000  C
  H19      1.0000 0.64790  0.53850  0.72920  Biso   1.000  H
  C32      1.0000 0.59320  0.45240  0.61700  Biso   1.000  C
  C33      1.0000 0.58070  0.41790  0.64100  Biso   1.000  C
  H20      1.0000 0.55990  0.39060  0.61460  Biso   1.000  H
  C34      1.0000 0.59960  0.42680  0.70000  Biso   1.000  C
  C35      1.0000 0.63040  0.47130  0.73990  Biso   1.000  C
  C36      1.0000 0.59840  0.39300  0.74450  Biso   1.000  C
  C37      1.0000 0.55390  0.37280  0.71850  Biso   1.000  C
  H21      1.0000 0.52420  0.38130  0.67390  Biso   1.000  H
  C38      1.0000 0.55500  0.34200  0.75750  Biso   1.000  C
  H22      1.0000 0.52590  0.32830  0.74030  Biso   1.000  H
  C39      1.0000 0.59990  0.32910  0.82540  Biso   1.000  C
  C40      1.0000 0.64110  0.34770  0.84810  Biso   1.000  C
  H23      1.0000 0.67090  0.33890  0.89250  Biso   1.000  H
  C41      1.0000 0.64130  0.37890  0.80900  Biso   1.000  C
  H24      1.0000 0.67090  0.39090  0.82610  Biso   1.000  H
  C42      1.0000 0.60080  0.29720  0.87060  Biso   1.000  C
  C43      1.0000 0.54870  0.38820  0.51710  Biso   1.000  C
  H25      1.0000 0.51860  0.39010  0.46780  Biso   1.000  H
  H26      1.0000 0.57340  0.37470  0.51940  Biso   1.000  H
  C44      1.0000 0.54190  0.35680  0.53900  Biso   1.000  C
  H27      1.0000 0.50700  0.35010  0.50710  Biso   1.000  H
  H28      1.0000 0.55430  0.36700  0.58370  Biso   1.000  H
  C45      1.0000 0.56790  0.31090  0.54750  Biso   1.000  C
  H29      1.0000 0.59870  0.31990  0.56240  Biso   1.000  H
  H30      1.0000 0.57480  0.28850  0.58210  Biso   1.000  H
  C46      1.0000 0.53620  0.28730  0.48130  Biso   1.000  C
  H31      1.0000 0.54830  0.29590  0.46040  Biso   1.000  H
  H32      1.0000 0.54080  0.25110  0.48980  Biso   1.000  H
  C47      1.0000 0.48680  0.29560  0.43130  Biso   1.000  C
  H33      1.0000 0.48070  0.31610  0.39590  Biso   1.000  H
  H34      1.0000 0.48020  0.31730  0.45320  Biso   1.000  H
  C48      1.0000 0.44920  0.25890  0.39430  Biso   1.000  C
  H35      1.0000 0.46470  0.22590  0.41140  Biso   1.000  H
  H36      1.0000 0.43060  0.26330  0.40620  Biso   1.000  H
  C49      1.0000 0.41570  0.25820  0.32090  Biso   1.000  C
  H37      1.0000 0.40410  0.22350  0.30730  Biso   1.000  H
  H38      1.0000 0.43530  0.26370  0.31080  Biso   1.000  H
  C50      1.0000 0.37360  0.28860  0.27270  Biso   1.000  C
  H39      1.0000 0.35760  0.27990  0.22590  Biso   1.000  H
  H40      1.0000 0.38310  0.32360  0.28130  Biso   1.000  H
  H41      1.0000 0.35150  0.28300  0.27790  Biso   1.000  H
  C51      1.0000 0.68460  0.52870  0.83720  Biso   1.000  C
  H42      1.0000 0.70850  0.52690  0.83440  Biso   1.000  H
  H43      1.0000 0.66520  0.55930  0.81420  Biso   1.000  H
  C52      1.0000 0.70860  0.52610  0.91110  Biso   1.000  C
  H44      1.0000 0.68320  0.51800  0.90970  Biso   1.000  H
  H45      1.0000 0.73100  0.49760  0.93280  Biso   1.000  H
  C53      1.0000 0.73740  0.57150  0.96080  Biso   1.000  C
  H46      1.0000 0.71520  0.60020  0.93930  Biso   1.000  H
  H47      1.0000 0.76310  0.57950  0.96280  Biso   1.000  H
  C54      1.0000 0.76000  0.56800  0.03200  Biso   1.000  C
  H48      1.0000 0.78600  0.54300  0.05620  Biso   1.000  H
  H49      1.0000 0.73560  0.55550  0.03090  Biso   1.000  H
  C55      1.0000 0.77950  0.61170  0.07090  Biso   1.000  C
  H50      1.0000 0.81510  0.61000  0.10500  Biso   1.000  H
  H51      1.0000 0.76900  0.64030  0.04040  Biso   1.000  H
  C56      1.0000 0.76220  0.61980  0.11120  Biso   1.000  C
  H52      1.0000 0.74250  0.65030  0.09230  Biso   1.000  H
  H53      1.0000 0.79160  0.62680  0.15980  Biso   1.000  H
  C57      1.0000 0.73330  0.57910  0.11130  Biso   1.000  C
  H54      1.0000 0.69840  0.58300  0.07040  Biso   1.000  H
  H55      1.0000 0.73910  0.58280  0.15260  Biso   1.000  H
  C58      1.0000 0.74980  0.52800  0.11090  Biso   1.000  C
  H56      1.0000 0.73200  0.50240  0.11100  Biso   1.000  H
  H57      1.0000 0.74370  0.52450  0.06970  Biso   1.000  H
  H58      1.0000 0.78430  0.52430  0.15180  Biso   1.000  H
  C59      1.0000 0.74870  0.75280  0.63920  Biso   1.000  C
  H59      1.0000 0.73090  0.76030  0.65010  Biso   1.000  H
  C60      1.0000 0.79950  0.75290  0.69160  Biso   1.000  C
  H60      1.0000 0.81560  0.76580  0.73550  Biso   1.000  H
  C61      1.0000 0.82450  0.73540  0.68050  Biso   1.000  C
  C62      1.0000 0.79910  0.71690  0.61760  Biso   1.000  C
  H61      1.0000 0.81430  0.70510  0.60400  Biso   1.000  H
  C63      1.0000 0.75000  0.71610  0.57380  Biso   1.000  C
  H62      1.0000 0.73180  0.69380  0.53610  Biso   1.000  H
  C64      1.0000 0.95410  0.71440  0.77470  Biso   1.000  C
  H63      1.0000 0.97150  0.69880  0.76640  Biso   1.000  H
  C65      1.0000 0.90340  0.71120  0.72360  Biso   1.000  C
  H64      1.0000 0.88690  0.69370  0.68210  Biso   1.000  H
  C66      1.0000 0.87840  0.73430  0.73600  Biso   1.000  C
  C67      1.0000 0.90350  0.75850  0.79620  Biso   1.000  C
  H65      1.0000 0.88700  0.77440  0.80570  Biso   1.000  H
  C68      1.0000 0.95210  0.76000  0.84270  Biso   1.000  C
  H66      1.0000 0.96890  0.77730  0.88440  Biso   1.000  H
  O1       1.0000 0.56496  0.81800  0.38440  Biso   1.000  O
  O2       1.0000 0.64392  0.81240  0.45930  Biso   1.000  O
  O3       1.0000 0.56652  0.21710  0.98480  Biso   1.000  O
  O4       1.0000 0.64575  0.21550  0.05970  Biso   1.000  O
  O5       1.0000 0.65690  0.94760  0.27770  Biso   1.000  O
  O6       1.0000 0.55450  0.11630  0.19730  Biso   1.000  O
  O7       1.0000 0.55491  0.68511  0.43910  Biso   1.000  O
  O8       1.0000 0.63448  0.68550  0.52300  Biso   1.000  O
  O9       1.0000 0.56093  0.28234  0.84740  Biso   1.000  O
  O10      1.0000 0.64117  0.28740  0.92900  Biso   1.000  O
  O11      1.0000 0.56320  0.44100  0.54000  Biso   1.000  O
  O12      1.0000 0.65460  0.48520  0.80850  Biso   1.000  O
  Zn1      1.0000 0.65280  0.74784  0.50455  Biso   1.000  Zn
  Zn2      1.0000 0.54927  0.75237  0.40091  Biso   1.000  Zn
  N1       1.0000 0.72790  0.74340  0.58150  Biso   1.000  N
  N2       1.0000 0.97841  0.73790  0.83290  Biso   1.000  N
  C69      1.0000 0.10680  0.33410  0.41280  Biso   1.000  C
  C70      1.0000 0.10720  0.37800  0.38260  Biso   1.000  C
  C71      1.0000 0.15010  0.39690  0.40610  Biso   1.000  C
  H67      1.0000 0.17970  0.38310  0.44640  Biso   1.000  H
  C72      1.0000 0.15130  0.43440  0.37340  Biso   1.000  C
  H68      1.0000 0.18110  0.44430  0.38940  Biso   1.000  H
  C73      1.0000 0.11020  0.45730  0.31880  Biso   1.000  C
  C74      1.0000 0.06650  0.44270  0.29520  Biso   1.000  C
  H69      1.0000 0.03740  0.45880  0.25710  Biso   1.000  H
  C75      1.0000 0.06620  0.40380  0.32890  Biso   1.000  C
  H70      1.0000 0.03660  0.39490  0.31420  Biso   1.000  H
  C76      1.0000 0.11130  0.49820  0.28430  Biso   1.000  C
  C77      1.0000 0.13670  0.49210  0.26540  Biso   1.000  C
  C78      1.0000 0.08220  0.54140  0.26160  Biso   1.000  C
  H71      1.0000 0.06380  0.54790  0.27160  Biso   1.000  H
  C79      1.0000 0.08390  0.57270  0.22350  Biso   1.000  C
  C80      1.0000 0.10480  0.57090  0.20250  Biso   1.000  C
  C81      1.0000 0.13660  0.52780  0.22640  Biso   1.000  C
  H72      1.0000 0.15560  0.52400  0.21680  Biso   1.000  H
  C82      1.0000 0.10550  0.60800  0.16420  Biso   1.000  C
  C83      1.0000 0.06600  0.62530  0.10810  Biso   1.000  C
  H73      1.0000 0.03650  0.61450  0.09260  Biso   1.000  H
  C84      1.0000 0.06480  0.66160  0.06680  Biso   1.000  C
  H74      1.0000 0.03560  0.67740  0.02860  Biso   1.000  H
  C85      1.0000 0.10550  0.67180  0.08410  Biso   1.000  C
  C86      1.0000 0.14720  0.65320  0.14380  Biso   1.000  C
  H75      1.0000 0.17630  0.66100  0.15670  Biso   1.000  H
  C87      1.0000 0.14930  0.62380  0.18660  Biso   1.000  C
  H76      1.0000 0.17930  0.61420  0.23020  Biso   1.000  H
  C88      1.0000 0.10390  0.70410  0.03650  Biso   1.000  C
  C89      1.0000 0.18660  0.44630  0.25980  Biso   1.000  C
  H77      1.0000 0.21430  0.46920  0.28900  Biso   1.000  H
  H78      1.0000 0.16660  0.45430  0.21100  Biso   1.000  H
  C90      1.0000 0.20410  0.38720  0.27710  Biso   1.000  C
  H79      1.0000 0.17630  0.36490  0.25480  Biso   1.000  H
  H80      1.0000 0.22830  0.38120  0.32720  Biso   1.000  H
  C91      1.0000 0.09590  0.16680  0.49350  Biso   1.000  C
  C92      1.0000 0.09420  0.12200  0.52220  Biso   1.000  C
  C93      1.0000 0.05050  0.09910  0.49190  Biso   1.000  C
  H81      1.0000 0.02110  0.11280  0.45100  Biso   1.000  H
  C94      1.0000 0.04920  0.05660  0.52050  Biso   1.000  C
  H82      1.0000 0.02030  0.03900  0.49820  Biso   1.000  H
  C95      1.0000 0.09640  0.04160  0.58820  Biso   1.000  C
  C96      1.0000 0.13820  0.06510  0.61820  Biso   1.000  C
  H83      1.0000 0.16770  0.05470  0.66190  Biso   1.000  H
  C97      1.0000 0.13710  0.10460  0.58430  Biso   1.000  C
  H84      1.0000 0.16650  0.11990  0.60420  Biso   1.000  H
  C98      1.0000 0.10100  0.99400  0.62920  Biso   1.000  C
  C99      1.0000 0.13140  0.00800  0.70810  Biso   1.000  C
  H85      1.0000 0.14790  0.03850  0.72920  Biso   1.000  H
  C100     1.0000 0.09320  0.95240  0.61700  Biso   1.000  C
  C101     1.0000 0.08070  0.91790  0.64100  Biso   1.000  C
  H86      1.0000 0.05990  0.89060  0.61460  Biso   1.000  H
  C102     1.0000 0.09960  0.92680  0.70000  Biso   1.000  C
  C103     1.0000 0.13040  0.97130  0.73990  Biso   1.000  C
  C104     1.0000 0.09840  0.89300  0.74450  Biso   1.000  C
  C105     1.0000 0.05390  0.87280  0.71850  Biso   1.000  C
  H87      1.0000 0.02420  0.88130  0.67390  Biso   1.000  H
  C106     1.0000 0.05500  0.84200  0.75750  Biso   1.000  C
  H88      1.0000 0.02590  0.82830  0.74030  Biso   1.000  H
  C107     1.0000 0.09990  0.82910  0.82540  Biso   1.000  C
  C108     1.0000 0.14110  0.84770  0.84810  Biso   1.000  C
  H89      1.0000 0.17090  0.83890  0.89250  Biso   1.000  H
  C109     1.0000 0.14130  0.87890  0.80900  Biso   1.000  C
  H90      1.0000 0.17090  0.89090  0.82610  Biso   1.000  H
  C110     1.0000 0.10080  0.79720  0.87060  Biso   1.000  C
  C111     1.0000 0.04870  0.88820  0.51710  Biso   1.000  C
  H91      1.0000 0.01860  0.89010  0.46780  Biso   1.000  H
  H92      1.0000 0.07340  0.87470  0.51940  Biso   1.000  H
  C112     1.0000 0.04190  0.85680  0.53900  Biso   1.000  C
  H93      1.0000 0.00700  0.85010  0.50710  Biso   1.000  H
  H94      1.0000 0.05430  0.86700  0.58370  Biso   1.000  H
  C113     1.0000 0.06790  0.81090  0.54750  Biso   1.000  C
  H95      1.0000 0.09870  0.81990  0.56240  Biso   1.000  H
  H96      1.0000 0.07480  0.78850  0.58210  Biso   1.000  H
  C114     1.0000 0.03620  0.78730  0.48130  Biso   1.000  C
  H97      1.0000 0.04830  0.79590  0.46040  Biso   1.000  H
  H98      1.0000 0.04080  0.75110  0.48980  Biso   1.000  H
  C115     1.0000 0.98680  0.79560  0.43130  Biso   1.000  C
  H99      1.0000 0.98070  0.81610  0.39590  Biso   1.000  H
  H100     1.0000 0.98020  0.81730  0.45320  Biso   1.000  H
  C116     1.0000 0.94920  0.75890  0.39430  Biso   1.000  C
  H101     1.0000 0.96470  0.72590  0.41140  Biso   1.000  H
  H102     1.0000 0.93060  0.76330  0.40620  Biso   1.000  H
  C117     1.0000 0.91570  0.75820  0.32090  Biso   1.000  C
  H103     1.0000 0.90410  0.72350  0.30730  Biso   1.000  H
  H104     1.0000 0.93530  0.76370  0.31080  Biso   1.000  H
  C118     1.0000 0.87360  0.78860  0.27270  Biso   1.000  C
  H105     1.0000 0.85760  0.77990  0.22590  Biso   1.000  H
  H106     1.0000 0.88310  0.82360  0.28130  Biso   1.000  H
  H107     1.0000 0.85150  0.78300  0.27790  Biso   1.000  H
  C119     1.0000 0.18460  0.02870  0.83720  Biso   1.000  C
  H108     1.0000 0.20850  0.02690  0.83440  Biso   1.000  H
  H109     1.0000 0.16520  0.05930  0.81420  Biso   1.000  H
  C120     1.0000 0.20860  0.02610  0.91110  Biso   1.000  C
  H110     1.0000 0.18320  0.01800  0.90970  Biso   1.000  H
  H111     1.0000 0.23100  0.99760  0.93280  Biso   1.000  H
  C121     1.0000 0.23740  0.07150  0.96080  Biso   1.000  C
  H112     1.0000 0.21520  0.10020  0.93930  Biso   1.000  H
  H113     1.0000 0.26310  0.07950  0.96280  Biso   1.000  H
  C122     1.0000 0.26000  0.06800  0.03200  Biso   1.000  C
  H114     1.0000 0.28600  0.04300  0.05620  Biso   1.000  H
  H115     1.0000 0.23560  0.05550  0.03090  Biso   1.000  H
  C123     1.0000 0.27950  0.11170  0.07090  Biso   1.000  C
  H116     1.0000 0.31510  0.11000  0.10500  Biso   1.000  H
  H117     1.0000 0.26900  0.14030  0.04040  Biso   1.000  H
  C124     1.0000 0.26220  0.11980  0.11120  Biso   1.000  C
  H118     1.0000 0.24250  0.15030  0.09230  Biso   1.000  H
  H119     1.0000 0.29160  0.12680  0.15980  Biso   1.000  H
  C125     1.0000 0.23330  0.07910  0.11130  Biso   1.000  C
  H120     1.0000 0.19840  0.08300  0.07040  Biso   1.000  H
  H121     1.0000 0.23910  0.08280  0.15260  Biso   1.000  H
  C126     1.0000 0.24980  0.02800  0.11090  Biso   1.000  C
  H122     1.0000 0.23200  0.00240  0.11100  Biso   1.000  H
  H123     1.0000 0.24370  0.02450  0.06970  Biso   1.000  H
  H124     1.0000 0.28430  0.02430  0.15180  Biso   1.000  H
  C127     1.0000 0.24870  0.25280  0.63920  Biso   1.000  C
  H125     1.0000 0.23090  0.26030  0.65010  Biso   1.000  H
  C128     1.0000 0.29950  0.25290  0.69160  Biso   1.000  C
  H126     1.0000 0.31560  0.26580  0.73550  Biso   1.000  H
  C129     1.0000 0.32450  0.23540  0.68050  Biso   1.000  C
  C130     1.0000 0.29910  0.21690  0.61760  Biso   1.000  C
  H127     1.0000 0.31430  0.20510  0.60400  Biso   1.000  H
  C131     1.0000 0.25000  0.21610  0.57380  Biso   1.000  C
  H128     1.0000 0.23180  0.19380  0.53610  Biso   1.000  H
  C132     1.0000 0.45410  0.21440  0.77470  Biso   1.000  C
  H129     1.0000 0.47150  0.19880  0.76640  Biso   1.000  H
  C133     1.0000 0.40340  0.21120  0.72360  Biso   1.000  C
  H130     1.0000 0.38690  0.19370  0.68210  Biso   1.000  H
  C134     1.0000 0.37840  0.23430  0.73600  Biso   1.000  C
  C135     1.0000 0.40350  0.25850  0.79620  Biso   1.000  C
  H131     1.0000 0.38700  0.27440  0.80570  Biso   1.000  H
  C136     1.0000 0.45210  0.26000  0.84270  Biso   1.000  C
  H132     1.0000 0.46890  0.27730  0.88440  Biso   1.000  H
  O13      1.0000 0.06496  0.31800  0.38440  Biso   1.000  O
  O14      1.0000 0.14392  0.31240  0.45930  Biso   1.000  O
  O15      1.0000 0.06652  0.71710  0.98480  Biso   1.000  O
  O16      1.0000 0.14575  0.71550  0.05970  Biso   1.000  O
  O17      1.0000 0.15690  0.44760  0.27770  Biso   1.000  O
  O18      1.0000 0.05450  0.61630  0.19730  Biso   1.000  O
  O19      1.0000 0.05491  0.18511  0.43910  Biso   1.000  O
  O20      1.0000 0.13448  0.18550  0.52300  Biso   1.000  O
  O21      1.0000 0.06093  0.78234  0.84740  Biso   1.000  O
  O22      1.0000 0.14117  0.78740  0.92900  Biso   1.000  O
  O23      1.0000 0.06320  0.94100  0.54000  Biso   1.000  O
  O24      1.0000 0.15460  0.98520  0.80850  Biso   1.000  O
  Zn3      1.0000 0.15280  0.24784  0.50455  Biso   1.000  Zn
  Zn4      1.0000 0.04927  0.25237  0.40091  Biso   1.000  Zn
  N3       1.0000 0.22790  0.24340  0.58150  Biso   1.000  N
  N4       1.0000 0.47841  0.23790  0.83290  Biso   1.000  N
  C137     1.0000 0.60680  0.16590  0.91280  Biso   1.000  C
  C138     1.0000 0.60720  0.12200  0.88260  Biso   1.000  C
  C139     1.0000 0.65010  0.10310  0.90610  Biso   1.000  C
  H133     1.0000 0.67970  0.11690  0.94640  Biso   1.000  H
  C140     1.0000 0.65130  0.06560  0.87340  Biso   1.000  C
  H134     1.0000 0.68110  0.05570  0.88940  Biso   1.000  H
  C141     1.0000 0.61020  0.04270  0.81880  Biso   1.000  C
  C142     1.0000 0.56650  0.05730  0.79520  Biso   1.000  C
  H135     1.0000 0.53740  0.04120  0.75710  Biso   1.000  H
  C143     1.0000 0.56620  0.09620  0.82890  Biso   1.000  C
  H136     1.0000 0.53660  0.10510  0.81420  Biso   1.000  H
  C144     1.0000 0.61130  0.00180  0.78430  Biso   1.000  C
  C145     1.0000 0.63670  0.00790  0.76540  Biso   1.000  C
  C146     1.0000 0.58220  0.95860  0.76160  Biso   1.000  C
  H137     1.0000 0.56380  0.95210  0.77160  Biso   1.000  H
  C147     1.0000 0.58390  0.92730  0.72350  Biso   1.000  C
  C148     1.0000 0.60480  0.92910  0.70250  Biso   1.000  C
  C149     1.0000 0.63660  0.97220  0.72640  Biso   1.000  C
  H138     1.0000 0.65560  0.97600  0.71680  Biso   1.000  H
  C150     1.0000 0.60550  0.89200  0.66420  Biso   1.000  C
  C151     1.0000 0.56600  0.87470  0.60810  Biso   1.000  C
  H139     1.0000 0.53650  0.88550  0.59260  Biso   1.000  H
  C152     1.0000 0.56480  0.83840  0.56680  Biso   1.000  C
  H140     1.0000 0.53560  0.82260  0.52860  Biso   1.000  H
  C153     1.0000 0.60550  0.82820  0.58410  Biso   1.000  C
  C154     1.0000 0.64720  0.84680  0.64380  Biso   1.000  C
  H141     1.0000 0.67630  0.83900  0.65670  Biso   1.000  H
  C155     1.0000 0.64930  0.87620  0.68660  Biso   1.000  C
  H142     1.0000 0.67930  0.88580  0.73020  Biso   1.000  H
  C156     1.0000 0.60390  0.79590  0.53650  Biso   1.000  C
  C157     1.0000 0.68660  0.05370  0.75980  Biso   1.000  C
  H143     1.0000 0.71430  0.03080  0.78900  Biso   1.000  H
  H144     1.0000 0.66660  0.04570  0.71100  Biso   1.000  H
  C158     1.0000 0.70410  0.11280  0.77710  Biso   1.000  C
  H145     1.0000 0.67630  0.13510  0.75480  Biso   1.000  H
  H146     1.0000 0.72830  0.11880  0.82720  Biso   1.000  H
  C159     1.0000 0.59590  0.33320  0.99350  Biso   1.000  C
  C160     1.0000 0.59420  0.37800  0.02220  Biso   1.000  C
  C161     1.0000 0.55050  0.40090  0.99190  Biso   1.000  C
  H147     1.0000 0.52110  0.38720  0.95100  Biso   1.000  H
  C162     1.0000 0.54920  0.44340  0.02050  Biso   1.000  C
  H148     1.0000 0.52030  0.46100  0.99820  Biso   1.000  H
  C163     1.0000 0.59640  0.45840  0.08820  Biso   1.000  C
  C164     1.0000 0.63820  0.43490  0.11820  Biso   1.000  C
  H149     1.0000 0.66770  0.44530  0.16190  Biso   1.000  H
  C165     1.0000 0.63710  0.39540  0.08430  Biso   1.000  C
  H150     1.0000 0.66650  0.38010  0.10420  Biso   1.000  H
  C166     1.0000 0.60100  0.50600  0.12920  Biso   1.000  C
  C167     1.0000 0.63140  0.49200  0.20810  Biso   1.000  C
  H151     1.0000 0.64790  0.46150  0.22920  Biso   1.000  H
  C168     1.0000 0.59320  0.54760  0.11700  Biso   1.000  C
  C169     1.0000 0.58070  0.58210  0.14100  Biso   1.000  C
  H152     1.0000 0.55990  0.60940  0.11460  Biso   1.000  H
  C170     1.0000 0.59960  0.57320  0.20000  Biso   1.000  C
  C171     1.0000 0.63040  0.52870  0.23990  Biso   1.000  C
  C172     1.0000 0.59840  0.60700  0.24450  Biso   1.000  C
  C173     1.0000 0.55390  0.62720  0.21850  Biso   1.000  C
  H153     1.0000 0.52420  0.61870  0.17390  Biso   1.000  H
  C174     1.0000 0.55500  0.65800  0.25750  Biso   1.000  C
  H154     1.0000 0.52590  0.67170  0.24030  Biso   1.000  H
  C175     1.0000 0.59990  0.67090  0.32540  Biso   1.000  C
  C176     1.0000 0.64110  0.65230  0.34810  Biso   1.000  C
  H155     1.0000 0.67090  0.66110  0.39250  Biso   1.000  H
  C177     1.0000 0.64130  0.62110  0.30900  Biso   1.000  C
  H156     1.0000 0.67090  0.60910  0.32610  Biso   1.000  H
  C178     1.0000 0.60080  0.70280  0.37060  Biso   1.000  C
  C179     1.0000 0.54870  0.61180  0.01710  Biso   1.000  C
  H157     1.0000 0.51860  0.60990  0.96780  Biso   1.000  H
  H158     1.0000 0.57340  0.62530  0.01940  Biso   1.000  H
  C180     1.0000 0.54190  0.64320  0.03900  Biso   1.000  C
  H159     1.0000 0.50700  0.64990  0.00710  Biso   1.000  H
  H160     1.0000 0.55430  0.63300  0.08370  Biso   1.000  H
  C181     1.0000 0.56790  0.68910  0.04750  Biso   1.000  C
  H161     1.0000 0.59870  0.68010  0.06240  Biso   1.000  H
  H162     1.0000 0.57480  0.71150  0.08210  Biso   1.000  H
  C182     1.0000 0.53620  0.71270  0.98130  Biso   1.000  C
  H163     1.0000 0.54830  0.70410  0.96040  Biso   1.000  H
  H164     1.0000 0.54080  0.74890  0.98980  Biso   1.000  H
  C183     1.0000 0.48680  0.70440  0.93130  Biso   1.000  C
  H165     1.0000 0.48070  0.68390  0.89590  Biso   1.000  H
  H166     1.0000 0.48020  0.68270  0.95320  Biso   1.000  H
  C184     1.0000 0.44920  0.74110  0.89430  Biso   1.000  C
  H167     1.0000 0.46470  0.77410  0.91140  Biso   1.000  H
  H168     1.0000 0.43060  0.73670  0.90620  Biso   1.000  H
  C185     1.0000 0.41570  0.74180  0.82090  Biso   1.000  C
  H169     1.0000 0.40410  0.77650  0.80730  Biso   1.000  H
  H170     1.0000 0.43530  0.73630  0.81080  Biso   1.000  H
  C186     1.0000 0.37360  0.71140  0.77270  Biso   1.000  C
  H171     1.0000 0.35760  0.72010  0.72590  Biso   1.000  H
  H172     1.0000 0.38310  0.67640  0.78130  Biso   1.000  H
  H173     1.0000 0.35150  0.71700  0.77790  Biso   1.000  H
  C187     1.0000 0.68460  0.47130  0.33720  Biso   1.000  C
  H174     1.0000 0.70850  0.47310  0.33440  Biso   1.000  H
  H175     1.0000 0.66520  0.44070  0.31420  Biso   1.000  H
  C188     1.0000 0.70860  0.47390  0.41110  Biso   1.000  C
  H176     1.0000 0.68320  0.48200  0.40970  Biso   1.000  H
  H177     1.0000 0.73100  0.50240  0.43280  Biso   1.000  H
  C189     1.0000 0.73740  0.42850  0.46080  Biso   1.000  C
  H178     1.0000 0.71520  0.39980  0.43930  Biso   1.000  H
  H179     1.0000 0.76310  0.42050  0.46280  Biso   1.000  H
  C190     1.0000 0.76000  0.43200  0.53200  Biso   1.000  C
  H180     1.0000 0.78600  0.45700  0.55620  Biso   1.000  H
  H181     1.0000 0.73560  0.44450  0.53090  Biso   1.000  H
  C191     1.0000 0.77950  0.38830  0.57090  Biso   1.000  C
  H182     1.0000 0.81510  0.39000  0.60500  Biso   1.000  H
  H183     1.0000 0.76900  0.35970  0.54040  Biso   1.000  H
  C192     1.0000 0.76220  0.38020  0.61120  Biso   1.000  C
  H184     1.0000 0.74250  0.34970  0.59230  Biso   1.000  H
  H185     1.0000 0.79160  0.37320  0.65980  Biso   1.000  H
  C193     1.0000 0.73330  0.42090  0.61130  Biso   1.000  C
  H186     1.0000 0.69840  0.41700  0.57040  Biso   1.000  H
  H187     1.0000 0.73910  0.41720  0.65260  Biso   1.000  H
  C194     1.0000 0.74980  0.47200  0.61090  Biso   1.000  C
  H188     1.0000 0.73200  0.49760  0.61100  Biso   1.000  H
  H189     1.0000 0.74370  0.47550  0.56970  Biso   1.000  H
  H190     1.0000 0.78430  0.47570  0.65180  Biso   1.000  H
  C195     1.0000 0.74870  0.24720  0.13920  Biso   1.000  C
  H191     1.0000 0.73090  0.23970  0.15010  Biso   1.000  H
  C196     1.0000 0.79950  0.24710  0.19160  Biso   1.000  C
  H192     1.0000 0.81560  0.23420  0.23550  Biso   1.000  H
  C197     1.0000 0.82450  0.26460  0.18050  Biso   1.000  C
  C198     1.0000 0.79910  0.28310  0.11760  Biso   1.000  C
  H193     1.0000 0.81430  0.29490  0.10400  Biso   1.000  H
  C199     1.0000 0.75000  0.28390  0.07380  Biso   1.000  C
  H194     1.0000 0.73180  0.30620  0.03610  Biso   1.000  H
  C200     1.0000 0.95410  0.28560  0.27470  Biso   1.000  C
  H195     1.0000 0.97150  0.30120  0.26640  Biso   1.000  H
  C201     1.0000 0.90340  0.28880  0.22360  Biso   1.000  C
  H196     1.0000 0.88690  0.30630  0.18210  Biso   1.000  H
  C202     1.0000 0.87840  0.26570  0.23600  Biso   1.000  C
  C203     1.0000 0.90350  0.24150  0.29620  Biso   1.000  C
  H197     1.0000 0.88700  0.22560  0.30570  Biso   1.000  H
  C204     1.0000 0.95210  0.24000  0.34270  Biso   1.000  C
  H198     1.0000 0.96890  0.22270  0.38440  Biso   1.000  H
  O25      1.0000 0.56496  0.18200  0.88440  Biso   1.000  O
  O26      1.0000 0.64392  0.18760  0.95930  Biso   1.000  O
  O27      1.0000 0.56652  0.78290  0.48480  Biso   1.000  O
  O28      1.0000 0.64575  0.78450  0.55970  Biso   1.000  O
  O29      1.0000 0.65690  0.05240  0.77770  Biso   1.000  O
  O30      1.0000 0.55450  0.88370  0.69730  Biso   1.000  O
  O31      1.0000 0.55491  0.31489  0.93910  Biso   1.000  O
  O32      1.0000 0.63448  0.31450  0.02300  Biso   1.000  O
  O33      1.0000 0.56093  0.71766  0.34740  Biso   1.000  O
  O34      1.0000 0.64117  0.71260  0.42900  Biso   1.000  O
  O35      1.0000 0.56320  0.55900  0.04000  Biso   1.000  O
  O36      1.0000 0.65460  0.51480  0.30850  Biso   1.000  O
  Zn5      1.0000 0.65280  0.25216  0.00455  Biso   1.000  Zn
  Zn6      1.0000 0.54927  0.24763  0.90091  Biso   1.000  Zn
  N5       1.0000 0.72790  0.25660  0.08150  Biso   1.000  N
  N6       1.0000 0.97841  0.26210  0.33290  Biso   1.000  N
  C205     1.0000 0.10680  0.66590  0.91280  Biso   1.000  C
  C206     1.0000 0.10720  0.62200  0.88260  Biso   1.000  C
  C207     1.0000 0.15010  0.60310  0.90610  Biso   1.000  C
  H199     1.0000 0.17970  0.61690  0.94640  Biso   1.000  H
  C208     1.0000 0.15130  0.56560  0.87340  Biso   1.000  C
  H200     1.0000 0.18110  0.55570  0.88940  Biso   1.000  H
  C209     1.0000 0.11020  0.54270  0.81880  Biso   1.000  C
  C210     1.0000 0.06650  0.55730  0.79520  Biso   1.000  C
  H201     1.0000 0.03740  0.54120  0.75710  Biso   1.000  H
  C211     1.0000 0.06620  0.59620  0.82890  Biso   1.000  C
  H202     1.0000 0.03660  0.60510  0.81420  Biso   1.000  H
  C212     1.0000 0.11130  0.50180  0.78430  Biso   1.000  C
  C213     1.0000 0.13670  0.50790  0.76540  Biso   1.000  C
  C214     1.0000 0.08220  0.45860  0.76160  Biso   1.000  C
  H203     1.0000 0.06380  0.45210  0.77160  Biso   1.000  H
  C215     1.0000 0.08390  0.42730  0.72350  Biso   1.000  C
  C216     1.0000 0.10480  0.42910  0.70250  Biso   1.000  C
  C217     1.0000 0.13660  0.47220  0.72640  Biso   1.000  C
  H204     1.0000 0.15560  0.47600  0.71680  Biso   1.000  H
  C218     1.0000 0.10550  0.39200  0.66420  Biso   1.000  C
  C219     1.0000 0.06600  0.37470  0.60810  Biso   1.000  C
  H205     1.0000 0.03650  0.38550  0.59260  Biso   1.000  H
  C220     1.0000 0.06480  0.33840  0.56680  Biso   1.000  C
  H206     1.0000 0.03560  0.32260  0.52860  Biso   1.000  H
  C221     1.0000 0.10550  0.32820  0.58410  Biso   1.000  C
  C222     1.0000 0.14720  0.34680  0.64380  Biso   1.000  C
  H207     1.0000 0.17630  0.33900  0.65670  Biso   1.000  H
  C223     1.0000 0.14930  0.37620  0.68660  Biso   1.000  C
  H208     1.0000 0.17930  0.38580  0.73020  Biso   1.000  H
  C224     1.0000 0.10390  0.29590  0.53650  Biso   1.000  C
  C225     1.0000 0.18660  0.55370  0.75980  Biso   1.000  C
  H209     1.0000 0.21430  0.53080  0.78900  Biso   1.000  H
  H210     1.0000 0.16660  0.54570  0.71100  Biso   1.000  H
  C226     1.0000 0.20410  0.61280  0.77710  Biso   1.000  C
  H211     1.0000 0.17630  0.63510  0.75480  Biso   1.000  H
  H212     1.0000 0.22830  0.61880  0.82720  Biso   1.000  H
  C227     1.0000 0.09590  0.83320  0.99350  Biso   1.000  C
  C228     1.0000 0.09420  0.87800  0.02220  Biso   1.000  C
  C229     1.0000 0.05050  0.90090  0.99190  Biso   1.000  C
  H213     1.0000 0.02110  0.88720  0.95100  Biso   1.000  H
  C230     1.0000 0.04920  0.94340  0.02050  Biso   1.000  C
  H214     1.0000 0.02030  0.96100  0.99820  Biso   1.000  H
  C231     1.0000 0.09640  0.95840  0.08820  Biso   1.000  C
  C232     1.0000 0.13820  0.93490  0.11820  Biso   1.000  C
  H215     1.0000 0.16770  0.94530  0.16190  Biso   1.000  H
  C233     1.0000 0.13710  0.89540  0.08430  Biso   1.000  C
  H216     1.0000 0.16650  0.88010  0.10420  Biso   1.000  H
  C234     1.0000 0.10100  0.00600  0.12920  Biso   1.000  C
  C235     1.0000 0.13140  0.99200  0.20810  Biso   1.000  C
  H217     1.0000 0.14790  0.96150  0.22920  Biso   1.000  H
  C236     1.0000 0.09320  0.04760  0.11700  Biso   1.000  C
  C237     1.0000 0.08070  0.08210  0.14100  Biso   1.000  C
  H218     1.0000 0.05990  0.10940  0.11460  Biso   1.000  H
  C238     1.0000 0.09960  0.07320  0.20000  Biso   1.000  C
  C239     1.0000 0.13040  0.02870  0.23990  Biso   1.000  C
  C240     1.0000 0.09840  0.10700  0.24450  Biso   1.000  C
  C241     1.0000 0.05390  0.12720  0.21850  Biso   1.000  C
  H219     1.0000 0.02420  0.11870  0.17390  Biso   1.000  H
  C242     1.0000 0.05500  0.15800  0.25750  Biso   1.000  C
  H220     1.0000 0.02590  0.17170  0.24030  Biso   1.000  H
  C243     1.0000 0.09990  0.17090  0.32540  Biso   1.000  C
  C244     1.0000 0.14110  0.15230  0.34810  Biso   1.000  C
  H221     1.0000 0.17090  0.16110  0.39250  Biso   1.000  H
  C245     1.0000 0.14130  0.12110  0.30900  Biso   1.000  C
  H222     1.0000 0.17090  0.10910  0.32610  Biso   1.000  H
  C246     1.0000 0.10080  0.20280  0.37060  Biso   1.000  C
  C247     1.0000 0.04870  0.11180  0.01710  Biso   1.000  C
  H223     1.0000 0.01860  0.10990  0.96780  Biso   1.000  H
  H224     1.0000 0.07340  0.12530  0.01940  Biso   1.000  H
  C248     1.0000 0.04190  0.14320  0.03900  Biso   1.000  C
  H225     1.0000 0.00700  0.14990  0.00710  Biso   1.000  H
  H226     1.0000 0.05430  0.13300  0.08370  Biso   1.000  H
  C249     1.0000 0.06790  0.18910  0.04750  Biso   1.000  C
  H227     1.0000 0.09870  0.18010  0.06240  Biso   1.000  H
  H228     1.0000 0.07480  0.21150  0.08210  Biso   1.000  H
  C250     1.0000 0.03620  0.21270  0.98130  Biso   1.000  C
  H229     1.0000 0.04830  0.20410  0.96040  Biso   1.000  H
  H230     1.0000 0.04080  0.24890  0.98980  Biso   1.000  H
  C251     1.0000 0.98680  0.20440  0.93130  Biso   1.000  C
  H231     1.0000 0.98070  0.18390  0.89590  Biso   1.000  H
  H232     1.0000 0.98020  0.18270  0.95320  Biso   1.000  H
  C252     1.0000 0.94920  0.24110  0.89430  Biso   1.000  C
  H233     1.0000 0.96470  0.27410  0.91140  Biso   1.000  H
  H234     1.0000 0.93060  0.23670  0.90620  Biso   1.000  H
  C253     1.0000 0.91570  0.24180  0.82090  Biso   1.000  C
  H235     1.0000 0.90410  0.27650  0.80730  Biso   1.000  H
  H236     1.0000 0.93530  0.23630  0.81080  Biso   1.000  H
  C254     1.0000 0.87360  0.21140  0.77270  Biso   1.000  C
  H237     1.0000 0.85760  0.22010  0.72590  Biso   1.000  H
  H238     1.0000 0.88310  0.17640  0.78130  Biso   1.000  H
  H239     1.0000 0.85150  0.21700  0.77790  Biso   1.000  H
  C255     1.0000 0.18460  0.97130  0.33720  Biso   1.000  C
  H240     1.0000 0.20850  0.97310  0.33440  Biso   1.000  H
  H241     1.0000 0.16520  0.94070  0.31420  Biso   1.000  H
  C256     1.0000 0.20860  0.97390  0.41110  Biso   1.000  C
  H242     1.0000 0.18320  0.98200  0.40970  Biso   1.000  H
  H243     1.0000 0.23100  0.00240  0.43280  Biso   1.000  H
  C257     1.0000 0.23740  0.92850  0.46080  Biso   1.000  C
  H244     1.0000 0.21520  0.89980  0.43930  Biso   1.000  H
  H245     1.0000 0.26310  0.92050  0.46280  Biso   1.000  H
  C258     1.0000 0.26000  0.93200  0.53200  Biso   1.000  C
  H246     1.0000 0.28600  0.95700  0.55620  Biso   1.000  H
  H247     1.0000 0.23560  0.94450  0.53090  Biso   1.000  H
  C259     1.0000 0.27950  0.88830  0.57090  Biso   1.000  C
  H248     1.0000 0.31510  0.89000  0.60500  Biso   1.000  H
  H249     1.0000 0.26900  0.85970  0.54040  Biso   1.000  H
  C260     1.0000 0.26220  0.88020  0.61120  Biso   1.000  C
  H250     1.0000 0.24250  0.84970  0.59230  Biso   1.000  H
  H251     1.0000 0.29160  0.87320  0.65980  Biso   1.000  H
  C261     1.0000 0.23330  0.92090  0.61130  Biso   1.000  C
  H252     1.0000 0.19840  0.91700  0.57040  Biso   1.000  H
  H253     1.0000 0.23910  0.91720  0.65260  Biso   1.000  H
  C262     1.0000 0.24980  0.97200  0.61090  Biso   1.000  C
  H254     1.0000 0.23200  0.99760  0.61100  Biso   1.000  H
  H255     1.0000 0.24370  0.97550  0.56970  Biso   1.000  H
  H256     1.0000 0.28430  0.97570  0.65180  Biso   1.000  H
  C263     1.0000 0.24870  0.74720  0.13920  Biso   1.000  C
  H257     1.0000 0.23090  0.73970  0.15010  Biso   1.000  H
  C264     1.0000 0.29950  0.74710  0.19160  Biso   1.000  C
  H258     1.0000 0.31560  0.73420  0.23550  Biso   1.000  H
  C265     1.0000 0.32450  0.76460  0.18050  Biso   1.000  C
  C266     1.0000 0.29910  0.78310  0.11760  Biso   1.000  C
  H259     1.0000 0.31430  0.79490  0.10400  Biso   1.000  H
  C267     1.0000 0.25000  0.78390  0.07380  Biso   1.000  C
  H260     1.0000 0.23180  0.80620  0.03610  Biso   1.000  H
  C268     1.0000 0.45410  0.78560  0.27470  Biso   1.000  C
  H261     1.0000 0.47150  0.80120  0.26640  Biso   1.000  H
  C269     1.0000 0.40340  0.78880  0.22360  Biso   1.000  C
  H262     1.0000 0.38690  0.80630  0.18210  Biso   1.000  H
  C270     1.0000 0.37840  0.76570  0.23600  Biso   1.000  C
  C271     1.0000 0.40350  0.74150  0.29620  Biso   1.000  C
  H263     1.0000 0.38700  0.72560  0.30570  Biso   1.000  H
  C272     1.0000 0.45210  0.74000  0.34270  Biso   1.000  C
  H264     1.0000 0.46890  0.72270  0.38440  Biso   1.000  H
  O37      1.0000 0.06496  0.68200  0.88440  Biso   1.000  O
  O38      1.0000 0.14392  0.68760  0.95930  Biso   1.000  O
  O39      1.0000 0.06652  0.28290  0.48480  Biso   1.000  O
  O40      1.0000 0.14575  0.28450  0.55970  Biso   1.000  O
  O41      1.0000 0.15690  0.55240  0.77770  Biso   1.000  O
  O42      1.0000 0.05450  0.38370  0.69730  Biso   1.000  O
  O43      1.0000 0.05491  0.81489  0.93910  Biso   1.000  O
  O44      1.0000 0.13448  0.81450  0.02300  Biso   1.000  O
  O45      1.0000 0.06093  0.21766  0.34740  Biso   1.000  O
  O46      1.0000 0.14117  0.21260  0.42900  Biso   1.000  O
  O47      1.0000 0.06320  0.05900  0.04000  Biso   1.000  O
  O48      1.0000 0.15460  0.01480  0.30850  Biso   1.000  O
  Zn7      1.0000 0.15280  0.75216  0.00455  Biso   1.000  Zn
  Zn8      1.0000 0.04927  0.74763  0.90091  Biso   1.000  Zn
  N7       1.0000 0.22790  0.75660  0.08150  Biso   1.000  N
  N8       1.0000 0.47841  0.76210  0.33290  Biso   1.000  N
  C273     1.0000 0.39320  0.83410  0.08720  Biso   1.000  C
  C274     1.0000 0.39280  0.87800  0.11740  Biso   1.000  C
  C275     1.0000 0.34990  0.89690  0.09390  Biso   1.000  C
  H265     1.0000 0.32030  0.88310  0.05360  Biso   1.000  H
  C276     1.0000 0.34870  0.93440  0.12660  Biso   1.000  C
  H266     1.0000 0.31890  0.94430  0.11060  Biso   1.000  H
  C277     1.0000 0.38980  0.95730  0.18120  Biso   1.000  C
  C278     1.0000 0.43350  0.94270  0.20480  Biso   1.000  C
  H267     1.0000 0.46260  0.95880  0.24290  Biso   1.000  H
  C279     1.0000 0.43380  0.90380  0.17110  Biso   1.000  C
  H268     1.0000 0.46340  0.89490  0.18580  Biso   1.000  H
  C280     1.0000 0.38870  0.99820  0.21570  Biso   1.000  C
  C281     1.0000 0.36330  0.99210  0.23460  Biso   1.000  C
  C282     1.0000 0.41780  0.04140  0.23840  Biso   1.000  C
  H269     1.0000 0.43620  0.04790  0.22840  Biso   1.000  H
  C283     1.0000 0.41610  0.07270  0.27650  Biso   1.000  C
  C284     1.0000 0.39520  0.07090  0.29750  Biso   1.000  C
  C285     1.0000 0.36340  0.02780  0.27360  Biso   1.000  C
  H270     1.0000 0.34440  0.02400  0.28320  Biso   1.000  H
  C286     1.0000 0.39450  0.10800  0.33580  Biso   1.000  C
  C287     1.0000 0.43400  0.12530  0.39190  Biso   1.000  C
  H271     1.0000 0.46350  0.11450  0.40740  Biso   1.000  H
  C288     1.0000 0.43520  0.16160  0.43320  Biso   1.000  C
  H272     1.0000 0.46440  0.17740  0.47140  Biso   1.000  H
  C289     1.0000 0.39450  0.17180  0.41590  Biso   1.000  C
  C290     1.0000 0.35280  0.15320  0.35620  Biso   1.000  C
  H273     1.0000 0.32370  0.16100  0.34330  Biso   1.000  H
  C291     1.0000 0.35070  0.12380  0.31340  Biso   1.000  C
  H274     1.0000 0.32070  0.11420  0.26980  Biso   1.000  H
  C292     1.0000 0.39610  0.20410  0.46350  Biso   1.000  C
  C293     1.0000 0.31340  0.94630  0.24020  Biso   1.000  C
  H275     1.0000 0.28570  0.96920  0.21100  Biso   1.000  H
  H276     1.0000 0.33340  0.95430  0.28900  Biso   1.000  H
  C294     1.0000 0.29590  0.88720  0.22290  Biso   1.000  C
  H277     1.0000 0.32370  0.86490  0.24520  Biso   1.000  H
  H278     1.0000 0.27170  0.88120  0.17280  Biso   1.000  H
  C295     1.0000 0.40410  0.66680  0.00650  Biso   1.000  C
  C296     1.0000 0.40580  0.62200  0.97780  Biso   1.000  C
  C297     1.0000 0.44950  0.59910  0.00810  Biso   1.000  C
  H279     1.0000 0.47890  0.61280  0.04900  Biso   1.000  H
  C298     1.0000 0.45080  0.55660  0.97950  Biso   1.000  C
  H280     1.0000 0.47970  0.53900  0.00180  Biso   1.000  H
  C299     1.0000 0.40360  0.54160  0.91180  Biso   1.000  C
  C300     1.0000 0.36180  0.56510  0.88180  Biso   1.000  C
  H281     1.0000 0.33230  0.55470  0.83810  Biso   1.000  H
  C301     1.0000 0.36290  0.60460  0.91570  Biso   1.000  C
  H282     1.0000 0.33350  0.61990  0.89580  Biso   1.000  H
  C302     1.0000 0.39900  0.49400  0.87080  Biso   1.000  C
  C303     1.0000 0.36860  0.50800  0.79190  Biso   1.000  C
  H283     1.0000 0.35210  0.53850  0.77080  Biso   1.000  H
  C304     1.0000 0.40680  0.45240  0.88300  Biso   1.000  C
  C305     1.0000 0.41930  0.41790  0.85900  Biso   1.000  C
  H284     1.0000 0.44010  0.39060  0.88540  Biso   1.000  H
  C306     1.0000 0.40040  0.42680  0.80000  Biso   1.000  C
  C307     1.0000 0.36960  0.47130  0.76010  Biso   1.000  C
  C308     1.0000 0.40160  0.39300  0.75550  Biso   1.000  C
  C309     1.0000 0.44610  0.37280  0.78150  Biso   1.000  C
  H285     1.0000 0.47580  0.38130  0.82610  Biso   1.000  H
  C310     1.0000 0.44500  0.34200  0.74250  Biso   1.000  C
  H286     1.0000 0.47410  0.32830  0.75970  Biso   1.000  H
  C311     1.0000 0.40010  0.32910  0.67460  Biso   1.000  C
  C312     1.0000 0.35890  0.34770  0.65190  Biso   1.000  C
  H287     1.0000 0.32910  0.33890  0.60750  Biso   1.000  H
  C313     1.0000 0.35870  0.37890  0.69100  Biso   1.000  C
  H288     1.0000 0.32910  0.39090  0.67390  Biso   1.000  H
  C314     1.0000 0.39920  0.29720  0.62940  Biso   1.000  C
  C315     1.0000 0.45130  0.38820  0.98290  Biso   1.000  C
  H289     1.0000 0.48140  0.39010  0.03220  Biso   1.000  H
  H290     1.0000 0.42660  0.37470  0.98060  Biso   1.000  H
  C316     1.0000 0.45810  0.35680  0.96100  Biso   1.000  C
  H291     1.0000 0.49300  0.35010  0.99290  Biso   1.000  H
  H292     1.0000 0.44570  0.36700  0.91630  Biso   1.000  H
  C317     1.0000 0.43210  0.31090  0.95250  Biso   1.000  C
  H293     1.0000 0.40130  0.31990  0.93760  Biso   1.000  H
  H294     1.0000 0.42520  0.28850  0.91790  Biso   1.000  H
  C318     1.0000 0.46380  0.28730  0.01870  Biso   1.000  C
  H295     1.0000 0.45170  0.29590  0.03960  Biso   1.000  H
  H296     1.0000 0.45920  0.25110  0.01020  Biso   1.000  H
  C319     1.0000 0.51320  0.29560  0.06870  Biso   1.000  C
  H297     1.0000 0.51930  0.31610  0.10410  Biso   1.000  H
  H298     1.0000 0.51980  0.31730  0.04680  Biso   1.000  H
  C320     1.0000 0.55080  0.25890  0.10570  Biso   1.000  C
  H299     1.0000 0.53530  0.22590  0.08860  Biso   1.000  H
  H300     1.0000 0.56940  0.26330  0.09380  Biso   1.000  H
  C321     1.0000 0.58430  0.25820  0.17910  Biso   1.000  C
  H301     1.0000 0.59590  0.22350  0.19270  Biso   1.000  H
  H302     1.0000 0.56470  0.26370  0.18920  Biso   1.000  H
  C322     1.0000 0.62640  0.28860  0.22730  Biso   1.000  C
  H303     1.0000 0.64240  0.27990  0.27410  Biso   1.000  H
  H304     1.0000 0.61690  0.32360  0.21870  Biso   1.000  H
  H305     1.0000 0.64850  0.28300  0.22210  Biso   1.000  H
  C323     1.0000 0.31540  0.52870  0.66280  Biso   1.000  C
  H306     1.0000 0.29150  0.52690  0.66560  Biso   1.000  H
  H307     1.0000 0.33480  0.55930  0.68580  Biso   1.000  H
  C324     1.0000 0.29140  0.52610  0.58890  Biso   1.000  C
  H308     1.0000 0.31680  0.51800  0.59030  Biso   1.000  H
  H309     1.0000 0.26900  0.49760  0.56720  Biso   1.000  H
  C325     1.0000 0.26260  0.57150  0.53920  Biso   1.000  C
  H310     1.0000 0.28480  0.60020  0.56070  Biso   1.000  H
  H311     1.0000 0.23690  0.57950  0.53720  Biso   1.000  H
  C326     1.0000 0.24000  0.56800  0.46800  Biso   1.000  C
  H312     1.0000 0.21400  0.54300  0.44380  Biso   1.000  H
  H313     1.0000 0.26440  0.55550  0.46910  Biso   1.000  H
  C327     1.0000 0.22050  0.61170  0.42910  Biso   1.000  C
  H314     1.0000 0.18490  0.61000  0.39500  Biso   1.000  H
  H315     1.0000 0.23100  0.64030  0.45960  Biso   1.000  H
  C328     1.0000 0.23780  0.61980  0.38880  Biso   1.000  C
  H316     1.0000 0.25750  0.65030  0.40770  Biso   1.000  H
  H317     1.0000 0.20840  0.62680  0.34020  Biso   1.000  H
  C329     1.0000 0.26670  0.57910  0.38870  Biso   1.000  C
  H318     1.0000 0.30160  0.58300  0.42960  Biso   1.000  H
  H319     1.0000 0.26090  0.58280  0.34740  Biso   1.000  H
  C330     1.0000 0.25020  0.52800  0.38910  Biso   1.000  C
  H320     1.0000 0.26800  0.50240  0.38900  Biso   1.000  H
  H321     1.0000 0.25630  0.52450  0.43030  Biso   1.000  H
  H322     1.0000 0.21570  0.52430  0.34820  Biso   1.000  H
  C331     1.0000 0.25130  0.75280  0.86080  Biso   1.000  C
  H323     1.0000 0.26910  0.76030  0.84990  Biso   1.000  H
  C332     1.0000 0.20050  0.75290  0.80840  Biso   1.000  C
  H324     1.0000 0.18440  0.76580  0.76450  Biso   1.000  H
  C333     1.0000 0.17550  0.73540  0.81950  Biso   1.000  C
  C334     1.0000 0.20090  0.71690  0.88240  Biso   1.000  C
  H325     1.0000 0.18570  0.70510  0.89600  Biso   1.000  H
  C335     1.0000 0.25000  0.71610  0.92620  Biso   1.000  C
  H326     1.0000 0.26820  0.69380  0.96390  Biso   1.000  H
  C336     1.0000 0.04590  0.71440  0.72530  Biso   1.000  C
  H327     1.0000 0.02850  0.69880  0.73360  Biso   1.000  H
  C337     1.0000 0.09660  0.71120  0.77640  Biso   1.000  C
  H328     1.0000 0.11310  0.69370  0.81790  Biso   1.000  H
  C338     1.0000 0.12160  0.73430  0.76400  Biso   1.000  C
  C339     1.0000 0.09650  0.75850  0.70380  Biso   1.000  C
  H329     1.0000 0.11300  0.77440  0.69430  Biso   1.000  H
  C340     1.0000 0.04790  0.76000  0.65730  Biso   1.000  C
  H330     1.0000 0.03110  0.77730  0.61560  Biso   1.000  H
  O49      1.0000 0.43504  0.81800  0.11560  Biso   1.000  O
  O50      1.0000 0.35608  0.81240  0.04070  Biso   1.000  O
  O51      1.0000 0.43348  0.21710  0.51520  Biso   1.000  O
  O52      1.0000 0.35425  0.21550  0.44030  Biso   1.000  O
  O53      1.0000 0.34310  0.94760  0.22230  Biso   1.000  O
  O54      1.0000 0.44550  0.11630  0.30270  Biso   1.000  O
  O55      1.0000 0.44509  0.68511  0.06090  Biso   1.000  O
  O56      1.0000 0.36552  0.68550  0.97700  Biso   1.000  O
  O57      1.0000 0.43907  0.28234  0.65260  Biso   1.000  O
  O58      1.0000 0.35883  0.28740  0.57100  Biso   1.000  O
  O59      1.0000 0.43680  0.44100  0.96000  Biso   1.000  O
  O60      1.0000 0.34540  0.48520  0.69150  Biso   1.000  O
  Zn9      1.0000 0.34720  0.74784  0.99545  Biso   1.000  Zn
  Zn10     1.0000 0.45073  0.75237  0.09909  Biso   1.000  Zn
  N9       1.0000 0.27210  0.74340  0.91850  Biso   1.000  N
  N10      1.0000 0.02159  0.73790  0.66710  Biso   1.000  N
  C341     1.0000 0.89320  0.33410  0.08720  Biso   1.000  C
  C342     1.0000 0.89280  0.37800  0.11740  Biso   1.000  C
  C343     1.0000 0.84990  0.39690  0.09390  Biso   1.000  C
  H331     1.0000 0.82030  0.38310  0.05360  Biso   1.000  H
  C344     1.0000 0.84870  0.43440  0.12660  Biso   1.000  C
  H332     1.0000 0.81890  0.44430  0.11060  Biso   1.000  H
  C345     1.0000 0.88980  0.45730  0.18120  Biso   1.000  C
  C346     1.0000 0.93350  0.44270  0.20480  Biso   1.000  C
  H333     1.0000 0.96260  0.45880  0.24290  Biso   1.000  H
  C347     1.0000 0.93380  0.40380  0.17110  Biso   1.000  C
  H334     1.0000 0.96340  0.39490  0.18580  Biso   1.000  H
  C348     1.0000 0.88870  0.49820  0.21570  Biso   1.000  C
  C349     1.0000 0.86330  0.49210  0.23460  Biso   1.000  C
  C350     1.0000 0.91780  0.54140  0.23840  Biso   1.000  C
  H335     1.0000 0.93620  0.54790  0.22840  Biso   1.000  H
  C351     1.0000 0.91610  0.57270  0.27650  Biso   1.000  C
  C352     1.0000 0.89520  0.57090  0.29750  Biso   1.000  C
  C353     1.0000 0.86340  0.52780  0.27360  Biso   1.000  C
  H336     1.0000 0.84440  0.52400  0.28320  Biso   1.000  H
  C354     1.0000 0.89450  0.60800  0.33580  Biso   1.000  C
  C355     1.0000 0.93400  0.62530  0.39190  Biso   1.000  C
  H337     1.0000 0.96350  0.61450  0.40740  Biso   1.000  H
  C356     1.0000 0.93520  0.66160  0.43320  Biso   1.000  C
  H338     1.0000 0.96440  0.67740  0.47140  Biso   1.000  H
  C357     1.0000 0.89450  0.67180  0.41590  Biso   1.000  C
  C358     1.0000 0.85280  0.65320  0.35620  Biso   1.000  C
  H339     1.0000 0.82370  0.66100  0.34330  Biso   1.000  H
  C359     1.0000 0.85070  0.62380  0.31340  Biso   1.000  C
  H340     1.0000 0.82070  0.61420  0.26980  Biso   1.000  H
  C360     1.0000 0.89610  0.70410  0.46350  Biso   1.000  C
  C361     1.0000 0.81340  0.44630  0.24020  Biso   1.000  C
  H341     1.0000 0.78570  0.46920  0.21100  Biso   1.000  H
  H342     1.0000 0.83340  0.45430  0.28900  Biso   1.000  H
  C362     1.0000 0.79590  0.38720  0.22290  Biso   1.000  C
  H343     1.0000 0.82370  0.36490  0.24520  Biso   1.000  H
  H344     1.0000 0.77170  0.38120  0.17280  Biso   1.000  H
  C363     1.0000 0.90410  0.16680  0.00650  Biso   1.000  C
  C364     1.0000 0.90580  0.12200  0.97780  Biso   1.000  C
  C365     1.0000 0.94950  0.09910  0.00810  Biso   1.000  C
  H345     1.0000 0.97890  0.11280  0.04900  Biso   1.000  H
  C366     1.0000 0.95080  0.05660  0.97950  Biso   1.000  C
  H346     1.0000 0.97970  0.03900  0.00180  Biso   1.000  H
  C367     1.0000 0.90360  0.04160  0.91180  Biso   1.000  C
  C368     1.0000 0.86180  0.06510  0.88180  Biso   1.000  C
  H347     1.0000 0.83230  0.05470  0.83810  Biso   1.000  H
  C369     1.0000 0.86290  0.10460  0.91570  Biso   1.000  C
  H348     1.0000 0.83350  0.11990  0.89580  Biso   1.000  H
  C370     1.0000 0.89900  0.99400  0.87080  Biso   1.000  C
  C371     1.0000 0.86860  0.00800  0.79190  Biso   1.000  C
  H349     1.0000 0.85210  0.03850  0.77080  Biso   1.000  H
  C372     1.0000 0.90680  0.95240  0.88300  Biso   1.000  C
  C373     1.0000 0.91930  0.91790  0.85900  Biso   1.000  C
  H350     1.0000 0.94010  0.89060  0.88540  Biso   1.000  H
  C374     1.0000 0.90040  0.92680  0.80000  Biso   1.000  C
  C375     1.0000 0.86960  0.97130  0.76010  Biso   1.000  C
  C376     1.0000 0.90160  0.89300  0.75550  Biso   1.000  C
  C377     1.0000 0.94610  0.87280  0.78150  Biso   1.000  C
  H351     1.0000 0.97580  0.88130  0.82610  Biso   1.000  H
  C378     1.0000 0.94500  0.84200  0.74250  Biso   1.000  C
  H352     1.0000 0.97410  0.82830  0.75970  Biso   1.000  H
  C379     1.0000 0.90010  0.82910  0.67460  Biso   1.000  C
  C380     1.0000 0.85890  0.84770  0.65190  Biso   1.000  C
  H353     1.0000 0.82910  0.83890  0.60750  Biso   1.000  H
  C381     1.0000 0.85870  0.87890  0.69100  Biso   1.000  C
  H354     1.0000 0.82910  0.89090  0.67390  Biso   1.000  H
  C382     1.0000 0.89920  0.79720  0.62940  Biso   1.000  C
  C383     1.0000 0.95130  0.88820  0.98290  Biso   1.000  C
  H355     1.0000 0.98140  0.89010  0.03220  Biso   1.000  H
  H356     1.0000 0.92660  0.87470  0.98060  Biso   1.000  H
  C384     1.0000 0.95810  0.85680  0.96100  Biso   1.000  C
  H357     1.0000 0.99300  0.85010  0.99290  Biso   1.000  H
  H358     1.0000 0.94570  0.86700  0.91630  Biso   1.000  H
  C385     1.0000 0.93210  0.81090  0.95250  Biso   1.000  C
  H359     1.0000 0.90130  0.81990  0.93760  Biso   1.000  H
  H360     1.0000 0.92520  0.78850  0.91790  Biso   1.000  H
  C386     1.0000 0.96380  0.78730  0.01870  Biso   1.000  C
  H361     1.0000 0.95170  0.79590  0.03960  Biso   1.000  H
  H362     1.0000 0.95920  0.75110  0.01020  Biso   1.000  H
  C387     1.0000 0.01320  0.79560  0.06870  Biso   1.000  C
  H363     1.0000 0.01930  0.81610  0.10410  Biso   1.000  H
  H364     1.0000 0.01980  0.81730  0.04680  Biso   1.000  H
  C388     1.0000 0.05080  0.75890  0.10570  Biso   1.000  C
  H365     1.0000 0.03530  0.72590  0.08860  Biso   1.000  H
  H366     1.0000 0.06940  0.76330  0.09380  Biso   1.000  H
  C389     1.0000 0.08430  0.75820  0.17910  Biso   1.000  C
  H367     1.0000 0.09590  0.72350  0.19270  Biso   1.000  H
  H368     1.0000 0.06470  0.76370  0.18920  Biso   1.000  H
  C390     1.0000 0.12640  0.78860  0.22730  Biso   1.000  C
  H369     1.0000 0.14240  0.77990  0.27410  Biso   1.000  H
  H370     1.0000 0.11690  0.82360  0.21870  Biso   1.000  H
  H371     1.0000 0.14850  0.78300  0.22210  Biso   1.000  H
  C391     1.0000 0.81540  0.02870  0.66280  Biso   1.000  C
  H372     1.0000 0.79150  0.02690  0.66560  Biso   1.000  H
  H373     1.0000 0.83480  0.05930  0.68580  Biso   1.000  H
  C392     1.0000 0.79140  0.02610  0.58890  Biso   1.000  C
  H374     1.0000 0.81680  0.01800  0.59030  Biso   1.000  H
  H375     1.0000 0.76900  0.99760  0.56720  Biso   1.000  H
  C393     1.0000 0.76260  0.07150  0.53920  Biso   1.000  C
  H376     1.0000 0.78480  0.10020  0.56070  Biso   1.000  H
  H377     1.0000 0.73690  0.07950  0.53720  Biso   1.000  H
  C394     1.0000 0.74000  0.06800  0.46800  Biso   1.000  C
  H378     1.0000 0.71400  0.04300  0.44380  Biso   1.000  H
  H379     1.0000 0.76440  0.05550  0.46910  Biso   1.000  H
  C395     1.0000 0.72050  0.11170  0.42910  Biso   1.000  C
  H380     1.0000 0.68490  0.11000  0.39500  Biso   1.000  H
  H381     1.0000 0.73100  0.14030  0.45960  Biso   1.000  H
  C396     1.0000 0.73780  0.11980  0.38880  Biso   1.000  C
  H382     1.0000 0.75750  0.15030  0.40770  Biso   1.000  H
  H383     1.0000 0.70840  0.12680  0.34020  Biso   1.000  H
  C397     1.0000 0.76670  0.07910  0.38870  Biso   1.000  C
  H384     1.0000 0.80160  0.08300  0.42960  Biso   1.000  H
  H385     1.0000 0.76090  0.08280  0.34740  Biso   1.000  H
  C398     1.0000 0.75020  0.02800  0.38910  Biso   1.000  C
  H386     1.0000 0.76800  0.00240  0.38900  Biso   1.000  H
  H387     1.0000 0.75630  0.02450  0.43030  Biso   1.000  H
  H388     1.0000 0.71570  0.02430  0.34820  Biso   1.000  H
  C399     1.0000 0.75130  0.25280  0.86080  Biso   1.000  C
  H389     1.0000 0.76910  0.26030  0.84990  Biso   1.000  H
  C400     1.0000 0.70050  0.25290  0.80840  Biso   1.000  C
  H390     1.0000 0.68440  0.26580  0.76450  Biso   1.000  H
  C401     1.0000 0.67550  0.23540  0.81950  Biso   1.000  C
  C402     1.0000 0.70090  0.21690  0.88240  Biso   1.000  C
  H391     1.0000 0.68570  0.20510  0.89600  Biso   1.000  H
  C403     1.0000 0.75000  0.21610  0.92620  Biso   1.000  C
  H392     1.0000 0.76820  0.19380  0.96390  Biso   1.000  H
  C404     1.0000 0.54590  0.21440  0.72530  Biso   1.000  C
  H393     1.0000 0.52850  0.19880  0.73360  Biso   1.000  H
  C405     1.0000 0.59660  0.21120  0.77640  Biso   1.000  C
  H394     1.0000 0.61310  0.19370  0.81790  Biso   1.000  H
  C406     1.0000 0.62160  0.23430  0.76400  Biso   1.000  C
  C407     1.0000 0.59650  0.25850  0.70380  Biso   1.000  C
  H395     1.0000 0.61300  0.27440  0.69430  Biso   1.000  H
  C408     1.0000 0.54790  0.26000  0.65730  Biso   1.000  C
  H396     1.0000 0.53110  0.27730  0.61560  Biso   1.000  H
  O61      1.0000 0.93504  0.31800  0.11560  Biso   1.000  O
  O62      1.0000 0.85608  0.31240  0.04070  Biso   1.000  O
  O63      1.0000 0.93348  0.71710  0.51520  Biso   1.000  O
  O64      1.0000 0.85425  0.71550  0.44030  Biso   1.000  O
  O65      1.0000 0.84310  0.44760  0.22230  Biso   1.000  O
  O66      1.0000 0.94550  0.61630  0.30270  Biso   1.000  O
  O67      1.0000 0.94509  0.18511  0.06090  Biso   1.000  O
  O68      1.0000 0.86552  0.18550  0.97700  Biso   1.000  O
  O69      1.0000 0.93907  0.78234  0.65260  Biso   1.000  O
  O70      1.0000 0.85883  0.78740  0.57100  Biso   1.000  O
  O71      1.0000 0.93680  0.94100  0.96000  Biso   1.000  O
  O72      1.0000 0.84540  0.98520  0.69150  Biso   1.000  O
  Zn11     1.0000 0.84720  0.24784  0.99545  Biso   1.000  Zn
  Zn12     1.0000 0.95073  0.25237  0.09909  Biso   1.000  Zn
  N11      1.0000 0.77210  0.24340  0.91850  Biso   1.000  N
  N12      1.0000 0.52159  0.23790  0.66710  Biso   1.000  N
  C409     1.0000 0.39320  0.16590  0.58720  Biso   1.000  C
  C410     1.0000 0.39280  0.12200  0.61740  Biso   1.000  C
  C411     1.0000 0.34990  0.10310  0.59390  Biso   1.000  C
  H397     1.0000 0.32030  0.11690  0.55360  Biso   1.000  H
  C412     1.0000 0.34870  0.06560  0.62660  Biso   1.000  C
  H398     1.0000 0.31890  0.05570  0.61060  Biso   1.000  H
  C413     1.0000 0.38980  0.04270  0.68120  Biso   1.000  C
  C414     1.0000 0.43350  0.05730  0.70480  Biso   1.000  C
  H399     1.0000 0.46260  0.04120  0.74290  Biso   1.000  H
  C415     1.0000 0.43380  0.09620  0.67110  Biso   1.000  C
  H400     1.0000 0.46340  0.10510  0.68580  Biso   1.000  H
  C416     1.0000 0.38870  0.00180  0.71570  Biso   1.000  C
  C417     1.0000 0.36330  0.00790  0.73460  Biso   1.000  C
  C418     1.0000 0.41780  0.95860  0.73840  Biso   1.000  C
  H401     1.0000 0.43620  0.95210  0.72840  Biso   1.000  H
  C419     1.0000 0.41610  0.92730  0.77650  Biso   1.000  C
  C420     1.0000 0.39520  0.92910  0.79750  Biso   1.000  C
  C421     1.0000 0.36340  0.97220  0.77360  Biso   1.000  C
  H402     1.0000 0.34440  0.97600  0.78320  Biso   1.000  H
  C422     1.0000 0.39450  0.89200  0.83580  Biso   1.000  C
  C423     1.0000 0.43400  0.87470  0.89190  Biso   1.000  C
  H403     1.0000 0.46350  0.88550  0.90740  Biso   1.000  H
  C424     1.0000 0.43520  0.83840  0.93320  Biso   1.000  C
  H404     1.0000 0.46440  0.82260  0.97140  Biso   1.000  H
  C425     1.0000 0.39450  0.82820  0.91590  Biso   1.000  C
  C426     1.0000 0.35280  0.84680  0.85620  Biso   1.000  C
  H405     1.0000 0.32370  0.83900  0.84330  Biso   1.000  H
  C427     1.0000 0.35070  0.87620  0.81340  Biso   1.000  C
  H406     1.0000 0.32070  0.88580  0.76980  Biso   1.000  H
  C428     1.0000 0.39610  0.79590  0.96350  Biso   1.000  C
  C429     1.0000 0.31340  0.05370  0.74020  Biso   1.000  C
  H407     1.0000 0.28570  0.03080  0.71100  Biso   1.000  H
  H408     1.0000 0.33340  0.04570  0.78900  Biso   1.000  H
  C430     1.0000 0.29590  0.11280  0.72290  Biso   1.000  C
  H409     1.0000 0.32370  0.13510  0.74520  Biso   1.000  H
  H410     1.0000 0.27170  0.11880  0.67280  Biso   1.000  H
  C431     1.0000 0.40410  0.33320  0.50650  Biso   1.000  C
  C432     1.0000 0.40580  0.37800  0.47780  Biso   1.000  C
  C433     1.0000 0.44950  0.40090  0.50810  Biso   1.000  C
  H411     1.0000 0.47890  0.38720  0.54900  Biso   1.000  H
  C434     1.0000 0.45080  0.44340  0.47950  Biso   1.000  C
  H412     1.0000 0.47970  0.46100  0.50180  Biso   1.000  H
  C435     1.0000 0.40360  0.45840  0.41180  Biso   1.000  C
  C436     1.0000 0.36180  0.43490  0.38180  Biso   1.000  C
  H413     1.0000 0.33230  0.44530  0.33810  Biso   1.000  H
  C437     1.0000 0.36290  0.39540  0.41570  Biso   1.000  C
  H414     1.0000 0.33350  0.38010  0.39580  Biso   1.000  H
  C438     1.0000 0.39900  0.50600  0.37080  Biso   1.000  C
  C439     1.0000 0.36860  0.49200  0.29190  Biso   1.000  C
  H415     1.0000 0.35210  0.46150  0.27080  Biso   1.000  H
  C440     1.0000 0.40680  0.54760  0.38300  Biso   1.000  C
  C441     1.0000 0.41930  0.58210  0.35900  Biso   1.000  C
  H416     1.0000 0.44010  0.60940  0.38540  Biso   1.000  H
  C442     1.0000 0.40040  0.57320  0.30000  Biso   1.000  C
  C443     1.0000 0.36960  0.52870  0.26010  Biso   1.000  C
  C444     1.0000 0.40160  0.60700  0.25550  Biso   1.000  C
  C445     1.0000 0.44610  0.62720  0.28150  Biso   1.000  C
  H417     1.0000 0.47580  0.61870  0.32610  Biso   1.000  H
  C446     1.0000 0.44500  0.65800  0.24250  Biso   1.000  C
  H418     1.0000 0.47410  0.67170  0.25970  Biso   1.000  H
  C447     1.0000 0.40010  0.67090  0.17460  Biso   1.000  C
  C448     1.0000 0.35890  0.65230  0.15190  Biso   1.000  C
  H419     1.0000 0.32910  0.66110  0.10750  Biso   1.000  H
  C449     1.0000 0.35870  0.62110  0.19100  Biso   1.000  C
  H420     1.0000 0.32910  0.60910  0.17390  Biso   1.000  H
  C450     1.0000 0.39920  0.70280  0.12940  Biso   1.000  C
  C451     1.0000 0.45130  0.61180  0.48290  Biso   1.000  C
  H421     1.0000 0.48140  0.60990  0.53220  Biso   1.000  H
  H422     1.0000 0.42660  0.62530  0.48060  Biso   1.000  H
  C452     1.0000 0.45810  0.64320  0.46100  Biso   1.000  C
  H423     1.0000 0.49300  0.64990  0.49290  Biso   1.000  H
  H424     1.0000 0.44570  0.63300  0.41630  Biso   1.000  H
  C453     1.0000 0.43210  0.68910  0.45250  Biso   1.000  C
  H425     1.0000 0.40130  0.68010  0.43760  Biso   1.000  H
  H426     1.0000 0.42520  0.71150  0.41790  Biso   1.000  H
  C454     1.0000 0.46380  0.71270  0.51870  Biso   1.000  C
  H427     1.0000 0.45170  0.70410  0.53960  Biso   1.000  H
  H428     1.0000 0.45920  0.74890  0.51020  Biso   1.000  H
  C455     1.0000 0.51320  0.70440  0.56870  Biso   1.000  C
  H429     1.0000 0.51930  0.68390  0.60410  Biso   1.000  H
  H430     1.0000 0.51980  0.68270  0.54680  Biso   1.000  H
  C456     1.0000 0.55080  0.74110  0.60570  Biso   1.000  C
  H431     1.0000 0.53530  0.77410  0.58860  Biso   1.000  H
  H432     1.0000 0.56940  0.73670  0.59380  Biso   1.000  H
  C457     1.0000 0.58430  0.74180  0.67910  Biso   1.000  C
  H433     1.0000 0.59590  0.77650  0.69270  Biso   1.000  H
  H434     1.0000 0.56470  0.73630  0.68920  Biso   1.000  H
  C458     1.0000 0.62640  0.71140  0.72730  Biso   1.000  C
  H435     1.0000 0.64240  0.72010  0.77410  Biso   1.000  H
  H436     1.0000 0.61690  0.67640  0.71870  Biso   1.000  H
  H437     1.0000 0.64850  0.71700  0.72210  Biso   1.000  H
  C459     1.0000 0.31540  0.47130  0.16280  Biso   1.000  C
  H438     1.0000 0.29150  0.47310  0.16560  Biso   1.000  H
  H439     1.0000 0.33480  0.44070  0.18580  Biso   1.000  H
  C460     1.0000 0.29140  0.47390  0.08890  Biso   1.000  C
  H440     1.0000 0.31680  0.48200  0.09030  Biso   1.000  H
  H441     1.0000 0.26900  0.50240  0.06720  Biso   1.000  H
  C461     1.0000 0.26260  0.42850  0.03920  Biso   1.000  C
  H442     1.0000 0.28480  0.39980  0.06070  Biso   1.000  H
  H443     1.0000 0.23690  0.42050  0.03720  Biso   1.000  H
  C462     1.0000 0.24000  0.43200  0.96800  Biso   1.000  C
  H444     1.0000 0.21400  0.45700  0.94380  Biso   1.000  H
  H445     1.0000 0.26440  0.44450  0.96910  Biso   1.000  H
  C463     1.0000 0.22050  0.38830  0.92910  Biso   1.000  C
  H446     1.0000 0.18490  0.39000  0.89500  Biso   1.000  H
  H447     1.0000 0.23100  0.35970  0.95960  Biso   1.000  H
  C464     1.0000 0.23780  0.38020  0.88880  Biso   1.000  C
  H448     1.0000 0.25750  0.34970  0.90770  Biso   1.000  H
  H449     1.0000 0.20840  0.37320  0.84020  Biso   1.000  H
  C465     1.0000 0.26670  0.42090  0.88870  Biso   1.000  C
  H450     1.0000 0.30160  0.41700  0.92960  Biso   1.000  H
  H451     1.0000 0.26090  0.41720  0.84740  Biso   1.000  H
  C466     1.0000 0.25020  0.47200  0.88910  Biso   1.000  C
  H452     1.0000 0.26800  0.49760  0.88900  Biso   1.000  H
  H453     1.0000 0.25630  0.47550  0.93030  Biso   1.000  H
  H454     1.0000 0.21570  0.47570  0.84820  Biso   1.000  H
  C467     1.0000 0.25130  0.24720  0.36080  Biso   1.000  C
  H455     1.0000 0.26910  0.23970  0.34990  Biso   1.000  H
  C468     1.0000 0.20050  0.24710  0.30840  Biso   1.000  C
  H456     1.0000 0.18440  0.23420  0.26450  Biso   1.000  H
  C469     1.0000 0.17550  0.26460  0.31950  Biso   1.000  C
  C470     1.0000 0.20090  0.28310  0.38240  Biso   1.000  C
  H457     1.0000 0.18570  0.29490  0.39600  Biso   1.000  H
  C471     1.0000 0.25000  0.28390  0.42620  Biso   1.000  C
  H458     1.0000 0.26820  0.30620  0.46390  Biso   1.000  H
  C472     1.0000 0.04590  0.28560  0.22530  Biso   1.000  C
  H459     1.0000 0.02850  0.30120  0.23360  Biso   1.000  H
  C473     1.0000 0.09660  0.28880  0.27640  Biso   1.000  C
  H460     1.0000 0.11310  0.30630  0.31790  Biso   1.000  H
  C474     1.0000 0.12160  0.26570  0.26400  Biso   1.000  C
  C475     1.0000 0.09650  0.24150  0.20380  Biso   1.000  C
  H461     1.0000 0.11300  0.22560  0.19430  Biso   1.000  H
  C476     1.0000 0.04790  0.24000  0.15730  Biso   1.000  C
  H462     1.0000 0.03110  0.22270  0.11560  Biso   1.000  H
  O73      1.0000 0.43504  0.18200  0.61560  Biso   1.000  O
  O74      1.0000 0.35608  0.18760  0.54070  Biso   1.000  O
  O75      1.0000 0.43348  0.78290  0.01520  Biso   1.000  O
  O76      1.0000 0.35425  0.78450  0.94030  Biso   1.000  O
  O77      1.0000 0.34310  0.05240  0.72230  Biso   1.000  O
  O78      1.0000 0.44550  0.88370  0.80270  Biso   1.000  O
  O79      1.0000 0.44509  0.31489  0.56090  Biso   1.000  O
  O80      1.0000 0.36552  0.31450  0.47700  Biso   1.000  O
  O81      1.0000 0.43907  0.71766  0.15260  Biso   1.000  O
  O82      1.0000 0.35883  0.71260  0.07100  Biso   1.000  O
  O83      1.0000 0.43680  0.55900  0.46000  Biso   1.000  O
  O84      1.0000 0.34540  0.51480  0.19150  Biso   1.000  O
  Zn13     1.0000 0.34720  0.25216  0.49545  Biso   1.000  Zn
  Zn14     1.0000 0.45073  0.24763  0.59909  Biso   1.000  Zn
  N13      1.0000 0.27210  0.25660  0.41850  Biso   1.000  N
  N14      1.0000 0.02159  0.26210  0.16710  Biso   1.000  N
  C477     1.0000 0.89320  0.66590  0.58720  Biso   1.000  C
  C478     1.0000 0.89280  0.62200  0.61740  Biso   1.000  C
  C479     1.0000 0.84990  0.60310  0.59390  Biso   1.000  C
  H463     1.0000 0.82030  0.61690  0.55360  Biso   1.000  H
  C480     1.0000 0.84870  0.56560  0.62660  Biso   1.000  C
  H464     1.0000 0.81890  0.55570  0.61060  Biso   1.000  H
  C481     1.0000 0.88980  0.54270  0.68120  Biso   1.000  C
  C482     1.0000 0.93350  0.55730  0.70480  Biso   1.000  C
  H465     1.0000 0.96260  0.54120  0.74290  Biso   1.000  H
  C483     1.0000 0.93380  0.59620  0.67110  Biso   1.000  C
  H466     1.0000 0.96340  0.60510  0.68580  Biso   1.000  H
  C484     1.0000 0.88870  0.50180  0.71570  Biso   1.000  C
  C485     1.0000 0.86330  0.50790  0.73460  Biso   1.000  C
  C486     1.0000 0.91780  0.45860  0.73840  Biso   1.000  C
  H467     1.0000 0.93620  0.45210  0.72840  Biso   1.000  H
  C487     1.0000 0.91610  0.42730  0.77650  Biso   1.000  C
  C488     1.0000 0.89520  0.42910  0.79750  Biso   1.000  C
  C489     1.0000 0.86340  0.47220  0.77360  Biso   1.000  C
  H468     1.0000 0.84440  0.47600  0.78320  Biso   1.000  H
  C490     1.0000 0.89450  0.39200  0.83580  Biso   1.000  C
  C491     1.0000 0.93400  0.37470  0.89190  Biso   1.000  C
  H469     1.0000 0.96350  0.38550  0.90740  Biso   1.000  H
  C492     1.0000 0.93520  0.33840  0.93320  Biso   1.000  C
  H470     1.0000 0.96440  0.32260  0.97140  Biso   1.000  H
  C493     1.0000 0.89450  0.32820  0.91590  Biso   1.000  C
  C494     1.0000 0.85280  0.34680  0.85620  Biso   1.000  C
  H471     1.0000 0.82370  0.33900  0.84330  Biso   1.000  H
  C495     1.0000 0.85070  0.37620  0.81340  Biso   1.000  C
  H472     1.0000 0.82070  0.38580  0.76980  Biso   1.000  H
  C496     1.0000 0.89610  0.29590  0.96350  Biso   1.000  C
  C497     1.0000 0.81340  0.55370  0.74020  Biso   1.000  C
  H473     1.0000 0.78570  0.53080  0.71100  Biso   1.000  H
  H474     1.0000 0.83340  0.54570  0.78900  Biso   1.000  H
  C498     1.0000 0.79590  0.61280  0.72290  Biso   1.000  C
  H475     1.0000 0.82370  0.63510  0.74520  Biso   1.000  H
  H476     1.0000 0.77170  0.61880  0.67280  Biso   1.000  H
  C499     1.0000 0.90410  0.83320  0.50650  Biso   1.000  C
  C500     1.0000 0.90580  0.87800  0.47780  Biso   1.000  C
  C501     1.0000 0.94950  0.90090  0.50810  Biso   1.000  C
  H477     1.0000 0.97890  0.88720  0.54900  Biso   1.000  H
  C502     1.0000 0.95080  0.94340  0.47950  Biso   1.000  C
  H478     1.0000 0.97970  0.96100  0.50180  Biso   1.000  H
  C503     1.0000 0.90360  0.95840  0.41180  Biso   1.000  C
  C504     1.0000 0.86180  0.93490  0.38180  Biso   1.000  C
  H479     1.0000 0.83230  0.94530  0.33810  Biso   1.000  H
  C505     1.0000 0.86290  0.89540  0.41570  Biso   1.000  C
  H480     1.0000 0.83350  0.88010  0.39580  Biso   1.000  H
  C506     1.0000 0.89900  0.00600  0.37080  Biso   1.000  C
  C507     1.0000 0.86860  0.99200  0.29190  Biso   1.000  C
  H481     1.0000 0.85210  0.96150  0.27080  Biso   1.000  H
  C508     1.0000 0.90680  0.04760  0.38300  Biso   1.000  C
  C509     1.0000 0.91930  0.08210  0.35900  Biso   1.000  C
  H482     1.0000 0.94010  0.10940  0.38540  Biso   1.000  H
  C510     1.0000 0.90040  0.07320  0.30000  Biso   1.000  C
  C511     1.0000 0.86960  0.02870  0.26010  Biso   1.000  C
  C512     1.0000 0.90160  0.10700  0.25550  Biso   1.000  C
  C513     1.0000 0.94610  0.12720  0.28150  Biso   1.000  C
  H483     1.0000 0.97580  0.11870  0.32610  Biso   1.000  H
  C514     1.0000 0.94500  0.15800  0.24250  Biso   1.000  C
  H484     1.0000 0.97410  0.17170  0.25970  Biso   1.000  H
  C515     1.0000 0.90010  0.17090  0.17460  Biso   1.000  C
  C516     1.0000 0.85890  0.15230  0.15190  Biso   1.000  C
  H485     1.0000 0.82910  0.16110  0.10750  Biso   1.000  H
  C517     1.0000 0.85870  0.12110  0.19100  Biso   1.000  C
  H486     1.0000 0.82910  0.10910  0.17390  Biso   1.000  H
  C518     1.0000 0.89920  0.20280  0.12940  Biso   1.000  C
  C519     1.0000 0.95130  0.11180  0.48290  Biso   1.000  C
  H487     1.0000 0.98140  0.10990  0.53220  Biso   1.000  H
  H488     1.0000 0.92660  0.12530  0.48060  Biso   1.000  H
  C520     1.0000 0.95810  0.14320  0.46100  Biso   1.000  C
  H489     1.0000 0.99300  0.14990  0.49290  Biso   1.000  H
  H490     1.0000 0.94570  0.13300  0.41630  Biso   1.000  H
  C521     1.0000 0.93210  0.18910  0.45250  Biso   1.000  C
  H491     1.0000 0.90130  0.18010  0.43760  Biso   1.000  H
  H492     1.0000 0.92520  0.21150  0.41790  Biso   1.000  H
  C522     1.0000 0.96380  0.21270  0.51870  Biso   1.000  C
  H493     1.0000 0.95170  0.20410  0.53960  Biso   1.000  H
  H494     1.0000 0.95920  0.24890  0.51020  Biso   1.000  H
  C523     1.0000 0.01320  0.20440  0.56870  Biso   1.000  C
  H495     1.0000 0.01930  0.18390  0.60410  Biso   1.000  H
  H496     1.0000 0.01980  0.18270  0.54680  Biso   1.000  H
  C524     1.0000 0.05080  0.24110  0.60570  Biso   1.000  C
  H497     1.0000 0.03530  0.27410  0.58860  Biso   1.000  H
  H498     1.0000 0.06940  0.23670  0.59380  Biso   1.000  H
  C525     1.0000 0.08430  0.24180  0.67910  Biso   1.000  C
  H499     1.0000 0.09590  0.27650  0.69270  Biso   1.000  H
  H500     1.0000 0.06470  0.23630  0.68920  Biso   1.000  H
  C526     1.0000 0.12640  0.21140  0.72730  Biso   1.000  C
  H501     1.0000 0.14240  0.22010  0.77410  Biso   1.000  H
  H502     1.0000 0.11690  0.17640  0.71870  Biso   1.000  H
  H503     1.0000 0.14850  0.21700  0.72210  Biso   1.000  H
  C527     1.0000 0.81540  0.97130  0.16280  Biso   1.000  C
  H504     1.0000 0.79150  0.97310  0.16560  Biso   1.000  H
  H505     1.0000 0.83480  0.94070  0.18580  Biso   1.000  H
  C528     1.0000 0.79140  0.97390  0.08890  Biso   1.000  C
  H506     1.0000 0.81680  0.98200  0.09030  Biso   1.000  H
  H507     1.0000 0.76900  0.00240  0.06720  Biso   1.000  H
  C529     1.0000 0.76260  0.92850  0.03920  Biso   1.000  C
  H508     1.0000 0.78480  0.89980  0.06070  Biso   1.000  H
  H509     1.0000 0.73690  0.92050  0.03720  Biso   1.000  H
  C530     1.0000 0.74000  0.93200  0.96800  Biso   1.000  C
  H510     1.0000 0.71400  0.95700  0.94380  Biso   1.000  H
  H511     1.0000 0.76440  0.94450  0.96910  Biso   1.000  H
  C531     1.0000 0.72050  0.88830  0.92910  Biso   1.000  C
  H512     1.0000 0.68490  0.89000  0.89500  Biso   1.000  H
  H513     1.0000 0.73100  0.85970  0.95960  Biso   1.000  H
  C532     1.0000 0.73780  0.88020  0.88880  Biso   1.000  C
  H514     1.0000 0.75750  0.84970  0.90770  Biso   1.000  H
  H515     1.0000 0.70840  0.87320  0.84020  Biso   1.000  H
  C533     1.0000 0.76670  0.92090  0.88870  Biso   1.000  C
  H516     1.0000 0.80160  0.91700  0.92960  Biso   1.000  H
  H517     1.0000 0.76090  0.91720  0.84740  Biso   1.000  H
  C534     1.0000 0.75020  0.97200  0.88910  Biso   1.000  C
  H518     1.0000 0.76800  0.99760  0.88900  Biso   1.000  H
  H519     1.0000 0.75630  0.97550  0.93030  Biso   1.000  H
  H520     1.0000 0.71570  0.97570  0.84820  Biso   1.000  H
  C535     1.0000 0.75130  0.74720  0.36080  Biso   1.000  C
  H521     1.0000 0.76910  0.73970  0.34990  Biso   1.000  H
  C536     1.0000 0.70050  0.74710  0.30840  Biso   1.000  C
  H522     1.0000 0.68440  0.73420  0.26450  Biso   1.000  H
  C537     1.0000 0.67550  0.76460  0.31950  Biso   1.000  C
  C538     1.0000 0.70090  0.78310  0.38240  Biso   1.000  C
  H523     1.0000 0.68570  0.79490  0.39600  Biso   1.000  H
  C539     1.0000 0.75000  0.78390  0.42620  Biso   1.000  C
  H524     1.0000 0.76820  0.80620  0.46390  Biso   1.000  H
  C540     1.0000 0.54590  0.78560  0.22530  Biso   1.000  C
  H525     1.0000 0.52850  0.80120  0.23360  Biso   1.000  H
  C541     1.0000 0.59660  0.78880  0.27640  Biso   1.000  C
  H526     1.0000 0.61310  0.80630  0.31790  Biso   1.000  H
  C542     1.0000 0.62160  0.76570  0.26400  Biso   1.000  C
  C543     1.0000 0.59650  0.74150  0.20380  Biso   1.000  C
  H527     1.0000 0.61300  0.72560  0.19430  Biso   1.000  H
  C544     1.0000 0.54790  0.74000  0.15730  Biso   1.000  C
  H528     1.0000 0.53110  0.72270  0.11560  Biso   1.000  H
  O85      1.0000 0.93504  0.68200  0.61560  Biso   1.000  O
  O86      1.0000 0.85608  0.68760  0.54070  Biso   1.000  O
  O87      1.0000 0.93348  0.28290  0.01520  Biso   1.000  O
  O88      1.0000 0.85425  0.28450  0.94030  Biso   1.000  O
  O89      1.0000 0.84310  0.55240  0.72230  Biso   1.000  O
  O90      1.0000 0.94550  0.38370  0.80270  Biso   1.000  O
  O91      1.0000 0.94509  0.81489  0.56090  Biso   1.000  O
  O92      1.0000 0.86552  0.81450  0.47700  Biso   1.000  O
  O93      1.0000 0.93907  0.21766  0.15260  Biso   1.000  O
  O94      1.0000 0.85883  0.21260  0.07100  Biso   1.000  O
  O95      1.0000 0.93680  0.05900  0.46000  Biso   1.000  O
  O96      1.0000 0.84540  0.01480  0.19150  Biso   1.000  O
  Zn15     1.0000 0.84720  0.75216  0.49545  Biso   1.000  Zn
  Zn16     1.0000 0.95073  0.74763  0.59909  Biso   1.000  Zn
  N15      1.0000 0.77210  0.75660  0.41850  Biso   1.000  N
  N16      1.0000 0.52159  0.76210  0.16710  Biso   1.000  N
