data_image0
_cell_length_a       24.803
_cell_length_b       24.803
_cell_length_c       28.412
_cell_angle_alpha    90
_cell_angle_beta     90
_cell_angle_gamma    90

_symmetry_space_group_name_H-M    "P 1"
_symmetry_int_tables_number       1

loop_
  _symmetry_equiv_pos_as_xyz
  'x, y, z'

loop_
  _atom_site_label
  _atom_site_occupancy
  _atom_site_fract_x
  _atom_site_fract_y
  _atom_site_fract_z
  _atom_site_thermal_displace_type
  _atom_site_B_iso_or_equiv
  _atom_site_type_symbol
  S1       1.0000 0.99980  0.32390  0.08030  Biso   1.000  S
  N1       1.0000 0.13970  0.33230  0.07840  Biso   1.000  N
  N2       1.0000 0.92270  0.39130  0.17090  Biso   1.000  N
  C1       1.0000 0.13420  0.31670  0.03380  Biso   1.000  C
  C2       1.0000 0.17810  0.31840  0.00430  Biso   1.000  C
  C3       1.0000 0.22680  0.33400  0.01560  Biso   1.000  C
  C4       1.0000 0.23060  0.35170  0.06320  Biso   1.000  C
  C5       1.0000 0.18780  0.34950  0.09060  Biso   1.000  C
  C6       1.0000 0.93350  0.44170  0.15640  Biso   1.000  C
  C7       1.0000 0.93670  0.48360  0.18440  Biso   1.000  C
  C8       1.0000 0.92730  0.47700  0.23290  Biso   1.000  C
  C9       1.0000 0.91720  0.42420  0.24630  Biso   1.000  C
  C10      1.0000 0.91360  0.38460  0.21520  Biso   1.000  C
  H1       1.0000 0.10030  0.30310  0.02380  Biso   1.000  H
  H2       1.0000 0.17200  0.30760  0.97270  Biso   1.000  H
  H3       1.0000 0.26430  0.36470  0.07430  Biso   1.000  H
  H4       1.0000 0.19230  0.36030  0.12250  Biso   1.000  H
  H5       1.0000 0.93860  0.44700  0.12360  Biso   1.000  H
  H6       1.0000 0.94530  0.51840  0.17250  Biso   1.000  H
  H7       1.0000 0.91210  0.41680  0.27880  Biso   1.000  H
  H8       1.0000 0.90470  0.34940  0.22600  Biso   1.000  H
  S2       1.0000 0.49980  0.82390  0.58030  Biso   1.000  S
  N3       1.0000 0.63970  0.83230  0.57840  Biso   1.000  N
  N4       1.0000 0.42270  0.89130  0.67090  Biso   1.000  N
  C11      1.0000 0.63420  0.81670  0.53380  Biso   1.000  C
  C12      1.0000 0.67810  0.81840  0.50430  Biso   1.000  C
  C13      1.0000 0.72680  0.83400  0.51560  Biso   1.000  C
  C14      1.0000 0.73060  0.85170  0.56320  Biso   1.000  C
  C15      1.0000 0.68780  0.84950  0.59060  Biso   1.000  C
  C16      1.0000 0.43350  0.94170  0.65640  Biso   1.000  C
  C17      1.0000 0.43670  0.98360  0.68440  Biso   1.000  C
  C18      1.0000 0.42730  0.97700  0.73290  Biso   1.000  C
  C19      1.0000 0.41720  0.92420  0.74630  Biso   1.000  C
  C20      1.0000 0.41360  0.88460  0.71520  Biso   1.000  C
  H9       1.0000 0.60030  0.80310  0.52380  Biso   1.000  H
  H10      1.0000 0.67200  0.80760  0.47270  Biso   1.000  H
  H11      1.0000 0.76430  0.86470  0.57430  Biso   1.000  H
  H12      1.0000 0.69230  0.86030  0.62250  Biso   1.000  H
  H13      1.0000 0.43860  0.94700  0.62360  Biso   1.000  H
  H14      1.0000 0.44530  0.01840  0.67250  Biso   1.000  H
  H15      1.0000 0.41210  0.91680  0.77880  Biso   1.000  H
  H16      1.0000 0.40470  0.84940  0.72600  Biso   1.000  H
  S3       1.0000 0.50020  0.67610  0.58030  Biso   1.000  S
  N5       1.0000 0.36030  0.66770  0.57840  Biso   1.000  N
  N6       1.0000 0.57730  0.60870  0.67090  Biso   1.000  N
  C21      1.0000 0.36580  0.68330  0.53380  Biso   1.000  C
  C22      1.0000 0.32190  0.68160  0.50430  Biso   1.000  C
  C23      1.0000 0.27320  0.66600  0.51560  Biso   1.000  C
  C24      1.0000 0.26940  0.64830  0.56320  Biso   1.000  C
  C25      1.0000 0.31220  0.65050  0.59060  Biso   1.000  C
  C26      1.0000 0.56650  0.55830  0.65640  Biso   1.000  C
  C27      1.0000 0.56330  0.51640  0.68440  Biso   1.000  C
  C28      1.0000 0.57270  0.52300  0.73290  Biso   1.000  C
  C29      1.0000 0.58280  0.57580  0.74630  Biso   1.000  C
  C30      1.0000 0.58640  0.61540  0.71520  Biso   1.000  C
  H17      1.0000 0.39970  0.69690  0.52380  Biso   1.000  H
  H18      1.0000 0.32800  0.69240  0.47270  Biso   1.000  H
  H19      1.0000 0.23570  0.63530  0.57430  Biso   1.000  H
  H20      1.0000 0.30770  0.63970  0.62250  Biso   1.000  H
  H21      1.0000 0.56140  0.55300  0.62360  Biso   1.000  H
  H22      1.0000 0.55470  0.48160  0.67250  Biso   1.000  H
  H23      1.0000 0.58790  0.58320  0.77880  Biso   1.000  H
  H24      1.0000 0.59530  0.65060  0.72600  Biso   1.000  H
  S4       1.0000 0.00020  0.17610  0.08030  Biso   1.000  S
  N7       1.0000 0.86030  0.16770  0.07840  Biso   1.000  N
  N8       1.0000 0.07730  0.10870  0.17090  Biso   1.000  N
  C31      1.0000 0.86580  0.18330  0.03380  Biso   1.000  C
  C32      1.0000 0.82190  0.18160  0.00430  Biso   1.000  C
  C33      1.0000 0.77320  0.16600  0.01560  Biso   1.000  C
  C34      1.0000 0.76940  0.14830  0.06320  Biso   1.000  C
  C35      1.0000 0.81220  0.15050  0.09060  Biso   1.000  C
  C36      1.0000 0.06650  0.05830  0.15640  Biso   1.000  C
  C37      1.0000 0.06330  0.01640  0.18440  Biso   1.000  C
  C38      1.0000 0.07270  0.02300  0.23290  Biso   1.000  C
  C39      1.0000 0.08280  0.07580  0.24630  Biso   1.000  C
  C40      1.0000 0.08640  0.11540  0.21520  Biso   1.000  C
  H25      1.0000 0.89970  0.19690  0.02380  Biso   1.000  H
  H26      1.0000 0.82800  0.19240  0.97270  Biso   1.000  H
  H27      1.0000 0.73570  0.13530  0.07430  Biso   1.000  H
  H28      1.0000 0.80770  0.13970  0.12250  Biso   1.000  H
  H29      1.0000 0.06140  0.05300  0.12360  Biso   1.000  H
  H30      1.0000 0.05470  0.98160  0.17250  Biso   1.000  H
  H31      1.0000 0.08790  0.08320  0.27880  Biso   1.000  H
  H32      1.0000 0.09530  0.15060  0.22600  Biso   1.000  H
  S5       1.0000 0.92610  0.74980  0.33030  Biso   1.000  S
  N9       1.0000 0.91770  0.88970  0.32840  Biso   1.000  N
  N10      1.0000 0.85870  0.67270  0.42090  Biso   1.000  N
  C41      1.0000 0.93330  0.88420  0.28380  Biso   1.000  C
  C42      1.0000 0.93160  0.92810  0.25430  Biso   1.000  C
  C43      1.0000 0.91600  0.97680  0.26560  Biso   1.000  C
  C44      1.0000 0.89830  0.98060  0.31320  Biso   1.000  C
  C45      1.0000 0.90050  0.93780  0.34060  Biso   1.000  C
  C46      1.0000 0.80830  0.68350  0.40640  Biso   1.000  C
  C47      1.0000 0.76640  0.68670  0.43440  Biso   1.000  C
  C48      1.0000 0.77300  0.67730  0.48290  Biso   1.000  C
  C49      1.0000 0.82580  0.66720  0.49630  Biso   1.000  C
  C50      1.0000 0.86540  0.66360  0.46520  Biso   1.000  C
  H33      1.0000 0.94690  0.85030  0.27380  Biso   1.000  H
  H34      1.0000 0.94240  0.92200  0.22270  Biso   1.000  H
  H35      1.0000 0.88530  0.01430  0.32430  Biso   1.000  H
  H36      1.0000 0.88970  0.94230  0.37250  Biso   1.000  H
  H37      1.0000 0.80300  0.68860  0.37360  Biso   1.000  H
  H38      1.0000 0.73160  0.69530  0.42250  Biso   1.000  H
  H39      1.0000 0.83320  0.66210  0.52880  Biso   1.000  H
  H40      1.0000 0.90060  0.65470  0.47600  Biso   1.000  H
  S6       1.0000 0.42610  0.24980  0.83030  Biso   1.000  S
  N11      1.0000 0.41770  0.38970  0.82840  Biso   1.000  N
  N12      1.0000 0.35870  0.17270  0.92090  Biso   1.000  N
  C51      1.0000 0.43330  0.38420  0.78380  Biso   1.000  C
  C52      1.0000 0.43160  0.42810  0.75430  Biso   1.000  C
  C53      1.0000 0.41600  0.47680  0.76560  Biso   1.000  C
  C54      1.0000 0.39830  0.48060  0.81320  Biso   1.000  C
  C55      1.0000 0.40050  0.43780  0.84060  Biso   1.000  C
  C56      1.0000 0.30830  0.18350  0.90640  Biso   1.000  C
  C57      1.0000 0.26640  0.18670  0.93440  Biso   1.000  C
  C58      1.0000 0.27300  0.17730  0.98290  Biso   1.000  C
  C59      1.0000 0.32580  0.16720  0.99630  Biso   1.000  C
  C60      1.0000 0.36540  0.16360  0.96520  Biso   1.000  C
  H41      1.0000 0.44690  0.35030  0.77380  Biso   1.000  H
  H42      1.0000 0.44240  0.42200  0.72270  Biso   1.000  H
  H43      1.0000 0.38530  0.51430  0.82430  Biso   1.000  H
  H44      1.0000 0.38970  0.44230  0.87250  Biso   1.000  H
  H45      1.0000 0.30300  0.18860  0.87360  Biso   1.000  H
  H46      1.0000 0.23160  0.19530  0.92250  Biso   1.000  H
  H47      1.0000 0.33320  0.16210  0.02880  Biso   1.000  H
  H48      1.0000 0.40060  0.15470  0.97600  Biso   1.000  H
  S7       1.0000 0.57390  0.25020  0.83030  Biso   1.000  S
  N13      1.0000 0.58230  0.11030  0.82840  Biso   1.000  N
  N14      1.0000 0.64130  0.32730  0.92090  Biso   1.000  N
  C61      1.0000 0.56670  0.11580  0.78380  Biso   1.000  C
  C62      1.0000 0.56840  0.07190  0.75430  Biso   1.000  C
  C63      1.0000 0.58400  0.02320  0.76560  Biso   1.000  C
  C64      1.0000 0.60170  0.01940  0.81320  Biso   1.000  C
  C65      1.0000 0.59950  0.06220  0.84060  Biso   1.000  C
  C66      1.0000 0.69170  0.31650  0.90640  Biso   1.000  C
  C67      1.0000 0.73360  0.31330  0.93440  Biso   1.000  C
  C68      1.0000 0.72700  0.32270  0.98290  Biso   1.000  C
  C69      1.0000 0.67420  0.33280  0.99630  Biso   1.000  C
  C70      1.0000 0.63460  0.33640  0.96520  Biso   1.000  C
  H49      1.0000 0.55310  0.14970  0.77380  Biso   1.000  H
  H50      1.0000 0.55760  0.07800  0.72270  Biso   1.000  H
  H51      1.0000 0.61470  0.98570  0.82430  Biso   1.000  H
  H52      1.0000 0.61030  0.05770  0.87250  Biso   1.000  H
  H53      1.0000 0.69700  0.31140  0.87360  Biso   1.000  H
  H54      1.0000 0.76840  0.30470  0.92250  Biso   1.000  H
  H55      1.0000 0.66680  0.33790  0.02880  Biso   1.000  H
  H56      1.0000 0.59940  0.34530  0.97600  Biso   1.000  H
  S8       1.0000 0.07390  0.75020  0.33030  Biso   1.000  S
  N15      1.0000 0.08230  0.61030  0.32840  Biso   1.000  N
  N16      1.0000 0.14130  0.82730  0.42090  Biso   1.000  N
  C71      1.0000 0.06670  0.61580  0.28380  Biso   1.000  C
  C72      1.0000 0.06840  0.57190  0.25430  Biso   1.000  C
  C73      1.0000 0.08400  0.52320  0.26560  Biso   1.000  C
  C74      1.0000 0.10170  0.51940  0.31320  Biso   1.000  C
  C75      1.0000 0.09950  0.56220  0.34060  Biso   1.000  C
  C76      1.0000 0.19170  0.81650  0.40640  Biso   1.000  C
  C77      1.0000 0.23360  0.81330  0.43440  Biso   1.000  C
  C78      1.0000 0.22700  0.82270  0.48290  Biso   1.000  C
  C79      1.0000 0.17420  0.83280  0.49630  Biso   1.000  C
  C80      1.0000 0.13460  0.83640  0.46520  Biso   1.000  C
  H57      1.0000 0.05310  0.64970  0.27380  Biso   1.000  H
  H58      1.0000 0.05760  0.57800  0.22270  Biso   1.000  H
  H59      1.0000 0.11470  0.48570  0.32430  Biso   1.000  H
  H60      1.0000 0.11030  0.55770  0.37250  Biso   1.000  H
  H61      1.0000 0.19700  0.81140  0.37360  Biso   1.000  H
  H62      1.0000 0.26840  0.80470  0.42250  Biso   1.000  H
  H63      1.0000 0.16680  0.83790  0.52880  Biso   1.000  H
  H64      1.0000 0.09940  0.84530  0.47600  Biso   1.000  H
  S9       1.0000 0.50020  0.32390  0.91970  Biso   1.000  S
  N17      1.0000 0.36030  0.33230  0.92160  Biso   1.000  N
  N18      1.0000 0.57730  0.39130  0.82910  Biso   1.000  N
  C81      1.0000 0.36580  0.31670  0.96620  Biso   1.000  C
  C82      1.0000 0.32190  0.31840  0.99570  Biso   1.000  C
  C83      1.0000 0.27320  0.33400  0.98440  Biso   1.000  C
  C84      1.0000 0.26940  0.35170  0.93680  Biso   1.000  C
  C85      1.0000 0.31220  0.34950  0.90940  Biso   1.000  C
  C86      1.0000 0.56650  0.44170  0.84360  Biso   1.000  C
  C87      1.0000 0.56330  0.48360  0.81560  Biso   1.000  C
  C88      1.0000 0.57270  0.47700  0.76710  Biso   1.000  C
  C89      1.0000 0.58280  0.42420  0.75370  Biso   1.000  C
  C90      1.0000 0.58640  0.38460  0.78480  Biso   1.000  C
  H65      1.0000 0.39970  0.30310  0.97620  Biso   1.000  H
  H66      1.0000 0.32800  0.30760  0.02730  Biso   1.000  H
  H67      1.0000 0.23570  0.36470  0.92570  Biso   1.000  H
  H68      1.0000 0.30770  0.36030  0.87750  Biso   1.000  H
  H69      1.0000 0.56140  0.44700  0.87640  Biso   1.000  H
  H70      1.0000 0.55470  0.51840  0.82750  Biso   1.000  H
  H71      1.0000 0.58790  0.41680  0.72120  Biso   1.000  H
  H72      1.0000 0.59530  0.34940  0.77400  Biso   1.000  H
  S10      1.0000 0.00020  0.82390  0.41970  Biso   1.000  S
  N19      1.0000 0.86030  0.83230  0.42160  Biso   1.000  N
  N20      1.0000 0.07730  0.89130  0.32910  Biso   1.000  N
  C91      1.0000 0.86580  0.81670  0.46620  Biso   1.000  C
  C92      1.0000 0.82190  0.81840  0.49570  Biso   1.000  C
  C93      1.0000 0.77320  0.83400  0.48440  Biso   1.000  C
  C94      1.0000 0.76940  0.85170  0.43680  Biso   1.000  C
  C95      1.0000 0.81220  0.84950  0.40940  Biso   1.000  C
  C96      1.0000 0.06650  0.94170  0.34360  Biso   1.000  C
  C97      1.0000 0.06330  0.98360  0.31560  Biso   1.000  C
  C98      1.0000 0.07270  0.97700  0.26710  Biso   1.000  C
  C99      1.0000 0.08280  0.92420  0.25370  Biso   1.000  C
  C100     1.0000 0.08640  0.88460  0.28480  Biso   1.000  C
  H73      1.0000 0.89970  0.80310  0.47620  Biso   1.000  H
  H74      1.0000 0.82800  0.80760  0.52730  Biso   1.000  H
  H75      1.0000 0.73570  0.86470  0.42570  Biso   1.000  H
  H76      1.0000 0.80770  0.86030  0.37750  Biso   1.000  H
  H77      1.0000 0.06140  0.94700  0.37640  Biso   1.000  H
  H78      1.0000 0.05470  0.01840  0.32750  Biso   1.000  H
  H79      1.0000 0.08790  0.91680  0.22120  Biso   1.000  H
  H80      1.0000 0.09530  0.84940  0.27400  Biso   1.000  H
  S11      1.0000 0.99980  0.67610  0.41970  Biso   1.000  S
  N21      1.0000 0.13970  0.66770  0.42160  Biso   1.000  N
  N22      1.0000 0.92270  0.60870  0.32910  Biso   1.000  N
  C101     1.0000 0.13420  0.68330  0.46620  Biso   1.000  C
  C102     1.0000 0.17810  0.68160  0.49570  Biso   1.000  C
  C103     1.0000 0.22680  0.66600  0.48440  Biso   1.000  C
  C104     1.0000 0.23060  0.64830  0.43680  Biso   1.000  C
  C105     1.0000 0.18780  0.65050  0.40940  Biso   1.000  C
  C106     1.0000 0.93350  0.55830  0.34360  Biso   1.000  C
  C107     1.0000 0.93670  0.51640  0.31560  Biso   1.000  C
  C108     1.0000 0.92730  0.52300  0.26710  Biso   1.000  C
  C109     1.0000 0.91720  0.57580  0.25370  Biso   1.000  C
  C110     1.0000 0.91360  0.61540  0.28480  Biso   1.000  C
  H81      1.0000 0.10030  0.69690  0.47620  Biso   1.000  H
  H82      1.0000 0.17200  0.69240  0.52730  Biso   1.000  H
  H83      1.0000 0.26430  0.63530  0.42570  Biso   1.000  H
  H84      1.0000 0.19230  0.63970  0.37750  Biso   1.000  H
  H85      1.0000 0.93860  0.55300  0.37640  Biso   1.000  H
  H86      1.0000 0.94530  0.48160  0.32750  Biso   1.000  H
  H87      1.0000 0.91210  0.58320  0.22120  Biso   1.000  H
  H88      1.0000 0.90470  0.65060  0.27400  Biso   1.000  H
  S12      1.0000 0.49980  0.17610  0.91970  Biso   1.000  S
  N23      1.0000 0.63970  0.16770  0.92160  Biso   1.000  N
  N24      1.0000 0.42270  0.10870  0.82910  Biso   1.000  N
  C111     1.0000 0.63420  0.18330  0.96620  Biso   1.000  C
  C112     1.0000 0.67810  0.18160  0.99570  Biso   1.000  C
  C113     1.0000 0.72680  0.16600  0.98440  Biso   1.000  C
  C114     1.0000 0.73060  0.14830  0.93680  Biso   1.000  C
  C115     1.0000 0.68780  0.15050  0.90940  Biso   1.000  C
  C116     1.0000 0.43350  0.05830  0.84360  Biso   1.000  C
  C117     1.0000 0.43670  0.01640  0.81560  Biso   1.000  C
  C118     1.0000 0.42730  0.02300  0.76710  Biso   1.000  C
  C119     1.0000 0.41720  0.07580  0.75370  Biso   1.000  C
  C120     1.0000 0.41360  0.11540  0.78480  Biso   1.000  C
  H89      1.0000 0.60030  0.19690  0.97620  Biso   1.000  H
  H90      1.0000 0.67200  0.19240  0.02730  Biso   1.000  H
  H91      1.0000 0.76430  0.13530  0.92570  Biso   1.000  H
  H92      1.0000 0.69230  0.13970  0.87750  Biso   1.000  H
  H93      1.0000 0.43860  0.05300  0.87640  Biso   1.000  H
  H94      1.0000 0.44530  0.98160  0.82750  Biso   1.000  H
  H95      1.0000 0.41210  0.08320  0.72120  Biso   1.000  H
  H96      1.0000 0.40470  0.15060  0.77400  Biso   1.000  H
  S13      1.0000 0.57390  0.74980  0.66970  Biso   1.000  S
  N25      1.0000 0.58230  0.88970  0.67160  Biso   1.000  N
  N26      1.0000 0.64130  0.67270  0.57910  Biso   1.000  N
  C121     1.0000 0.56670  0.88420  0.71620  Biso   1.000  C
  C122     1.0000 0.56840  0.92810  0.74570  Biso   1.000  C
  C123     1.0000 0.58400  0.97680  0.73440  Biso   1.000  C
  C124     1.0000 0.60170  0.98060  0.68680  Biso   1.000  C
  C125     1.0000 0.59950  0.93780  0.65940  Biso   1.000  C
  C126     1.0000 0.69170  0.68350  0.59360  Biso   1.000  C
  C127     1.0000 0.73360  0.68670  0.56560  Biso   1.000  C
  C128     1.0000 0.72700  0.67730  0.51710  Biso   1.000  C
  C129     1.0000 0.67420  0.66720  0.50370  Biso   1.000  C
  C130     1.0000 0.63460  0.66360  0.53480  Biso   1.000  C
  H97      1.0000 0.55310  0.85030  0.72620  Biso   1.000  H
  H98      1.0000 0.55760  0.92200  0.77730  Biso   1.000  H
  H99      1.0000 0.61470  0.01430  0.67570  Biso   1.000  H
  H100     1.0000 0.61030  0.94230  0.62750  Biso   1.000  H
  H101     1.0000 0.69700  0.68860  0.62640  Biso   1.000  H
  H102     1.0000 0.76840  0.69530  0.57750  Biso   1.000  H
  H103     1.0000 0.66680  0.66210  0.47120  Biso   1.000  H
  H104     1.0000 0.59940  0.65470  0.52400  Biso   1.000  H
  S14      1.0000 0.07390  0.24980  0.16970  Biso   1.000  S
  N27      1.0000 0.08230  0.38970  0.17160  Biso   1.000  N
  N28      1.0000 0.14130  0.17270  0.07910  Biso   1.000  N
  C131     1.0000 0.06670  0.38420  0.21620  Biso   1.000  C
  C132     1.0000 0.06840  0.42810  0.24570  Biso   1.000  C
  C133     1.0000 0.08400  0.47680  0.23440  Biso   1.000  C
  C134     1.0000 0.10170  0.48060  0.18680  Biso   1.000  C
  C135     1.0000 0.09950  0.43780  0.15940  Biso   1.000  C
  C136     1.0000 0.19170  0.18350  0.09360  Biso   1.000  C
  C137     1.0000 0.23360  0.18670  0.06560  Biso   1.000  C
  C138     1.0000 0.22700  0.17730  0.01710  Biso   1.000  C
  C139     1.0000 0.17420  0.16720  0.00370  Biso   1.000  C
  C140     1.0000 0.13460  0.16360  0.03480  Biso   1.000  C
  H105     1.0000 0.05310  0.35030  0.22620  Biso   1.000  H
  H106     1.0000 0.05760  0.42200  0.27730  Biso   1.000  H
  H107     1.0000 0.11470  0.51430  0.17570  Biso   1.000  H
  H108     1.0000 0.11030  0.44230  0.12750  Biso   1.000  H
  H109     1.0000 0.19700  0.18860  0.12640  Biso   1.000  H
  H110     1.0000 0.26840  0.19530  0.07750  Biso   1.000  H
  H111     1.0000 0.16680  0.16210  0.97120  Biso   1.000  H
  H112     1.0000 0.09940  0.15470  0.02400  Biso   1.000  H
  S15      1.0000 0.92610  0.25020  0.16970  Biso   1.000  S
  N29      1.0000 0.91770  0.11030  0.17160  Biso   1.000  N
  N30      1.0000 0.85870  0.32730  0.07910  Biso   1.000  N
  C141     1.0000 0.93330  0.11580  0.21620  Biso   1.000  C
  C142     1.0000 0.93160  0.07190  0.24570  Biso   1.000  C
  C143     1.0000 0.91600  0.02320  0.23440  Biso   1.000  C
  C144     1.0000 0.89830  0.01940  0.18680  Biso   1.000  C
  C145     1.0000 0.90050  0.06220  0.15940  Biso   1.000  C
  C146     1.0000 0.80830  0.31650  0.09360  Biso   1.000  C
  C147     1.0000 0.76640  0.31330  0.06560  Biso   1.000  C
  C148     1.0000 0.77300  0.32270  0.01710  Biso   1.000  C
  C149     1.0000 0.82580  0.33280  0.00370  Biso   1.000  C
  C150     1.0000 0.86540  0.33640  0.03480  Biso   1.000  C
  H113     1.0000 0.94690  0.14970  0.22620  Biso   1.000  H
  H114     1.0000 0.94240  0.07800  0.27730  Biso   1.000  H
  H115     1.0000 0.88530  0.98570  0.17570  Biso   1.000  H
  H116     1.0000 0.88970  0.05770  0.12750  Biso   1.000  H
  H117     1.0000 0.80300  0.31140  0.12640  Biso   1.000  H
  H118     1.0000 0.73160  0.30470  0.07750  Biso   1.000  H
  H119     1.0000 0.83320  0.33790  0.97120  Biso   1.000  H
  H120     1.0000 0.90060  0.34530  0.02400  Biso   1.000  H
  S16      1.0000 0.42610  0.75020  0.66970  Biso   1.000  S
  N31      1.0000 0.41770  0.61030  0.67160  Biso   1.000  N
  N32      1.0000 0.35870  0.82730  0.57910  Biso   1.000  N
  C151     1.0000 0.43330  0.61580  0.71620  Biso   1.000  C
  C152     1.0000 0.43160  0.57190  0.74570  Biso   1.000  C
  C153     1.0000 0.41600  0.52320  0.73440  Biso   1.000  C
  C154     1.0000 0.39830  0.51940  0.68680  Biso   1.000  C
  C155     1.0000 0.40050  0.56220  0.65940  Biso   1.000  C
  C156     1.0000 0.30830  0.81650  0.59360  Biso   1.000  C
  C157     1.0000 0.26640  0.81330  0.56560  Biso   1.000  C
  C158     1.0000 0.27300  0.82270  0.51710  Biso   1.000  C
  C159     1.0000 0.32580  0.83280  0.50370  Biso   1.000  C
  C160     1.0000 0.36540  0.83640  0.53480  Biso   1.000  C
  H121     1.0000 0.44690  0.64970  0.72620  Biso   1.000  H
  H122     1.0000 0.44240  0.57800  0.77730  Biso   1.000  H
  H123     1.0000 0.38530  0.48570  0.67570  Biso   1.000  H
  H124     1.0000 0.38970  0.55770  0.62750  Biso   1.000  H
  H125     1.0000 0.30300  0.81140  0.62640  Biso   1.000  H
  H126     1.0000 0.23160  0.80470  0.57750  Biso   1.000  H
  H127     1.0000 0.33320  0.83790  0.47120  Biso   1.000  H
  H128     1.0000 0.40060  0.84530  0.52400  Biso   1.000  H
  W1       1.0000 0.00000  0.25000  0.12500  Biso   1.000  W
  W2       1.0000 0.50000  0.75000  0.62500  Biso   1.000  W
  W3       1.0000 0.00000  0.75000  0.37500  Biso   1.000  W
  W4       1.0000 0.50000  0.25000  0.87500  Biso   1.000  W
  Cu1      1.0000 0.07677  0.32677  0.12500  Biso   1.000  Cu
  Cu2      1.0000 0.57677  0.82677  0.62500  Biso   1.000  Cu
  Cu3      1.0000 0.42323  0.67323  0.62500  Biso   1.000  Cu
  Cu4      1.0000 0.92323  0.82677  0.37500  Biso   1.000  Cu
  Cu5      1.0000 0.57677  0.17323  0.87500  Biso   1.000  Cu
  Cu6      1.0000 0.42323  0.32677  0.87500  Biso   1.000  Cu
  Cu7      1.0000 0.07677  0.67323  0.37500  Biso   1.000  Cu
  Cu8      1.0000 0.92323  0.17323  0.12500  Biso   1.000  Cu
  Cu9      1.0000 0.92322  0.32678  0.12500  Biso   1.000  Cu
  Cu10     1.0000 0.42322  0.82678  0.62500  Biso   1.000  Cu
  Cu11     1.0000 0.57678  0.67322  0.62500  Biso   1.000  Cu
  Cu12     1.0000 0.07678  0.17322  0.12500  Biso   1.000  Cu
  Cu13     1.0000 0.92322  0.67322  0.37500  Biso   1.000  Cu
  Cu14     1.0000 0.42322  0.17322  0.87500  Biso   1.000  Cu
  Cu15     1.0000 0.57678  0.32678  0.87500  Biso   1.000  Cu
  Cu16     1.0000 0.07678  0.82678  0.37500  Biso   1.000  Cu
  S17      1.0000 0.00020  0.67610  0.91970  Biso   1.000  S
  N33      1.0000 0.86030  0.66770  0.92160  Biso   1.000  N
  N34      1.0000 0.07730  0.60870  0.82910  Biso   1.000  N
  C161     1.0000 0.86580  0.68330  0.96620  Biso   1.000  C
  C162     1.0000 0.82190  0.68160  0.99570  Biso   1.000  C
  C163     1.0000 0.77320  0.66600  0.98440  Biso   1.000  C
  C164     1.0000 0.76940  0.64830  0.93680  Biso   1.000  C
  C165     1.0000 0.81220  0.65050  0.90940  Biso   1.000  C
  C166     1.0000 0.06650  0.55830  0.84360  Biso   1.000  C
  C167     1.0000 0.06330  0.51640  0.81560  Biso   1.000  C
  C168     1.0000 0.07270  0.52300  0.76710  Biso   1.000  C
  C169     1.0000 0.08280  0.57580  0.75370  Biso   1.000  C
  C170     1.0000 0.08640  0.61540  0.78480  Biso   1.000  C
  H129     1.0000 0.89970  0.69690  0.97620  Biso   1.000  H
  H130     1.0000 0.82800  0.69240  0.02730  Biso   1.000  H
  H131     1.0000 0.73570  0.63530  0.92570  Biso   1.000  H
  H132     1.0000 0.80770  0.63970  0.87750  Biso   1.000  H
  H133     1.0000 0.06140  0.55300  0.87640  Biso   1.000  H
  H134     1.0000 0.05470  0.48160  0.82750  Biso   1.000  H
  H135     1.0000 0.08790  0.58320  0.72120  Biso   1.000  H
  H136     1.0000 0.09530  0.65060  0.77400  Biso   1.000  H
  S18      1.0000 0.50020  0.17610  0.41970  Biso   1.000  S
  N35      1.0000 0.36030  0.16770  0.42160  Biso   1.000  N
  N36      1.0000 0.57730  0.10870  0.32910  Biso   1.000  N
  C171     1.0000 0.36580  0.18330  0.46620  Biso   1.000  C
  C172     1.0000 0.32190  0.18160  0.49570  Biso   1.000  C
  C173     1.0000 0.27320  0.16600  0.48440  Biso   1.000  C
  C174     1.0000 0.26940  0.14830  0.43680  Biso   1.000  C
  C175     1.0000 0.31220  0.15050  0.40940  Biso   1.000  C
  C176     1.0000 0.56650  0.05830  0.34360  Biso   1.000  C
  C177     1.0000 0.56330  0.01640  0.31560  Biso   1.000  C
  C178     1.0000 0.57270  0.02300  0.26710  Biso   1.000  C
  C179     1.0000 0.58280  0.07580  0.25370  Biso   1.000  C
  C180     1.0000 0.58640  0.11540  0.28480  Biso   1.000  C
  H137     1.0000 0.39970  0.19690  0.47620  Biso   1.000  H
  H138     1.0000 0.32800  0.19240  0.52730  Biso   1.000  H
  H139     1.0000 0.23570  0.13530  0.42570  Biso   1.000  H
  H140     1.0000 0.30770  0.13970  0.37750  Biso   1.000  H
  H141     1.0000 0.56140  0.05300  0.37640  Biso   1.000  H
  H142     1.0000 0.55470  0.98160  0.32750  Biso   1.000  H
  H143     1.0000 0.58790  0.08320  0.22120  Biso   1.000  H
  H144     1.0000 0.59530  0.15060  0.27400  Biso   1.000  H
  S19      1.0000 0.49980  0.32390  0.41970  Biso   1.000  S
  N37      1.0000 0.63970  0.33230  0.42160  Biso   1.000  N
  N38      1.0000 0.42270  0.39130  0.32910  Biso   1.000  N
  C181     1.0000 0.63420  0.31670  0.46620  Biso   1.000  C
  C182     1.0000 0.67810  0.31840  0.49570  Biso   1.000  C
  C183     1.0000 0.72680  0.33400  0.48440  Biso   1.000  C
  C184     1.0000 0.73060  0.35170  0.43680  Biso   1.000  C
  C185     1.0000 0.68780  0.34950  0.40940  Biso   1.000  C
  C186     1.0000 0.43350  0.44170  0.34360  Biso   1.000  C
  C187     1.0000 0.43670  0.48360  0.31560  Biso   1.000  C
  C188     1.0000 0.42730  0.47700  0.26710  Biso   1.000  C
  C189     1.0000 0.41720  0.42420  0.25370  Biso   1.000  C
  C190     1.0000 0.41360  0.38460  0.28480  Biso   1.000  C
  H145     1.0000 0.60030  0.30310  0.47620  Biso   1.000  H
  H146     1.0000 0.67200  0.30760  0.52730  Biso   1.000  H
  H147     1.0000 0.76430  0.36470  0.42570  Biso   1.000  H
  H148     1.0000 0.69230  0.36030  0.37750  Biso   1.000  H
  H149     1.0000 0.43860  0.44700  0.37640  Biso   1.000  H
  H150     1.0000 0.44530  0.51840  0.32750  Biso   1.000  H
  H151     1.0000 0.41210  0.41680  0.22120  Biso   1.000  H
  H152     1.0000 0.40470  0.34940  0.27400  Biso   1.000  H
  S20      1.0000 0.99980  0.82390  0.91970  Biso   1.000  S
  N39      1.0000 0.13970  0.83230  0.92160  Biso   1.000  N
  N40      1.0000 0.92270  0.89130  0.82910  Biso   1.000  N
  C191     1.0000 0.13420  0.81670  0.96620  Biso   1.000  C
  C192     1.0000 0.17810  0.81840  0.99570  Biso   1.000  C
  C193     1.0000 0.22680  0.83400  0.98440  Biso   1.000  C
  C194     1.0000 0.23060  0.85170  0.93680  Biso   1.000  C
  C195     1.0000 0.18780  0.84950  0.90940  Biso   1.000  C
  C196     1.0000 0.93350  0.94170  0.84360  Biso   1.000  C
  C197     1.0000 0.93670  0.98360  0.81560  Biso   1.000  C
  C198     1.0000 0.92730  0.97700  0.76710  Biso   1.000  C
  C199     1.0000 0.91720  0.92420  0.75370  Biso   1.000  C
  C200     1.0000 0.91360  0.88460  0.78480  Biso   1.000  C
  H153     1.0000 0.10030  0.80310  0.97620  Biso   1.000  H
  H154     1.0000 0.17200  0.80760  0.02730  Biso   1.000  H
  H155     1.0000 0.26430  0.86470  0.92570  Biso   1.000  H
  H156     1.0000 0.19230  0.86030  0.87750  Biso   1.000  H
  H157     1.0000 0.93860  0.94700  0.87640  Biso   1.000  H
  H158     1.0000 0.94530  0.01840  0.82750  Biso   1.000  H
  H159     1.0000 0.91210  0.91680  0.72120  Biso   1.000  H
  H160     1.0000 0.90470  0.84940  0.77400  Biso   1.000  H
  S21      1.0000 0.07390  0.25020  0.66970  Biso   1.000  S
  N41      1.0000 0.08230  0.11030  0.67160  Biso   1.000  N
  N42      1.0000 0.14130  0.32730  0.57910  Biso   1.000  N
  C201     1.0000 0.06670  0.11580  0.71620  Biso   1.000  C
  C202     1.0000 0.06840  0.07190  0.74570  Biso   1.000  C
  C203     1.0000 0.08400  0.02320  0.73440  Biso   1.000  C
  C204     1.0000 0.10170  0.01940  0.68680  Biso   1.000  C
  C205     1.0000 0.09950  0.06220  0.65940  Biso   1.000  C
  C206     1.0000 0.19170  0.31650  0.59360  Biso   1.000  C
  C207     1.0000 0.23360  0.31330  0.56560  Biso   1.000  C
  C208     1.0000 0.22700  0.32270  0.51710  Biso   1.000  C
  C209     1.0000 0.17420  0.33280  0.50370  Biso   1.000  C
  C210     1.0000 0.13460  0.33640  0.53480  Biso   1.000  C
  H161     1.0000 0.05310  0.14970  0.72620  Biso   1.000  H
  H162     1.0000 0.05760  0.07800  0.77730  Biso   1.000  H
  H163     1.0000 0.11470  0.98570  0.67570  Biso   1.000  H
  H164     1.0000 0.11030  0.05770  0.62750  Biso   1.000  H
  H165     1.0000 0.19700  0.31140  0.62640  Biso   1.000  H
  H166     1.0000 0.26840  0.30470  0.57750  Biso   1.000  H
  H167     1.0000 0.16680  0.33790  0.47120  Biso   1.000  H
  H168     1.0000 0.09940  0.34530  0.52400  Biso   1.000  H
  S22      1.0000 0.57390  0.75020  0.16970  Biso   1.000  S
  N43      1.0000 0.58230  0.61030  0.17160  Biso   1.000  N
  N44      1.0000 0.64130  0.82730  0.07910  Biso   1.000  N
  C211     1.0000 0.56670  0.61580  0.21620  Biso   1.000  C
  C212     1.0000 0.56840  0.57190  0.24570  Biso   1.000  C
  C213     1.0000 0.58400  0.52320  0.23440  Biso   1.000  C
  C214     1.0000 0.60170  0.51940  0.18680  Biso   1.000  C
  C215     1.0000 0.59950  0.56220  0.15940  Biso   1.000  C
  C216     1.0000 0.69170  0.81650  0.09360  Biso   1.000  C
  C217     1.0000 0.73360  0.81330  0.06560  Biso   1.000  C
  C218     1.0000 0.72700  0.82270  0.01710  Biso   1.000  C
  C219     1.0000 0.67420  0.83280  0.00370  Biso   1.000  C
  C220     1.0000 0.63460  0.83640  0.03480  Biso   1.000  C
  H169     1.0000 0.55310  0.64970  0.22620  Biso   1.000  H
  H170     1.0000 0.55760  0.57800  0.27730  Biso   1.000  H
  H171     1.0000 0.61470  0.48570  0.17570  Biso   1.000  H
  H172     1.0000 0.61030  0.55770  0.12750  Biso   1.000  H
  H173     1.0000 0.69700  0.81140  0.12640  Biso   1.000  H
  H174     1.0000 0.76840  0.80470  0.07750  Biso   1.000  H
  H175     1.0000 0.66680  0.83790  0.97120  Biso   1.000  H
  H176     1.0000 0.59940  0.84530  0.02400  Biso   1.000  H
  S23      1.0000 0.42610  0.74980  0.16970  Biso   1.000  S
  N45      1.0000 0.41770  0.88970  0.17160  Biso   1.000  N
  N46      1.0000 0.35870  0.67270  0.07910  Biso   1.000  N
  C221     1.0000 0.43330  0.88420  0.21620  Biso   1.000  C
  C222     1.0000 0.43160  0.92810  0.24570  Biso   1.000  C
  C223     1.0000 0.41600  0.97680  0.23440  Biso   1.000  C
  C224     1.0000 0.39830  0.98060  0.18680  Biso   1.000  C
  C225     1.0000 0.40050  0.93780  0.15940  Biso   1.000  C
  C226     1.0000 0.30830  0.68350  0.09360  Biso   1.000  C
  C227     1.0000 0.26640  0.68670  0.06560  Biso   1.000  C
  C228     1.0000 0.27300  0.67730  0.01710  Biso   1.000  C
  C229     1.0000 0.32580  0.66720  0.00370  Biso   1.000  C
  C230     1.0000 0.36540  0.66360  0.03480  Biso   1.000  C
  H177     1.0000 0.44690  0.85030  0.22620  Biso   1.000  H
  H178     1.0000 0.44240  0.92200  0.27730  Biso   1.000  H
  H179     1.0000 0.38530  0.01430  0.17570  Biso   1.000  H
  H180     1.0000 0.38970  0.94230  0.12750  Biso   1.000  H
  H181     1.0000 0.30300  0.68860  0.12640  Biso   1.000  H
  H182     1.0000 0.23160  0.69530  0.07750  Biso   1.000  H
  H183     1.0000 0.33320  0.66210  0.97120  Biso   1.000  H
  H184     1.0000 0.40060  0.65470  0.02400  Biso   1.000  H
  S24      1.0000 0.92610  0.24980  0.66970  Biso   1.000  S
  N47      1.0000 0.91770  0.38970  0.67160  Biso   1.000  N
  N48      1.0000 0.85870  0.17270  0.57910  Biso   1.000  N
  C231     1.0000 0.93330  0.38420  0.71620  Biso   1.000  C
  C232     1.0000 0.93160  0.42810  0.74570  Biso   1.000  C
  C233     1.0000 0.91600  0.47680  0.73440  Biso   1.000  C
  C234     1.0000 0.89830  0.48060  0.68680  Biso   1.000  C
  C235     1.0000 0.90050  0.43780  0.65940  Biso   1.000  C
  C236     1.0000 0.80830  0.18350  0.59360  Biso   1.000  C
  C237     1.0000 0.76640  0.18670  0.56560  Biso   1.000  C
  C238     1.0000 0.77300  0.17730  0.51710  Biso   1.000  C
  C239     1.0000 0.82580  0.16720  0.50370  Biso   1.000  C
  C240     1.0000 0.86540  0.16360  0.53480  Biso   1.000  C
  H185     1.0000 0.94690  0.35030  0.72620  Biso   1.000  H
  H186     1.0000 0.94240  0.42200  0.77730  Biso   1.000  H
  H187     1.0000 0.88530  0.51430  0.67570  Biso   1.000  H
  H188     1.0000 0.88970  0.44230  0.62750  Biso   1.000  H
  H189     1.0000 0.80300  0.18860  0.62640  Biso   1.000  H
  H190     1.0000 0.73160  0.19530  0.57750  Biso   1.000  H
  H191     1.0000 0.83320  0.16210  0.47120  Biso   1.000  H
  H192     1.0000 0.90060  0.15470  0.52400  Biso   1.000  H
  S25      1.0000 0.49980  0.67610  0.08030  Biso   1.000  S
  N49      1.0000 0.63970  0.66770  0.07840  Biso   1.000  N
  N50      1.0000 0.42270  0.60870  0.17090  Biso   1.000  N
  C241     1.0000 0.63420  0.68330  0.03380  Biso   1.000  C
  C242     1.0000 0.67810  0.68160  0.00430  Biso   1.000  C
  C243     1.0000 0.72680  0.66600  0.01560  Biso   1.000  C
  C244     1.0000 0.73060  0.64830  0.06320  Biso   1.000  C
  C245     1.0000 0.68780  0.65050  0.09060  Biso   1.000  C
  C246     1.0000 0.43350  0.55830  0.15640  Biso   1.000  C
  C247     1.0000 0.43670  0.51640  0.18440  Biso   1.000  C
  C248     1.0000 0.42730  0.52300  0.23290  Biso   1.000  C
  C249     1.0000 0.41720  0.57580  0.24630  Biso   1.000  C
  C250     1.0000 0.41360  0.61540  0.21520  Biso   1.000  C
  H193     1.0000 0.60030  0.69690  0.02380  Biso   1.000  H
  H194     1.0000 0.67200  0.69240  0.97270  Biso   1.000  H
  H195     1.0000 0.76430  0.63530  0.07430  Biso   1.000  H
  H196     1.0000 0.69230  0.63970  0.12250  Biso   1.000  H
  H197     1.0000 0.43860  0.55300  0.12360  Biso   1.000  H
  H198     1.0000 0.44530  0.48160  0.17250  Biso   1.000  H
  H199     1.0000 0.41210  0.58320  0.27880  Biso   1.000  H
  H200     1.0000 0.40470  0.65060  0.22600  Biso   1.000  H
  S26      1.0000 0.99980  0.17610  0.58030  Biso   1.000  S
  N51      1.0000 0.13970  0.16770  0.57840  Biso   1.000  N
  N52      1.0000 0.92270  0.10870  0.67090  Biso   1.000  N
  C251     1.0000 0.13420  0.18330  0.53380  Biso   1.000  C
  C252     1.0000 0.17810  0.18160  0.50430  Biso   1.000  C
  C253     1.0000 0.22680  0.16600  0.51560  Biso   1.000  C
  C254     1.0000 0.23060  0.14830  0.56320  Biso   1.000  C
  C255     1.0000 0.18780  0.15050  0.59060  Biso   1.000  C
  C256     1.0000 0.93350  0.05830  0.65640  Biso   1.000  C
  C257     1.0000 0.93670  0.01640  0.68440  Biso   1.000  C
  C258     1.0000 0.92730  0.02300  0.73290  Biso   1.000  C
  C259     1.0000 0.91720  0.07580  0.74630  Biso   1.000  C
  C260     1.0000 0.91360  0.11540  0.71520  Biso   1.000  C
  H201     1.0000 0.10030  0.19690  0.52380  Biso   1.000  H
  H202     1.0000 0.17200  0.19240  0.47270  Biso   1.000  H
  H203     1.0000 0.26430  0.13530  0.57430  Biso   1.000  H
  H204     1.0000 0.19230  0.13970  0.62250  Biso   1.000  H
  H205     1.0000 0.93860  0.05300  0.62360  Biso   1.000  H
  H206     1.0000 0.94530  0.98160  0.67250  Biso   1.000  H
  H207     1.0000 0.91210  0.08320  0.77880  Biso   1.000  H
  H208     1.0000 0.90470  0.15060  0.72600  Biso   1.000  H
  S27      1.0000 0.00020  0.32390  0.58030  Biso   1.000  S
  N53      1.0000 0.86030  0.33230  0.57840  Biso   1.000  N
  N54      1.0000 0.07730  0.39130  0.67090  Biso   1.000  N
  C261     1.0000 0.86580  0.31670  0.53380  Biso   1.000  C
  C262     1.0000 0.82190  0.31840  0.50430  Biso   1.000  C
  C263     1.0000 0.77320  0.33400  0.51560  Biso   1.000  C
  C264     1.0000 0.76940  0.35170  0.56320  Biso   1.000  C
  C265     1.0000 0.81220  0.34950  0.59060  Biso   1.000  C
  C266     1.0000 0.06650  0.44170  0.65640  Biso   1.000  C
  C267     1.0000 0.06330  0.48360  0.68440  Biso   1.000  C
  C268     1.0000 0.07270  0.47700  0.73290  Biso   1.000  C
  C269     1.0000 0.08280  0.42420  0.74630  Biso   1.000  C
  C270     1.0000 0.08640  0.38460  0.71520  Biso   1.000  C
  H209     1.0000 0.89970  0.30310  0.52380  Biso   1.000  H
  H210     1.0000 0.82800  0.30760  0.47270  Biso   1.000  H
  H211     1.0000 0.73570  0.36470  0.57430  Biso   1.000  H
  H212     1.0000 0.80770  0.36030  0.62250  Biso   1.000  H
  H213     1.0000 0.06140  0.44700  0.62360  Biso   1.000  H
  H214     1.0000 0.05470  0.51840  0.67250  Biso   1.000  H
  H215     1.0000 0.08790  0.41680  0.77880  Biso   1.000  H
  H216     1.0000 0.09530  0.34940  0.72600  Biso   1.000  H
  S28      1.0000 0.50020  0.82390  0.08030  Biso   1.000  S
  N55      1.0000 0.36030  0.83230  0.07840  Biso   1.000  N
  N56      1.0000 0.57730  0.89130  0.17090  Biso   1.000  N
  C271     1.0000 0.36580  0.81670  0.03380  Biso   1.000  C
  C272     1.0000 0.32190  0.81840  0.00430  Biso   1.000  C
  C273     1.0000 0.27320  0.83400  0.01560  Biso   1.000  C
  C274     1.0000 0.26940  0.85170  0.06320  Biso   1.000  C
  C275     1.0000 0.31220  0.84950  0.09060  Biso   1.000  C
  C276     1.0000 0.56650  0.94170  0.15640  Biso   1.000  C
  C277     1.0000 0.56330  0.98360  0.18440  Biso   1.000  C
  C278     1.0000 0.57270  0.97700  0.23290  Biso   1.000  C
  C279     1.0000 0.58280  0.92420  0.24630  Biso   1.000  C
  C280     1.0000 0.58640  0.88460  0.21520  Biso   1.000  C
  H217     1.0000 0.39970  0.80310  0.02380  Biso   1.000  H
  H218     1.0000 0.32800  0.80760  0.97270  Biso   1.000  H
  H219     1.0000 0.23570  0.86470  0.07430  Biso   1.000  H
  H220     1.0000 0.30770  0.86030  0.12250  Biso   1.000  H
  H221     1.0000 0.56140  0.94700  0.12360  Biso   1.000  H
  H222     1.0000 0.55470  0.01840  0.17250  Biso   1.000  H
  H223     1.0000 0.58790  0.91680  0.27880  Biso   1.000  H
  H224     1.0000 0.59530  0.84940  0.22600  Biso   1.000  H
  S29      1.0000 0.42610  0.25020  0.33030  Biso   1.000  S
  N57      1.0000 0.41770  0.11030  0.32840  Biso   1.000  N
  N58      1.0000 0.35870  0.32730  0.42090  Biso   1.000  N
  C281     1.0000 0.43330  0.11580  0.28380  Biso   1.000  C
  C282     1.0000 0.43160  0.07190  0.25430  Biso   1.000  C
  C283     1.0000 0.41600  0.02320  0.26560  Biso   1.000  C
  C284     1.0000 0.39830  0.01940  0.31320  Biso   1.000  C
  C285     1.0000 0.40050  0.06220  0.34060  Biso   1.000  C
  C286     1.0000 0.30830  0.31650  0.40640  Biso   1.000  C
  C287     1.0000 0.26640  0.31330  0.43440  Biso   1.000  C
  C288     1.0000 0.27300  0.32270  0.48290  Biso   1.000  C
  C289     1.0000 0.32580  0.33280  0.49630  Biso   1.000  C
  C290     1.0000 0.36540  0.33640  0.46520  Biso   1.000  C
  H225     1.0000 0.44690  0.14970  0.27380  Biso   1.000  H
  H226     1.0000 0.44240  0.07800  0.22270  Biso   1.000  H
  H227     1.0000 0.38530  0.98570  0.32430  Biso   1.000  H
  H228     1.0000 0.38970  0.05770  0.37250  Biso   1.000  H
  H229     1.0000 0.30300  0.31140  0.37360  Biso   1.000  H
  H230     1.0000 0.23160  0.30470  0.42250  Biso   1.000  H
  H231     1.0000 0.33320  0.33790  0.52880  Biso   1.000  H
  H232     1.0000 0.40060  0.34530  0.47600  Biso   1.000  H
  S30      1.0000 0.92610  0.75020  0.83030  Biso   1.000  S
  N59      1.0000 0.91770  0.61030  0.82840  Biso   1.000  N
  N60      1.0000 0.85870  0.82730  0.92090  Biso   1.000  N
  C291     1.0000 0.93330  0.61580  0.78380  Biso   1.000  C
  C292     1.0000 0.93160  0.57190  0.75430  Biso   1.000  C
  C293     1.0000 0.91600  0.52320  0.76560  Biso   1.000  C
  C294     1.0000 0.89830  0.51940  0.81320  Biso   1.000  C
  C295     1.0000 0.90050  0.56220  0.84060  Biso   1.000  C
  C296     1.0000 0.80830  0.81650  0.90640  Biso   1.000  C
  C297     1.0000 0.76640  0.81330  0.93440  Biso   1.000  C
  C298     1.0000 0.77300  0.82270  0.98290  Biso   1.000  C
  C299     1.0000 0.82580  0.83280  0.99630  Biso   1.000  C
  C300     1.0000 0.86540  0.83640  0.96520  Biso   1.000  C
  H233     1.0000 0.94690  0.64970  0.77380  Biso   1.000  H
  H234     1.0000 0.94240  0.57800  0.72270  Biso   1.000  H
  H235     1.0000 0.88530  0.48570  0.82430  Biso   1.000  H
  H236     1.0000 0.88970  0.55770  0.87250  Biso   1.000  H
  H237     1.0000 0.80300  0.81140  0.87360  Biso   1.000  H
  H238     1.0000 0.73160  0.80470  0.92250  Biso   1.000  H
  H239     1.0000 0.83320  0.83790  0.02880  Biso   1.000  H
  H240     1.0000 0.90060  0.84530  0.97600  Biso   1.000  H
  S31      1.0000 0.07390  0.74980  0.83030  Biso   1.000  S
  N61      1.0000 0.08230  0.88970  0.82840  Biso   1.000  N
  N62      1.0000 0.14130  0.67270  0.92090  Biso   1.000  N
  C301     1.0000 0.06670  0.88420  0.78380  Biso   1.000  C
  C302     1.0000 0.06840  0.92810  0.75430  Biso   1.000  C
  C303     1.0000 0.08400  0.97680  0.76560  Biso   1.000  C
  C304     1.0000 0.10170  0.98060  0.81320  Biso   1.000  C
  C305     1.0000 0.09950  0.93780  0.84060  Biso   1.000  C
  C306     1.0000 0.19170  0.68350  0.90640  Biso   1.000  C
  C307     1.0000 0.23360  0.68670  0.93440  Biso   1.000  C
  C308     1.0000 0.22700  0.67730  0.98290  Biso   1.000  C
  C309     1.0000 0.17420  0.66720  0.99630  Biso   1.000  C
  C310     1.0000 0.13460  0.66360  0.96520  Biso   1.000  C
  H241     1.0000 0.05310  0.85030  0.77380  Biso   1.000  H
  H242     1.0000 0.05760  0.92200  0.72270  Biso   1.000  H
  H243     1.0000 0.11470  0.01430  0.82430  Biso   1.000  H
  H244     1.0000 0.11030  0.94230  0.87250  Biso   1.000  H
  H245     1.0000 0.19700  0.68860  0.87360  Biso   1.000  H
  H246     1.0000 0.26840  0.69530  0.92250  Biso   1.000  H
  H247     1.0000 0.16680  0.66210  0.02880  Biso   1.000  H
  H248     1.0000 0.09940  0.65470  0.97600  Biso   1.000  H
  S32      1.0000 0.57390  0.24980  0.33030  Biso   1.000  S
  N63      1.0000 0.58230  0.38970  0.32840  Biso   1.000  N
  N64      1.0000 0.64130  0.17270  0.42090  Biso   1.000  N
  C311     1.0000 0.56670  0.38420  0.28380  Biso   1.000  C
  C312     1.0000 0.56840  0.42810  0.25430  Biso   1.000  C
  C313     1.0000 0.58400  0.47680  0.26560  Biso   1.000  C
  C314     1.0000 0.60170  0.48060  0.31320  Biso   1.000  C
  C315     1.0000 0.59950  0.43780  0.34060  Biso   1.000  C
  C316     1.0000 0.69170  0.18350  0.40640  Biso   1.000  C
  C317     1.0000 0.73360  0.18670  0.43440  Biso   1.000  C
  C318     1.0000 0.72700  0.17730  0.48290  Biso   1.000  C
  C319     1.0000 0.67420  0.16720  0.49630  Biso   1.000  C
  C320     1.0000 0.63460  0.16360  0.46520  Biso   1.000  C
  H249     1.0000 0.55310  0.35030  0.27380  Biso   1.000  H
  H250     1.0000 0.55760  0.42200  0.22270  Biso   1.000  H
  H251     1.0000 0.61470  0.51430  0.32430  Biso   1.000  H
  H252     1.0000 0.61030  0.44230  0.37250  Biso   1.000  H
  H253     1.0000 0.69700  0.18860  0.37360  Biso   1.000  H
  H254     1.0000 0.76840  0.19530  0.42250  Biso   1.000  H
  H255     1.0000 0.66680  0.16210  0.52880  Biso   1.000  H
  H256     1.0000 0.59940  0.15470  0.47600  Biso   1.000  H
  W5       1.0000 0.00000  0.75000  0.87500  Biso   1.000  W
  W6       1.0000 0.50000  0.25000  0.37500  Biso   1.000  W
  W7       1.0000 0.00000  0.25000  0.62500  Biso   1.000  W
  W8       1.0000 0.50000  0.75000  0.12500  Biso   1.000  W
  Cu17     1.0000 0.92323  0.67323  0.87500  Biso   1.000  Cu
  Cu18     1.0000 0.42323  0.17323  0.37500  Biso   1.000  Cu
  Cu19     1.0000 0.57677  0.32677  0.37500  Biso   1.000  Cu
  Cu20     1.0000 0.07677  0.82677  0.87500  Biso   1.000  Cu
  Cu21     1.0000 0.07677  0.17323  0.62500  Biso   1.000  Cu
  Cu22     1.0000 0.42323  0.82677  0.12500  Biso   1.000  Cu
  Cu23     1.0000 0.57677  0.67323  0.12500  Biso   1.000  Cu
  Cu24     1.0000 0.92323  0.32677  0.62500  Biso   1.000  Cu
  Cu25     1.0000 0.07678  0.67322  0.87500  Biso   1.000  Cu
  Cu26     1.0000 0.57678  0.17322  0.37500  Biso   1.000  Cu
  Cu27     1.0000 0.42322  0.32678  0.37500  Biso   1.000  Cu
  Cu28     1.0000 0.92322  0.82678  0.87500  Biso   1.000  Cu
  Cu29     1.0000 0.07678  0.32678  0.62500  Biso   1.000  Cu
  Cu30     1.0000 0.57678  0.82678  0.12500  Biso   1.000  Cu
  Cu31     1.0000 0.42322  0.67322  0.12500  Biso   1.000  Cu
  Cu32     1.0000 0.92322  0.17322  0.62500  Biso   1.000  Cu
  I1       1.0000 0.33892  0.13411  0.15176  Biso   1.000  I
  Cu33     1.0000 0.42986  0.16700  0.11801  Biso   1.000  Cu
  S33      1.0000 0.42690  0.24890  0.07910  Biso   1.000  S
  N65      1.0000 0.45170  0.10540  0.07180  Biso   1.000  N
  C321     1.0000 0.48620  0.11590  0.03660  Biso   1.000  C
  C322     1.0000 0.50530  0.07400  0.00860  Biso   1.000  C
  C323     1.0000 0.49100  0.02140  0.01450  Biso   1.000  C
  C324     1.0000 0.47300  0.00900  0.06600  Biso   1.000  C
  C325     1.0000 0.45700  0.05700  0.09100  Biso   1.000  C
  C326     1.0000 0.43600  0.02000  0.03200  Biso   1.000  C
  C327     1.0000 0.42500  0.06000  0.06600  Biso   1.000  C
  I2       1.0000 0.83892  0.63411  0.65176  Biso   1.000  I
  Cu34     1.0000 0.92986  0.66700  0.61801  Biso   1.000  Cu
  S34      1.0000 0.92690  0.74890  0.57910  Biso   1.000  S
  N66      1.0000 0.95170  0.60540  0.57180  Biso   1.000  N
  C328     1.0000 0.98620  0.61590  0.53660  Biso   1.000  C
  C329     1.0000 0.00530  0.57400  0.50860  Biso   1.000  C
  C330     1.0000 0.99100  0.52140  0.51450  Biso   1.000  C
  C331     1.0000 0.97300  0.50900  0.56600  Biso   1.000  C
  C332     1.0000 0.95700  0.55700  0.59100  Biso   1.000  C
  C333     1.0000 0.93600  0.52000  0.53200  Biso   1.000  C
  C334     1.0000 0.92500  0.56000  0.56600  Biso   1.000  C
  I3       1.0000 0.16108  0.86589  0.65176  Biso   1.000  I
  Cu35     1.0000 0.07014  0.83300  0.61801  Biso   1.000  Cu
  S35      1.0000 0.07310  0.75110  0.57910  Biso   1.000  S
  N67      1.0000 0.04830  0.89460  0.57180  Biso   1.000  N
  C335     1.0000 0.01380  0.88410  0.53660  Biso   1.000  C
  C336     1.0000 0.99470  0.92600  0.50860  Biso   1.000  C
  C337     1.0000 0.00900  0.97860  0.51450  Biso   1.000  C
  C338     1.0000 0.02700  0.99100  0.56600  Biso   1.000  C
  C339     1.0000 0.04300  0.94300  0.59100  Biso   1.000  C
  C340     1.0000 0.06400  0.98000  0.53200  Biso   1.000  C
  C341     1.0000 0.07500  0.94000  0.56600  Biso   1.000  C
  I4       1.0000 0.66108  0.36589  0.15176  Biso   1.000  I
  Cu36     1.0000 0.57014  0.33300  0.11801  Biso   1.000  Cu
  S36      1.0000 0.57310  0.25110  0.07910  Biso   1.000  S
  N68      1.0000 0.54830  0.39460  0.07180  Biso   1.000  N
  C342     1.0000 0.51380  0.38410  0.03660  Biso   1.000  C
  C343     1.0000 0.49470  0.42600  0.00860  Biso   1.000  C
  C344     1.0000 0.50900  0.47860  0.01450  Biso   1.000  C
  C345     1.0000 0.52700  0.49100  0.06600  Biso   1.000  C
  C346     1.0000 0.54300  0.44300  0.09100  Biso   1.000  C
  C347     1.0000 0.56400  0.48000  0.03200  Biso   1.000  C
  C348     1.0000 0.57500  0.44000  0.06600  Biso   1.000  C
  I5       1.0000 0.11589  0.08892  0.40176  Biso   1.000  I
  Cu37     1.0000 0.08300  0.17986  0.36801  Biso   1.000  Cu
  S37      1.0000 0.00110  0.17690  0.32910  Biso   1.000  S
  N69      1.0000 0.14460  0.20170  0.32180  Biso   1.000  N
  C349     1.0000 0.13410  0.23620  0.28660  Biso   1.000  C
  C350     1.0000 0.17600  0.25530  0.25860  Biso   1.000  C
  C351     1.0000 0.22860  0.24100  0.26450  Biso   1.000  C
  C352     1.0000 0.24100  0.22300  0.31600  Biso   1.000  C
  C353     1.0000 0.19300  0.20700  0.34100  Biso   1.000  C
  C354     1.0000 0.23000  0.18600  0.28200  Biso   1.000  C
  C355     1.0000 0.19000  0.17500  0.31600  Biso   1.000  C
  I6       1.0000 0.61589  0.58892  0.90176  Biso   1.000  I
  Cu38     1.0000 0.58300  0.67986  0.86801  Biso   1.000  Cu
  S38      1.0000 0.50110  0.67690  0.82910  Biso   1.000  S
  N70      1.0000 0.64460  0.70170  0.82180  Biso   1.000  N
  C356     1.0000 0.63410  0.73620  0.78660  Biso   1.000  C
  C357     1.0000 0.67600  0.75530  0.75860  Biso   1.000  C
  C358     1.0000 0.72860  0.74100  0.76450  Biso   1.000  C
  C359     1.0000 0.74100  0.72300  0.81600  Biso   1.000  C
  C360     1.0000 0.69300  0.70700  0.84100  Biso   1.000  C
  C361     1.0000 0.73000  0.68600  0.78200  Biso   1.000  C
  C362     1.0000 0.69000  0.67500  0.81600  Biso   1.000  C
  I7       1.0000 0.38411  0.91108  0.90176  Biso   1.000  I
  Cu39     1.0000 0.41700  0.82014  0.86801  Biso   1.000  Cu
  S39      1.0000 0.49890  0.82310  0.82910  Biso   1.000  S
  N71      1.0000 0.35540  0.79830  0.82180  Biso   1.000  N
  C363     1.0000 0.36590  0.76380  0.78660  Biso   1.000  C
  C364     1.0000 0.32400  0.74470  0.75860  Biso   1.000  C
  C365     1.0000 0.27140  0.75900  0.76450  Biso   1.000  C
  C366     1.0000 0.25900  0.77700  0.81600  Biso   1.000  C
  C367     1.0000 0.30700  0.79300  0.84100  Biso   1.000  C
  C368     1.0000 0.27000  0.81400  0.78200  Biso   1.000  C
  C369     1.0000 0.31000  0.82500  0.81600  Biso   1.000  C
  I8       1.0000 0.88411  0.41108  0.40176  Biso   1.000  I
  Cu40     1.0000 0.91700  0.32014  0.36801  Biso   1.000  Cu
  S40      1.0000 0.99890  0.32310  0.32910  Biso   1.000  S
  N72      1.0000 0.85540  0.29830  0.32180  Biso   1.000  N
  C370     1.0000 0.86590  0.26380  0.28660  Biso   1.000  C
  C371     1.0000 0.82400  0.24470  0.25860  Biso   1.000  C
  C372     1.0000 0.77140  0.25900  0.26450  Biso   1.000  C
  C373     1.0000 0.75900  0.27700  0.31600  Biso   1.000  C
  C374     1.0000 0.80700  0.29300  0.34100  Biso   1.000  C
  C375     1.0000 0.77000  0.31400  0.28200  Biso   1.000  C
  C376     1.0000 0.81000  0.32500  0.31600  Biso   1.000  C
  I9       1.0000 0.66108  0.86589  0.84824  Biso   1.000  I
  Cu41     1.0000 0.57014  0.83300  0.88199  Biso   1.000  Cu
  S41      1.0000 0.57310  0.75110  0.92090  Biso   1.000  S
  N73      1.0000 0.54830  0.89460  0.92820  Biso   1.000  N
  C377     1.0000 0.51380  0.88410  0.96340  Biso   1.000  C
  C378     1.0000 0.49470  0.92600  0.99140  Biso   1.000  C
  C379     1.0000 0.50900  0.97860  0.98550  Biso   1.000  C
  C380     1.0000 0.52700  0.99100  0.93400  Biso   1.000  C
  C381     1.0000 0.54300  0.94300  0.90900  Biso   1.000  C
  C382     1.0000 0.56400  0.98000  0.96800  Biso   1.000  C
  C383     1.0000 0.57500  0.94000  0.93400  Biso   1.000  C
  I10      1.0000 0.16108  0.36589  0.34824  Biso   1.000  I
  Cu42     1.0000 0.07014  0.33300  0.38199  Biso   1.000  Cu
  S42      1.0000 0.07310  0.25110  0.42090  Biso   1.000  S
  N74      1.0000 0.04830  0.39460  0.42820  Biso   1.000  N
  C384     1.0000 0.01380  0.38410  0.46340  Biso   1.000  C
  C385     1.0000 0.99470  0.42600  0.49140  Biso   1.000  C
  C386     1.0000 0.00900  0.47860  0.48550  Biso   1.000  C
  C387     1.0000 0.02700  0.49100  0.43400  Biso   1.000  C
  C388     1.0000 0.04300  0.44300  0.40900  Biso   1.000  C
  C389     1.0000 0.06400  0.48000  0.46800  Biso   1.000  C
  C390     1.0000 0.07500  0.44000  0.43400  Biso   1.000  C
  I11      1.0000 0.83892  0.13411  0.34824  Biso   1.000  I
  Cu43     1.0000 0.92986  0.16700  0.38199  Biso   1.000  Cu
  S43      1.0000 0.92690  0.24890  0.42090  Biso   1.000  S
  N75      1.0000 0.95170  0.10540  0.42820  Biso   1.000  N
  C391     1.0000 0.98620  0.11590  0.46340  Biso   1.000  C
  C392     1.0000 0.00530  0.07400  0.49140  Biso   1.000  C
  C393     1.0000 0.99100  0.02140  0.48550  Biso   1.000  C
  C394     1.0000 0.97300  0.00900  0.43400  Biso   1.000  C
  C395     1.0000 0.95700  0.05700  0.40900  Biso   1.000  C
  C396     1.0000 0.93600  0.02000  0.46800  Biso   1.000  C
  C397     1.0000 0.92500  0.06000  0.43400  Biso   1.000  C
  I12      1.0000 0.33892  0.63411  0.84824  Biso   1.000  I
  Cu44     1.0000 0.42986  0.66700  0.88199  Biso   1.000  Cu
  S44      1.0000 0.42690  0.74890  0.92090  Biso   1.000  S
  N76      1.0000 0.45170  0.60540  0.92820  Biso   1.000  N
  C398     1.0000 0.48620  0.61590  0.96340  Biso   1.000  C
  C399     1.0000 0.50530  0.57400  0.99140  Biso   1.000  C
  C400     1.0000 0.49100  0.52140  0.98550  Biso   1.000  C
  C401     1.0000 0.47300  0.50900  0.93400  Biso   1.000  C
  C402     1.0000 0.45700  0.55700  0.90900  Biso   1.000  C
  C403     1.0000 0.43600  0.52000  0.96800  Biso   1.000  C
  C404     1.0000 0.42500  0.56000  0.93400  Biso   1.000  C
  I13      1.0000 0.88411  0.91108  0.59824  Biso   1.000  I
  Cu45     1.0000 0.91700  0.82014  0.63199  Biso   1.000  Cu
  S45      1.0000 0.99890  0.82310  0.67090  Biso   1.000  S
  N77      1.0000 0.85540  0.79830  0.67820  Biso   1.000  N
  C405     1.0000 0.86590  0.76380  0.71340  Biso   1.000  C
  C406     1.0000 0.82400  0.74470  0.74140  Biso   1.000  C
  C407     1.0000 0.77140  0.75900  0.73550  Biso   1.000  C
  C408     1.0000 0.75900  0.77700  0.68400  Biso   1.000  C
  C409     1.0000 0.80700  0.79300  0.65900  Biso   1.000  C
  C410     1.0000 0.77000  0.81400  0.71800  Biso   1.000  C
  C411     1.0000 0.81000  0.82500  0.68400  Biso   1.000  C
  I14      1.0000 0.38411  0.41108  0.09824  Biso   1.000  I
  Cu46     1.0000 0.41700  0.32014  0.13199  Biso   1.000  Cu
  S46      1.0000 0.49890  0.32310  0.17090  Biso   1.000  S
  N78      1.0000 0.35540  0.29830  0.17820  Biso   1.000  N
  C412     1.0000 0.36590  0.26380  0.21340  Biso   1.000  C
  C413     1.0000 0.32400  0.24470  0.24140  Biso   1.000  C
  C414     1.0000 0.27140  0.25900  0.23550  Biso   1.000  C
  C415     1.0000 0.25900  0.27700  0.18400  Biso   1.000  C
  C416     1.0000 0.30700  0.29300  0.15900  Biso   1.000  C
  C417     1.0000 0.27000  0.31400  0.21800  Biso   1.000  C
  C418     1.0000 0.31000  0.32500  0.18400  Biso   1.000  C
  I15      1.0000 0.61589  0.08892  0.09824  Biso   1.000  I
  Cu47     1.0000 0.58300  0.17986  0.13199  Biso   1.000  Cu
  S47      1.0000 0.50110  0.17690  0.17090  Biso   1.000  S
  N79      1.0000 0.64460  0.20170  0.17820  Biso   1.000  N
  C419     1.0000 0.63410  0.23620  0.21340  Biso   1.000  C
  C420     1.0000 0.67600  0.25530  0.24140  Biso   1.000  C
  C421     1.0000 0.72860  0.24100  0.23550  Biso   1.000  C
  C422     1.0000 0.74100  0.22300  0.18400  Biso   1.000  C
  C423     1.0000 0.69300  0.20700  0.15900  Biso   1.000  C
  C424     1.0000 0.73000  0.18600  0.21800  Biso   1.000  C
  C425     1.0000 0.69000  0.17500  0.18400  Biso   1.000  C
  I16      1.0000 0.11589  0.58892  0.59824  Biso   1.000  I
  Cu48     1.0000 0.08300  0.67986  0.63199  Biso   1.000  Cu
  S48      1.0000 0.00110  0.67690  0.67090  Biso   1.000  S
  N80      1.0000 0.14460  0.70170  0.67820  Biso   1.000  N
  C426     1.0000 0.13410  0.73620  0.71340  Biso   1.000  C
  C427     1.0000 0.17600  0.75530  0.74140  Biso   1.000  C
  C428     1.0000 0.22860  0.74100  0.73550  Biso   1.000  C
  C429     1.0000 0.24100  0.72300  0.68400  Biso   1.000  C
  C430     1.0000 0.19300  0.70700  0.65900  Biso   1.000  C
  C431     1.0000 0.23000  0.68600  0.71800  Biso   1.000  C
  C432     1.0000 0.19000  0.67500  0.68400  Biso   1.000  C
  W9       1.0000 0.50000  0.25000  0.12500  Biso   1.000  W
  W10      1.0000 0.00000  0.75000  0.62500  Biso   1.000  W
  W11      1.0000 0.00000  0.25000  0.37500  Biso   1.000  W
  W12      1.0000 0.50000  0.75000  0.87500  Biso   1.000  W
  I17      1.0000 0.16108  0.13411  0.84824  Biso   1.000  I
  Cu49     1.0000 0.07014  0.16700  0.88199  Biso   1.000  Cu
  S49      1.0000 0.07310  0.24890  0.92090  Biso   1.000  S
  N81      1.0000 0.04830  0.10540  0.92820  Biso   1.000  N
  C433     1.0000 0.01380  0.11590  0.96340  Biso   1.000  C
  C434     1.0000 0.99470  0.07400  0.99140  Biso   1.000  C
  C435     1.0000 0.00900  0.02140  0.98550  Biso   1.000  C
  C436     1.0000 0.02700  0.00900  0.93400  Biso   1.000  C
  C437     1.0000 0.04300  0.05700  0.90900  Biso   1.000  C
  C438     1.0000 0.06400  0.02000  0.96800  Biso   1.000  C
  C439     1.0000 0.07500  0.06000  0.93400  Biso   1.000  C
  I18      1.0000 0.66108  0.63411  0.34824  Biso   1.000  I
  Cu50     1.0000 0.57014  0.66700  0.38199  Biso   1.000  Cu
  S50      1.0000 0.57310  0.74890  0.42090  Biso   1.000  S
  N82      1.0000 0.54830  0.60540  0.42820  Biso   1.000  N
  C440     1.0000 0.51380  0.61590  0.46340  Biso   1.000  C
  C441     1.0000 0.49470  0.57400  0.49140  Biso   1.000  C
  C442     1.0000 0.50900  0.52140  0.48550  Biso   1.000  C
  C443     1.0000 0.52700  0.50900  0.43400  Biso   1.000  C
  C444     1.0000 0.54300  0.55700  0.40900  Biso   1.000  C
  C445     1.0000 0.56400  0.52000  0.46800  Biso   1.000  C
  C446     1.0000 0.57500  0.56000  0.43400  Biso   1.000  C
  I19      1.0000 0.33892  0.86589  0.34824  Biso   1.000  I
  Cu51     1.0000 0.42986  0.83300  0.38199  Biso   1.000  Cu
  S51      1.0000 0.42690  0.75110  0.42090  Biso   1.000  S
  N83      1.0000 0.45170  0.89460  0.42820  Biso   1.000  N
  C447     1.0000 0.48620  0.88410  0.46340  Biso   1.000  C
  C448     1.0000 0.50530  0.92600  0.49140  Biso   1.000  C
  C449     1.0000 0.49100  0.97860  0.48550  Biso   1.000  C
  C450     1.0000 0.47300  0.99100  0.43400  Biso   1.000  C
  C451     1.0000 0.45700  0.94300  0.40900  Biso   1.000  C
  C452     1.0000 0.43600  0.98000  0.46800  Biso   1.000  C
  C453     1.0000 0.42500  0.94000  0.43400  Biso   1.000  C
  I20      1.0000 0.83892  0.36589  0.84824  Biso   1.000  I
  Cu52     1.0000 0.92986  0.33300  0.88199  Biso   1.000  Cu
  S52      1.0000 0.92690  0.25110  0.92090  Biso   1.000  S
  N84      1.0000 0.95170  0.39460  0.92820  Biso   1.000  N
  C454     1.0000 0.98620  0.38410  0.96340  Biso   1.000  C
  C455     1.0000 0.00530  0.42600  0.99140  Biso   1.000  C
  C456     1.0000 0.99100  0.47860  0.98550  Biso   1.000  C
  C457     1.0000 0.97300  0.49100  0.93400  Biso   1.000  C
  C458     1.0000 0.95700  0.44300  0.90900  Biso   1.000  C
  C459     1.0000 0.93600  0.48000  0.96800  Biso   1.000  C
  C460     1.0000 0.92500  0.44000  0.93400  Biso   1.000  C
  I21      1.0000 0.38411  0.08892  0.59824  Biso   1.000  I
  Cu53     1.0000 0.41700  0.17986  0.63199  Biso   1.000  Cu
  S53      1.0000 0.49890  0.17690  0.67090  Biso   1.000  S
  N85      1.0000 0.35540  0.20170  0.67820  Biso   1.000  N
  C461     1.0000 0.36590  0.23620  0.71340  Biso   1.000  C
  C462     1.0000 0.32400  0.25530  0.74140  Biso   1.000  C
  C463     1.0000 0.27140  0.24100  0.73550  Biso   1.000  C
  C464     1.0000 0.25900  0.22300  0.68400  Biso   1.000  C
  C465     1.0000 0.30700  0.20700  0.65900  Biso   1.000  C
  C466     1.0000 0.27000  0.18600  0.71800  Biso   1.000  C
  C467     1.0000 0.31000  0.17500  0.68400  Biso   1.000  C
  I22      1.0000 0.88411  0.58892  0.09824  Biso   1.000  I
  Cu54     1.0000 0.91700  0.67986  0.13199  Biso   1.000  Cu
  S54      1.0000 0.99890  0.67690  0.17090  Biso   1.000  S
  N86      1.0000 0.85540  0.70170  0.17820  Biso   1.000  N
  C468     1.0000 0.86590  0.73620  0.21340  Biso   1.000  C
  C469     1.0000 0.82400  0.75530  0.24140  Biso   1.000  C
  C470     1.0000 0.77140  0.74100  0.23550  Biso   1.000  C
  C471     1.0000 0.75900  0.72300  0.18400  Biso   1.000  C
  C472     1.0000 0.80700  0.70700  0.15900  Biso   1.000  C
  C473     1.0000 0.77000  0.68600  0.21800  Biso   1.000  C
  C474     1.0000 0.81000  0.67500  0.18400  Biso   1.000  C
  I23      1.0000 0.11589  0.91108  0.09824  Biso   1.000  I
  Cu55     1.0000 0.08300  0.82014  0.13199  Biso   1.000  Cu
  S55      1.0000 0.00110  0.82310  0.17090  Biso   1.000  S
  N87      1.0000 0.14460  0.79830  0.17820  Biso   1.000  N
  C475     1.0000 0.13410  0.76380  0.21340  Biso   1.000  C
  C476     1.0000 0.17600  0.74470  0.24140  Biso   1.000  C
  C477     1.0000 0.22860  0.75900  0.23550  Biso   1.000  C
  C478     1.0000 0.24100  0.77700  0.18400  Biso   1.000  C
  C479     1.0000 0.19300  0.79300  0.15900  Biso   1.000  C
  C480     1.0000 0.23000  0.81400  0.21800  Biso   1.000  C
  C481     1.0000 0.19000  0.82500  0.18400  Biso   1.000  C
  I24      1.0000 0.61589  0.41108  0.59824  Biso   1.000  I
  Cu56     1.0000 0.58300  0.32014  0.63199  Biso   1.000  Cu
  S56      1.0000 0.50110  0.32310  0.67090  Biso   1.000  S
  N88      1.0000 0.64460  0.29830  0.67820  Biso   1.000  N
  C482     1.0000 0.63410  0.26380  0.71340  Biso   1.000  C
  C483     1.0000 0.67600  0.24470  0.74140  Biso   1.000  C
  C484     1.0000 0.72860  0.25900  0.73550  Biso   1.000  C
  C485     1.0000 0.74100  0.27700  0.68400  Biso   1.000  C
  C486     1.0000 0.69300  0.29300  0.65900  Biso   1.000  C
  C487     1.0000 0.73000  0.31400  0.71800  Biso   1.000  C
  C488     1.0000 0.69000  0.32500  0.68400  Biso   1.000  C
  I25      1.0000 0.83892  0.86589  0.15176  Biso   1.000  I
  Cu57     1.0000 0.92986  0.83300  0.11801  Biso   1.000  Cu
  S57      1.0000 0.92690  0.75110  0.07910  Biso   1.000  S
  N89      1.0000 0.95170  0.89460  0.07180  Biso   1.000  N
  C489     1.0000 0.98620  0.88410  0.03660  Biso   1.000  C
  C490     1.0000 0.00530  0.92600  0.00860  Biso   1.000  C
  C491     1.0000 0.99100  0.97860  0.01450  Biso   1.000  C
  C492     1.0000 0.97300  0.99100  0.06600  Biso   1.000  C
  C493     1.0000 0.95700  0.94300  0.09100  Biso   1.000  C
  C494     1.0000 0.93600  0.98000  0.03200  Biso   1.000  C
  C495     1.0000 0.92500  0.94000  0.06600  Biso   1.000  C
  I26      1.0000 0.33892  0.36589  0.65176  Biso   1.000  I
  Cu58     1.0000 0.42986  0.33300  0.61801  Biso   1.000  Cu
  S58      1.0000 0.42690  0.25110  0.57910  Biso   1.000  S
  N90      1.0000 0.45170  0.39460  0.57180  Biso   1.000  N
  C496     1.0000 0.48620  0.38410  0.53660  Biso   1.000  C
  C497     1.0000 0.50530  0.42600  0.50860  Biso   1.000  C
  C498     1.0000 0.49100  0.47860  0.51450  Biso   1.000  C
  C499     1.0000 0.47300  0.49100  0.56600  Biso   1.000  C
  C500     1.0000 0.45700  0.44300  0.59100  Biso   1.000  C
  C501     1.0000 0.43600  0.48000  0.53200  Biso   1.000  C
  C502     1.0000 0.42500  0.44000  0.56600  Biso   1.000  C
  I27      1.0000 0.66108  0.13411  0.65176  Biso   1.000  I
  Cu59     1.0000 0.57014  0.16700  0.61801  Biso   1.000  Cu
  S59      1.0000 0.57310  0.24890  0.57910  Biso   1.000  S
  N91      1.0000 0.54830  0.10540  0.57180  Biso   1.000  N
  C503     1.0000 0.51380  0.11590  0.53660  Biso   1.000  C
  C504     1.0000 0.49470  0.07400  0.50860  Biso   1.000  C
  C505     1.0000 0.50900  0.02140  0.51450  Biso   1.000  C
  C506     1.0000 0.52700  0.00900  0.56600  Biso   1.000  C
  C507     1.0000 0.54300  0.05700  0.59100  Biso   1.000  C
  C508     1.0000 0.56400  0.02000  0.53200  Biso   1.000  C
  C509     1.0000 0.57500  0.06000  0.56600  Biso   1.000  C
  I28      1.0000 0.16108  0.63411  0.15176  Biso   1.000  I
  Cu60     1.0000 0.07014  0.66700  0.11801  Biso   1.000  Cu
  S60      1.0000 0.07310  0.74890  0.07910  Biso   1.000  S
  N92      1.0000 0.04830  0.60540  0.07180  Biso   1.000  N
  C510     1.0000 0.01380  0.61590  0.03660  Biso   1.000  C
  C511     1.0000 0.99470  0.57400  0.00860  Biso   1.000  C
  C512     1.0000 0.00900  0.52140  0.01450  Biso   1.000  C
  C513     1.0000 0.02700  0.50900  0.06600  Biso   1.000  C
  C514     1.0000 0.04300  0.55700  0.09100  Biso   1.000  C
  C515     1.0000 0.06400  0.52000  0.03200  Biso   1.000  C
  C516     1.0000 0.07500  0.56000  0.06600  Biso   1.000  C
  I29      1.0000 0.61589  0.91108  0.40176  Biso   1.000  I
  Cu61     1.0000 0.58300  0.82014  0.36801  Biso   1.000  Cu
  S61      1.0000 0.50110  0.82310  0.32910  Biso   1.000  S
  N93      1.0000 0.64460  0.79830  0.32180  Biso   1.000  N
  C517     1.0000 0.63410  0.76380  0.28660  Biso   1.000  C
  C518     1.0000 0.67600  0.74470  0.25860  Biso   1.000  C
  C519     1.0000 0.72860  0.75900  0.26450  Biso   1.000  C
  C520     1.0000 0.74100  0.77700  0.31600  Biso   1.000  C
  C521     1.0000 0.69300  0.79300  0.34100  Biso   1.000  C
  C522     1.0000 0.73000  0.81400  0.28200  Biso   1.000  C
  C523     1.0000 0.69000  0.82500  0.31600  Biso   1.000  C
  I30      1.0000 0.11589  0.41108  0.90176  Biso   1.000  I
  Cu62     1.0000 0.08300  0.32014  0.86801  Biso   1.000  Cu
  S62      1.0000 0.00110  0.32310  0.82910  Biso   1.000  S
  N94      1.0000 0.14460  0.29830  0.82180  Biso   1.000  N
  C524     1.0000 0.13410  0.26380  0.78660  Biso   1.000  C
  C525     1.0000 0.17600  0.24470  0.75860  Biso   1.000  C
  C526     1.0000 0.22860  0.25900  0.76450  Biso   1.000  C
  C527     1.0000 0.24100  0.27700  0.81600  Biso   1.000  C
  C528     1.0000 0.19300  0.29300  0.84100  Biso   1.000  C
  C529     1.0000 0.23000  0.31400  0.78200  Biso   1.000  C
  C530     1.0000 0.19000  0.32500  0.81600  Biso   1.000  C
  I31      1.0000 0.88411  0.08892  0.90176  Biso   1.000  I
  Cu63     1.0000 0.91700  0.17986  0.86801  Biso   1.000  Cu
  S63      1.0000 0.99890  0.17690  0.82910  Biso   1.000  S
  N95      1.0000 0.85540  0.20170  0.82180  Biso   1.000  N
  C531     1.0000 0.86590  0.23620  0.78660  Biso   1.000  C
  C532     1.0000 0.82400  0.25530  0.75860  Biso   1.000  C
  C533     1.0000 0.77140  0.24100  0.76450  Biso   1.000  C
  C534     1.0000 0.75900  0.22300  0.81600  Biso   1.000  C
  C535     1.0000 0.80700  0.20700  0.84100  Biso   1.000  C
  C536     1.0000 0.77000  0.18600  0.78200  Biso   1.000  C
  C537     1.0000 0.81000  0.17500  0.81600  Biso   1.000  C
  I32      1.0000 0.38411  0.58892  0.40176  Biso   1.000  I
  Cu64     1.0000 0.41700  0.67986  0.36801  Biso   1.000  Cu
  S64      1.0000 0.49890  0.67690  0.32910  Biso   1.000  S
  N96      1.0000 0.35540  0.70170  0.32180  Biso   1.000  N
  C538     1.0000 0.36590  0.73620  0.28660  Biso   1.000  C
  C539     1.0000 0.32400  0.75530  0.25860  Biso   1.000  C
  C540     1.0000 0.27140  0.74100  0.26450  Biso   1.000  C
  C541     1.0000 0.25900  0.72300  0.31600  Biso   1.000  C
  C542     1.0000 0.30700  0.70700  0.34100  Biso   1.000  C
  C543     1.0000 0.27000  0.68600  0.28200  Biso   1.000  C
  C544     1.0000 0.31000  0.67500  0.31600  Biso   1.000  C
  W13      1.0000 0.00000  0.25000  0.87500  Biso   1.000  W
  W14      1.0000 0.50000  0.75000  0.37500  Biso   1.000  W
  W15      1.0000 0.50000  0.25000  0.62500  Biso   1.000  W
  W16      1.0000 0.00000  0.75000  0.12500  Biso   1.000  W
