data_ic5b00096_si_002_clean
_audit_creation_date              2015-08-19
_audit_creation_method            'Materials Studio'
_symmetry_space_group_name_H-M    'P1'
_symmetry_Int_Tables_number       1
_symmetry_cell_setting            triclinic
loop_
_symmetry_equiv_pos_as_xyz
  x,y,z
_cell_length_a                    26.0887
_cell_length_b                    26.0887
_cell_length_c                    26.0887
_cell_angle_alpha                 90.0000
_cell_angle_beta                  90.0000
_cell_angle_gamma                 90.0000
loop_
_atom_site_label
_atom_site_type_symbol
_atom_site_fract_x
_atom_site_fract_y
_atom_site_fract_z
_atom_site_U_iso_or_equiv
_atom_site_adp_type
_atom_site_occupancy
Zr1    Zr    0.48456   0.98355   0.09117   0.01267  Uiso   1.00
Zr2    Zr    0.51645   0.59117   0.48456   0.01267  Uiso   1.00
Zr3    Zr    0.98456   0.51645   0.90883   0.01267  Uiso   1.00
Zr4    Zr    0.48456   0.51645   0.59117   0.01267  Uiso   1.00
Zr5    Zr    0.51544   0.48355   0.40883   0.01267  Uiso   1.00
Zr6    Zr    0.51544   0.01645   0.90883   0.01267  Uiso   1.00
Zr7    Zr    0.01544   0.01645   0.59117   0.01267  Uiso   1.00
Zr8    Zr    0.40883   0.51544   0.48355   0.01267  Uiso   1.00
Zr9    Zr    0.51645   0.90883   0.98456   0.01267  Uiso   1.00
Zr10   Zr    0.09117   0.48456   0.98355   0.01267  Uiso   1.00
Zr11   Zr    0.98456   0.98355   0.40883   0.01267  Uiso   1.00
Zr12   Zr    0.98355   0.09117   0.48456   0.01267  Uiso   1.00
Zr13   Zr    0.01544   0.48355   0.09117   0.01267  Uiso   1.00
Zr14   Zr    0.01645   0.90883   0.51544   0.01267  Uiso   1.00
Zr15   Zr    0.09117   0.01544   0.48355   0.01267  Uiso   1.00
Zr16   Zr    0.98355   0.40883   0.98456   0.01267  Uiso   1.00
Zr17   Zr    0.01645   0.59117   0.01544   0.01267  Uiso   1.00
Zr18   Zr    0.90883   0.98456   0.51645   0.01267  Uiso   1.00
Zr19   Zr    0.90883   0.51544   0.01645   0.01267  Uiso   1.00
Zr20   Zr    0.48355   0.40883   0.51544   0.01267  Uiso   1.00
Zr21   Zr    0.59117   0.48456   0.51645   0.01267  Uiso   1.00
Zr22   Zr    0.48355   0.09117   0.01544   0.01267  Uiso   1.00
Zr23   Zr    0.59117   0.01544   0.01645   0.01267  Uiso   1.00
Zr24   Zr    0.40883   0.98456   0.98355   0.01267  Uiso   1.00
Cu1    Cu    0.21157   0.70751   0.48054   0.01267  Uiso   1.00
Cu2    Cu    0.20751   0.48054   0.28843   0.01267  Uiso   1.00
Cu3    Cu    0.01946   0.78843   0.20751   0.01267  Uiso   1.00
Cu4    Cu    0.28843   0.20751   0.48054   0.01267  Uiso   1.00
Cu5    Cu    0.48054   0.28843   0.20751   0.01267  Uiso   1.00
Cu6    Cu    0.79249   0.98054   0.21157   0.01267  Uiso   1.00
Cu7    Cu    0.70751   0.01946   0.71157   0.01267  Uiso   1.00
Cu8    Cu    0.78843   0.20751   0.01946   0.01267  Uiso   1.00
Cu9    Cu    0.21157   0.79249   0.98054   0.01267  Uiso   1.00
Cu10   Cu    0.71157   0.70751   0.01946   0.01267  Uiso   1.00
Cu11   Cu    0.78843   0.29249   0.51946   0.01267  Uiso   1.00
Cu12   Cu    0.98054   0.21157   0.79249   0.01267  Uiso   1.00
Cu13   Cu    0.48054   0.21157   0.70751   0.01267  Uiso   1.00
Cu14   Cu    0.29249   0.98054   0.28843   0.01267  Uiso   1.00
Cu15   Cu    0.51946   0.78843   0.29249   0.01267  Uiso   1.00
Cu16   Cu    0.79249   0.51946   0.71157   0.01267  Uiso   1.00
Cu17   Cu    0.29249   0.51946   0.78843   0.01267  Uiso   1.00
Cu18   Cu    0.28843   0.29249   0.98054   0.01267  Uiso   1.00
Cu19   Cu    0.01946   0.71157   0.70751   0.01267  Uiso   1.00
Cu20   Cu    0.98054   0.28843   0.29249   0.01267  Uiso   1.00
Cu21   Cu    0.71157   0.79249   0.51946   0.01267  Uiso   1.00
Cu22   Cu    0.20751   0.01946   0.78843   0.01267  Uiso   1.00
Cu23   Cu    0.70751   0.48054   0.21157   0.01267  Uiso   1.00
Cu24   Cu    0.51946   0.71157   0.79249   0.01267  Uiso   1.00
H1     H     0.80099   0.99615   0.64950   0.01267  Uiso   1.00
H2     H     0.64950   0.80099   0.99615   0.01267  Uiso   1.00
H3     H     0.30099   0.50385   0.35050   0.01267  Uiso   1.00
H4     H     0.06029   0.63888   0.30376   0.01267  Uiso   1.00
H5     H     0.36112   0.69624   0.93971   0.01267  Uiso   1.00
H6     H     0.63888   0.19624   0.56029   0.01267  Uiso   1.00
H7     H     0.91674   0.76574   0.56323   0.01267  Uiso   1.00
H8     H     0.30099   0.99615   0.85050   0.01267  Uiso   1.00
H9     H     0.58326   0.23426   0.06323   0.01267  Uiso   1.00
H10    H     0.98877   0.19558   0.35782   0.01267  Uiso   1.00
H11    H     0.07821   0.95508   0.26789   0.01267  Uiso   1.00
H12    H     0.08326   0.23426   0.43677   0.01267  Uiso   1.00
H13    H     0.80298   0.63104   0.55575   0.01267  Uiso   1.00
H14    H     0.64218   0.48877   0.30442   0.01267  Uiso   1.00
H15    H     0.14218   0.48877   0.19558   0.01267  Uiso   1.00
H16    H     0.99615   0.64950   0.80099   0.01267  Uiso   1.00
H17    H     0.69901   0.00385   0.14950   0.01267  Uiso   1.00
H18    H     0.06323   0.58326   0.23426   0.01267  Uiso   1.00
H19    H     0.80442   0.64218   0.01123   0.01267  Uiso   1.00
H20    H     0.23211   0.57821   0.95508   0.01267  Uiso   1.00
H21    H     0.92179   0.45508   0.23211   0.01267  Uiso   1.00
H22    H     0.93971   0.36112   0.69624   0.01267  Uiso   1.00
H23    H     0.63888   0.30376   0.06029   0.01267  Uiso   1.00
H24    H     0.76789   0.07821   0.54492   0.01267  Uiso   1.00
H25    H     0.35782   0.51123   0.69558   0.01267  Uiso   1.00
H26    H     0.13888   0.19624   0.93971   0.01267  Uiso   1.00
H27    H     0.99615   0.85050   0.30099   0.01267  Uiso   1.00
H28    H     0.19558   0.35782   0.98877   0.01267  Uiso   1.00
H29    H     0.85782   0.51123   0.80442   0.01267  Uiso   1.00
H30    H     0.56323   0.58326   0.26574   0.01267  Uiso   1.00
H31    H     0.19624   0.93971   0.13888   0.01267  Uiso   1.00
H32    H     0.86896   0.05575   0.80298   0.01267  Uiso   1.00
H33    H     0.41674   0.76574   0.93677   0.01267  Uiso   1.00
H34    H     0.95508   0.23211   0.57821   0.01267  Uiso   1.00
H35    H     0.69624   0.56029   0.86112   0.01267  Uiso   1.00
H36    H     0.93971   0.13888   0.19624   0.01267  Uiso   1.00
H37    H     0.56029   0.63888   0.19624   0.01267  Uiso   1.00
H38    H     0.13104   0.55575   0.69702   0.01267  Uiso   1.00
H39    H     0.64218   0.01123   0.80442   0.01267  Uiso   1.00
H40    H     0.73211   0.57821   0.54492   0.01267  Uiso   1.00
H41    H     0.05575   0.69702   0.36896   0.01267  Uiso   1.00
H42    H     0.35050   0.30099   0.50385   0.01267  Uiso   1.00
H43    H     0.14950   0.69901   0.00385   0.01267  Uiso   1.00
H44    H     0.69702   0.36896   0.05575   0.01267  Uiso   1.00
H45    H     0.45508   0.23211   0.92179   0.01267  Uiso   1.00
H46    H     0.48877   0.19558   0.14218   0.01267  Uiso   1.00
H47    H     0.51123   0.69558   0.35782   0.01267  Uiso   1.00
H48    H     0.30376   0.43971   0.13888   0.01267  Uiso   1.00
H49    H     0.63104   0.55575   0.80298   0.01267  Uiso   1.00
H50    H     0.23211   0.92179   0.45508   0.01267  Uiso   1.00
H51    H     0.69624   0.93971   0.36112   0.01267  Uiso   1.00
H52    H     0.95508   0.26789   0.07821   0.01267  Uiso   1.00
H53    H     0.06029   0.86112   0.80376   0.01267  Uiso   1.00
H54    H     0.54492   0.76789   0.07821   0.01267  Uiso   1.00
H55    H     0.85782   0.98877   0.30442   0.01267  Uiso   1.00
H56    H     0.49615   0.85050   0.19901   0.01267  Uiso   1.00
H57    H     0.43677   0.08326   0.23426   0.01267  Uiso   1.00
H58    H     0.86112   0.80376   0.06029   0.01267  Uiso   1.00
H59    H     0.06323   0.91674   0.73426   0.01267  Uiso   1.00
H60    H     0.19624   0.56029   0.63888   0.01267  Uiso   1.00
H61    H     0.85050   0.19901   0.49615   0.01267  Uiso   1.00
H62    H     0.80376   0.06029   0.86112   0.01267  Uiso   1.00
H63    H     0.91674   0.73426   0.06323   0.01267  Uiso   1.00
H64    H     0.69558   0.35782   0.51123   0.01267  Uiso   1.00
H65    H     0.01123   0.80442   0.64218   0.01267  Uiso   1.00
H66    H     0.56029   0.86112   0.69624   0.01267  Uiso   1.00
H67    H     0.73426   0.43677   0.41674   0.01267  Uiso   1.00
H68    H     0.51123   0.80442   0.85782   0.01267  Uiso   1.00
H69    H     0.07821   0.54492   0.76789   0.01267  Uiso   1.00
H70    H     0.41674   0.73426   0.43677   0.01267  Uiso   1.00
H71    H     0.63104   0.94425   0.30298   0.01267  Uiso   1.00
H72    H     0.36896   0.44425   0.19702   0.01267  Uiso   1.00
H73    H     0.49615   0.64950   0.69901   0.01267  Uiso   1.00
H74    H     0.19558   0.14218   0.48877   0.01267  Uiso   1.00
H75    H     0.04492   0.76789   0.42179   0.01267  Uiso   1.00
H76    H     0.23426   0.43677   0.08326   0.01267  Uiso   1.00
H77    H     0.43971   0.36112   0.80376   0.01267  Uiso   1.00
H78    H     0.00385   0.14950   0.69901   0.01267  Uiso   1.00
H79    H     0.86112   0.69624   0.56029   0.01267  Uiso   1.00
H80    H     0.64950   0.69901   0.49615   0.01267  Uiso   1.00
H81    H     0.30376   0.06029   0.63888   0.01267  Uiso   1.00
H82    H     0.55575   0.69702   0.13104   0.01267  Uiso   1.00
H83    H     0.05575   0.80298   0.86896   0.01267  Uiso   1.00
H84    H     0.44425   0.19702   0.36896   0.01267  Uiso   1.00
H85    H     0.93677   0.41674   0.76574   0.01267  Uiso   1.00
H86    H     0.23426   0.06323   0.58326   0.01267  Uiso   1.00
H87    H     0.73426   0.06323   0.91674   0.01267  Uiso   1.00
H88    H     0.14950   0.80099   0.50385   0.01267  Uiso   1.00
H89    H     0.92179   0.04492   0.73211   0.01267  Uiso   1.00
H90    H     0.13104   0.94425   0.19702   0.01267  Uiso   1.00
H91    H     0.69901   0.49615   0.64950   0.01267  Uiso   1.00
H92    H     0.76574   0.93677   0.41674   0.01267  Uiso   1.00
H93    H     0.26574   0.56323   0.58326   0.01267  Uiso   1.00
H94    H     0.76789   0.42179   0.04492   0.01267  Uiso   1.00
H95    H     0.50385   0.14950   0.80099   0.01267  Uiso   1.00
H96    H     0.35782   0.98877   0.19558   0.01267  Uiso   1.00
H97    H     0.58326   0.26574   0.56323   0.01267  Uiso   1.00
H98    H     0.26574   0.93677   0.08326   0.01267  Uiso   1.00
H99    H     0.42179   0.45508   0.26789   0.01267  Uiso   1.00
H100   H     0.26789   0.07821   0.95508   0.01267  Uiso   1.00
H101   H     0.54492   0.73211   0.57821   0.01267  Uiso   1.00
H102   H     0.57821   0.54492   0.73211   0.01267  Uiso   1.00
H103   H     0.80442   0.85782   0.51123   0.01267  Uiso   1.00
H104   H     0.69702   0.13104   0.55575   0.01267  Uiso   1.00
H105   H     0.35050   0.19901   0.00385   0.01267  Uiso   1.00
H106   H     0.50385   0.35050   0.30099   0.01267  Uiso   1.00
H107   H     0.19702   0.36896   0.44425   0.01267  Uiso   1.00
H108   H     0.19702   0.13104   0.94425   0.01267  Uiso   1.00
H109   H     0.30442   0.64218   0.48877   0.01267  Uiso   1.00
H110   H     0.93677   0.08326   0.26574   0.01267  Uiso   1.00
H111   H     0.43677   0.41674   0.73426   0.01267  Uiso   1.00
H112   H     0.48877   0.30442   0.64218   0.01267  Uiso   1.00
H113   H     0.94425   0.30298   0.63104   0.01267  Uiso   1.00
H114   H     0.44425   0.30298   0.86896   0.01267  Uiso   1.00
H115   H     0.57821   0.95508   0.23211   0.01267  Uiso   1.00
H116   H     0.55575   0.80298   0.63104   0.01267  Uiso   1.00
H117   H     0.94425   0.19702   0.13104   0.01267  Uiso   1.00
H118   H     0.36896   0.05575   0.69702   0.01267  Uiso   1.00
H119   H     0.19901   0.00385   0.35050   0.01267  Uiso   1.00
H120   H     0.30298   0.63104   0.94425   0.01267  Uiso   1.00
H121   H     0.01123   0.69558   0.14218   0.01267  Uiso   1.00
H122   H     0.80298   0.86896   0.05575   0.01267  Uiso   1.00
H123   H     0.00385   0.35050   0.19901   0.01267  Uiso   1.00
H124   H     0.86896   0.44425   0.30298   0.01267  Uiso   1.00
H125   H     0.80376   0.43971   0.36112   0.01267  Uiso   1.00
H126   H     0.30442   0.85782   0.98877   0.01267  Uiso   1.00
H127   H     0.14218   0.01123   0.69558   0.01267  Uiso   1.00
H128   H     0.56323   0.91674   0.76574   0.01267  Uiso   1.00
H129   H     0.08326   0.26574   0.93677   0.01267  Uiso   1.00
H130   H     0.73211   0.92179   0.04492   0.01267  Uiso   1.00
H131   H     0.42179   0.04492   0.76789   0.01267  Uiso   1.00
H132   H     0.36112   0.80376   0.43971   0.01267  Uiso   1.00
H133   H     0.76574   0.56323   0.91674   0.01267  Uiso   1.00
H134   H     0.19901   0.49615   0.85050   0.01267  Uiso   1.00
H135   H     0.43971   0.13888   0.30376   0.01267  Uiso   1.00
H136   H     0.45508   0.26789   0.42179   0.01267  Uiso   1.00
H137   H     0.80099   0.50385   0.14950   0.01267  Uiso   1.00
H138   H     0.69558   0.14218   0.01123   0.01267  Uiso   1.00
H139   H     0.30298   0.86896   0.44425   0.01267  Uiso   1.00
H140   H     0.98877   0.30442   0.85782   0.01267  Uiso   1.00
H141   H     0.13888   0.30376   0.43971   0.01267  Uiso   1.00
H142   H     0.85050   0.30099   0.99615   0.01267  Uiso   1.00
H143   H     0.26789   0.42179   0.45508   0.01267  Uiso   1.00
H144   H     0.04492   0.73211   0.92179   0.01267  Uiso   1.00
C1     C     0.54356   0.77160   0.64494   0.01267  Uiso   1.00
C2     C     0.18088   0.81489   0.49167   0.01267  Uiso   1.00
C3     C     0.18088   0.68511   0.99167   0.01267  Uiso   1.00
C4     C     0.46250   0.36565   0.68189   0.01267  Uiso   1.00
C5     C     0.68511   0.99167   0.18088   0.01267  Uiso   1.00
C6     C     0.19626   0.96765   0.23186   0.01267  Uiso   1.00
C7     C     0.26814   0.80374   0.46765   0.01267  Uiso   1.00
C8     C     0.48045   0.18434   0.86621   0.01267  Uiso   1.00
C9     C     0.34953   0.77072   0.44974   0.01267  Uiso   1.00
C10    C     0.77029   0.11370   0.53716   0.01267  Uiso   1.00
C11    C     0.88241   0.72964   0.05200   0.01267  Uiso   1.00
C12    C     0.30374   0.03235   0.73186   0.01267  Uiso   1.00
C13    C     0.54356   0.72840   0.14494   0.01267  Uiso   1.00
C14    C     0.68398   0.32479   0.52126   0.01267  Uiso   1.00
C15    C     0.38630   0.46284   0.27029   0.01267  Uiso   1.00
C16    C     0.46598   0.29990   0.76405   0.01267  Uiso   1.00
C17    C     0.46068   0.09971   0.13860   0.01267  Uiso   1.00
C18    C     0.23595   0.96598   0.20010   0.01267  Uiso   1.00
C19    C     0.52126   0.81602   0.82479   0.01267  Uiso   1.00
C20    C     0.31811   0.53750   0.63435   0.01267  Uiso   1.00
C21    C     0.53716   0.72971   0.61370   0.01267  Uiso   1.00
C22    C     0.53932   0.90029   0.86140   0.01267  Uiso   1.00
C23    C     0.31566   0.36621   0.48045   0.01267  Uiso   1.00
C24    C     0.05026   0.84953   0.77072   0.01267  Uiso   1.00
C25    C     0.97874   0.31602   0.82479   0.01267  Uiso   1.00
C26    C     0.02126   0.68398   0.17521   0.01267  Uiso   1.00
C27    C     0.46250   0.13435   0.18189   0.01267  Uiso   1.00
C28    C     0.44974   0.15047   0.27072   0.01267  Uiso   1.00
C29    C     0.81566   0.13379   0.51955   0.01267  Uiso   1.00
C30    C     0.23186   0.30374   0.46765   0.01267  Uiso   1.00
C31    C     0.22971   0.88630   0.46284   0.01267  Uiso   1.00
C32    C     0.05200   0.88241   0.72964   0.01267  Uiso   1.00
C33    C     0.36565   0.81811   0.96250   0.01267  Uiso   1.00
C34    C     0.17521   0.02126   0.68398   0.01267  Uiso   1.00
C35    C     0.53235   0.73186   0.19626   0.01267  Uiso   1.00
C36    C     0.55026   0.84953   0.72928   0.01267  Uiso   1.00
C37    C     0.68434   0.86621   0.01955   0.01267  Uiso   1.00
C38    C     0.36140   0.96068   0.09971   0.01267  Uiso   1.00
C39    C     0.53750   0.86565   0.81811   0.01267  Uiso   1.00
C40    C     0.49167   0.31912   0.31489   0.01267  Uiso   1.00
C41    C     0.89911   0.01281   0.64020   0.01267  Uiso   1.00
C42    C     0.14494   0.95644   0.22840   0.01267  Uiso   1.00
C43    C     0.23595   0.53402   0.70010   0.01267  Uiso   1.00
C44    C     0.84953   0.72928   0.55026   0.01267  Uiso   1.00
C45    C     0.36621   0.01955   0.81566   0.01267  Uiso   1.00
C46    C     0.86140   0.53932   0.90029   0.01267  Uiso   1.00
C47    C     0.96250   0.36565   0.81811   0.01267  Uiso   1.00
C48    C     0.34953   0.72928   0.94974   0.01267  Uiso   1.00
C49    C     0.48719   0.35980   0.39911   0.01267  Uiso   1.00
C50    C     0.63379   0.51955   0.68434   0.01267  Uiso   1.00
C51    C     0.18398   0.17521   0.47874   0.01267  Uiso   1.00
C52    C     0.03932   0.90029   0.63860   0.01267  Uiso   1.00
C53    C     0.51281   0.85980   0.10089   0.01267  Uiso   1.00
C54    C     0.27036   0.55200   0.61759   0.01267  Uiso   1.00
C55    C     0.96068   0.40029   0.86140   0.01267  Uiso   1.00
C56    C     0.22964   0.05200   0.61759   0.01267  Uiso   1.00
C57    C     0.48719   0.14020   0.89911   0.01267  Uiso   1.00
C58    C     0.86140   0.96068   0.40029   0.01267  Uiso   1.00
C59    C     0.67521   0.47874   0.31602   0.01267  Uiso   1.00
C60    C     0.27072   0.05026   0.65047   0.01267  Uiso   1.00
C61    C     0.63435   0.31811   0.53750   0.01267  Uiso   1.00
C62    C     0.03716   0.72971   0.88630   0.01267  Uiso   1.00
C63    C     0.03402   0.79990   0.76405   0.01267  Uiso   1.00
C64    C     0.30374   0.46765   0.23186   0.01267  Uiso   1.00
C65    C     0.31912   0.18511   0.99167   0.01267  Uiso   1.00
C66    C     0.46284   0.22971   0.88630   0.01267  Uiso   1.00
C67    C     0.61759   0.27036   0.55200   0.01267  Uiso   1.00
C68    C     0.26405   0.03402   0.70010   0.01267  Uiso   1.00
C69    C     0.39911   0.48719   0.35980   0.01267  Uiso   1.00
C70    C     0.03402   0.70010   0.26405   0.01267  Uiso   1.00
C71    C     0.01955   0.81566   0.36621   0.01267  Uiso   1.00
C72    C     0.90029   0.86140   0.53932   0.01267  Uiso   1.00
C73    C     0.64494   0.95644   0.27160   0.01267  Uiso   1.00
C74    C     0.65047   0.22928   0.55026   0.01267  Uiso   1.00
C75    C     0.82479   0.97874   0.31602   0.01267  Uiso   1.00
C76    C     0.77029   0.38630   0.03716   0.01267  Uiso   1.00
C77    C     0.95644   0.22840   0.14494   0.01267  Uiso   1.00
C78    C     0.32479   0.52126   0.68398   0.01267  Uiso   1.00
C79    C     0.44800   0.38241   0.72964   0.01267  Uiso   1.00
C80    C     0.72971   0.88630   0.03716   0.01267  Uiso   1.00
C81    C     0.63860   0.46068   0.40029   0.01267  Uiso   1.00
C82    C     0.99167   0.18088   0.68511   0.01267  Uiso   1.00
C83    C     0.76405   0.03402   0.79990   0.01267  Uiso   1.00
C84    C     0.18189   0.46250   0.13435   0.01267  Uiso   1.00
C85    C     0.50833   0.81912   0.18511   0.01267  Uiso   1.00
C86    C     0.98045   0.31566   0.13379   0.01267  Uiso   1.00
C87    C     0.14020   0.60089   0.98719   0.01267  Uiso   1.00
C88    C     0.68088   0.68511   0.50833   0.01267  Uiso   1.00
C89    C     0.27160   0.85506   0.45644   0.01267  Uiso   1.00
C90    C     0.01281   0.85980   0.39911   0.01267  Uiso   1.00
C91    C     0.46598   0.20010   0.26405   0.01267  Uiso   1.00
C92    C     0.76814   0.80374   0.03235   0.01267  Uiso   1.00
C93    C     0.13860   0.46068   0.09971   0.01267  Uiso   1.00
C94    C     0.26814   0.69626   0.96765   0.01267  Uiso   1.00
C95    C     0.96250   0.13435   0.31811   0.01267  Uiso   1.00
C96    C     0.61370   0.96284   0.22971   0.01267  Uiso   1.00
C97    C     0.29990   0.73595   0.96598   0.01267  Uiso   1.00
C98    C     0.88241   0.77036   0.55200   0.01267  Uiso   1.00
C99    C     0.04356   0.77160   0.85506   0.01267  Uiso   1.00
C100   C     0.47874   0.18398   0.17521   0.01267  Uiso   1.00
C101   C     0.53716   0.77029   0.11370   0.01267  Uiso   1.00
C102   C     0.13379   0.98045   0.31566   0.01267  Uiso   1.00
C103   C     0.84953   0.77072   0.05026   0.01267  Uiso   1.00
C104   C     0.77036   0.94800   0.38241   0.01267  Uiso   1.00
C105   C     0.97874   0.18398   0.32479   0.01267  Uiso   1.00
C106   C     0.81811   0.53750   0.86565   0.01267  Uiso   1.00
C107   C     0.13860   0.03932   0.59971   0.01267  Uiso   1.00
C108   C     0.27029   0.11370   0.96284   0.01267  Uiso   1.00
C109   C     0.88630   0.46284   0.22971   0.01267  Uiso   1.00
C110   C     0.38630   0.03716   0.77029   0.01267  Uiso   1.00
C111   C     0.09971   0.36140   0.96068   0.01267  Uiso   1.00
C112   C     0.51281   0.64020   0.60089   0.01267  Uiso   1.00
C113   C     0.86565   0.81811   0.53750   0.01267  Uiso   1.00
C114   C     0.96284   0.22971   0.61370   0.01267  Uiso   1.00
C115   C     0.31602   0.67521   0.47874   0.01267  Uiso   1.00
C116   C     0.76405   0.46598   0.29990   0.01267  Uiso   1.00
C117   C     0.22840   0.14494   0.95644   0.01267  Uiso   1.00
C118   C     0.96284   0.27029   0.11370   0.01267  Uiso   1.00
C119   C     0.20010   0.23595   0.96598   0.01267  Uiso   1.00
C120   C     0.81811   0.96250   0.36565   0.01267  Uiso   1.00
C121   C     0.68434   0.63379   0.51955   0.01267  Uiso   1.00
C122   C     0.96068   0.09971   0.36140   0.01267  Uiso   1.00
C123   C     0.27036   0.94800   0.11759   0.01267  Uiso   1.00
C124   C     0.53932   0.59971   0.36140   0.01267  Uiso   1.00
C125   C     0.03932   0.59971   0.13860   0.01267  Uiso   1.00
C126   C     0.72928   0.94974   0.34953   0.01267  Uiso   1.00
C127   C     0.10089   0.51281   0.85980   0.01267  Uiso   1.00
C128   C     0.35980   0.10089   0.98719   0.01267  Uiso   1.00
C129   C     0.01955   0.68434   0.86621   0.01267  Uiso   1.00
C130   C     0.18511   0.99167   0.31912   0.01267  Uiso   1.00
C131   C     0.55026   0.65047   0.22928   0.01267  Uiso   1.00
C132   C     0.96765   0.26814   0.69626   0.01267  Uiso   1.00
C133   C     0.11759   0.27036   0.94800   0.01267  Uiso   1.00
C134   C     0.94974   0.34953   0.72928   0.01267  Uiso   1.00
C135   C     0.11370   0.53716   0.77029   0.01267  Uiso   1.00
C136   C     0.96598   0.20010   0.23595   0.01267  Uiso   1.00
C137   C     0.59971   0.13860   0.03932   0.01267  Uiso   1.00
C138   C     0.70010   0.26405   0.03402   0.01267  Uiso   1.00
C139   C     0.03235   0.73186   0.30374   0.01267  Uiso   1.00
C140   C     0.01281   0.64020   0.89911   0.01267  Uiso   1.00
C141   C     0.14020   0.89911   0.48719   0.01267  Uiso   1.00
C142   C     0.36140   0.53932   0.59971   0.01267  Uiso   1.00
C143   C     0.61370   0.53716   0.72971   0.01267  Uiso   1.00
C144   C     0.81602   0.67521   0.02126   0.01267  Uiso   1.00
C145   C     0.68088   0.81489   0.00833   0.01267  Uiso   1.00
C146   C     0.86565   0.68189   0.03750   0.01267  Uiso   1.00
C147   C     0.95644   0.27160   0.64494   0.01267  Uiso   1.00
C148   C     0.60089   0.98719   0.14020   0.01267  Uiso   1.00
C149   C     0.81912   0.18511   0.50833   0.01267  Uiso   1.00
C150   C     0.46284   0.27029   0.38630   0.01267  Uiso   1.00
C151   C     0.51955   0.68434   0.63379   0.01267  Uiso   1.00
C152   C     0.44800   0.11759   0.22964   0.01267  Uiso   1.00
C153   C     0.68189   0.03750   0.86565   0.01267  Uiso   1.00
C154   C     0.03750   0.63435   0.18189   0.01267  Uiso   1.00
C155   C     0.73595   0.53402   0.79990   0.01267  Uiso   1.00
C156   C     0.26405   0.46598   0.20010   0.01267  Uiso   1.00
C157   C     0.05200   0.61759   0.22964   0.01267  Uiso   1.00
C158   C     0.77072   0.44974   0.34953   0.01267  Uiso   1.00
C159   C     0.04356   0.72840   0.35506   0.01267  Uiso   1.00
C160   C     0.85980   0.10089   0.51281   0.01267  Uiso   1.00
C161   C     0.50833   0.68088   0.68511   0.01267  Uiso   1.00
C162   C     0.31566   0.13379   0.98045   0.01267  Uiso   1.00
C163   C     0.55200   0.88241   0.77036   0.01267  Uiso   1.00
C164   C     0.77160   0.64494   0.54356   0.01267  Uiso   1.00
C165   C     0.27029   0.38630   0.46284   0.01267  Uiso   1.00
C166   C     0.31912   0.31489   0.49167   0.01267  Uiso   1.00
C167   C     0.59971   0.36140   0.53932   0.01267  Uiso   1.00
C168   C     0.13379   0.51955   0.81566   0.01267  Uiso   1.00
C169   C     0.15047   0.22928   0.94974   0.01267  Uiso   1.00
C170   C     0.18434   0.63379   0.98045   0.01267  Uiso   1.00
C171   C     0.32479   0.97874   0.18398   0.01267  Uiso   1.00
C172   C     0.22971   0.61370   0.96284   0.01267  Uiso   1.00
C173   C     0.49167   0.18088   0.81489   0.01267  Uiso   1.00
C174   C     0.64494   0.54356   0.77160   0.01267  Uiso   1.00
C175   C     0.13435   0.31811   0.96250   0.01267  Uiso   1.00
C176   C     0.80374   0.46765   0.26814   0.01267  Uiso   1.00
C177   C     0.73186   0.30374   0.03235   0.01267  Uiso   1.00
C178   C     0.85506   0.04356   0.77160   0.01267  Uiso   1.00
C179   C     0.00833   0.68088   0.81489   0.01267  Uiso   1.00
C180   C     0.31811   0.96250   0.13435   0.01267  Uiso   1.00
C181   C     0.53750   0.63435   0.31811   0.01267  Uiso   1.00
C182   C     0.88630   0.03716   0.72971   0.01267  Uiso   1.00
C183   C     0.81912   0.31489   0.00833   0.01267  Uiso   1.00
C184   C     0.72928   0.55026   0.84953   0.01267  Uiso   1.00
C185   C     0.35506   0.45644   0.22840   0.01267  Uiso   1.00
C186   C     0.53235   0.76814   0.69626   0.01267  Uiso   1.00
C187   C     0.77160   0.85506   0.04356   0.01267  Uiso   1.00
C188   C     0.72964   0.44800   0.38241   0.01267  Uiso   1.00
C189   C     0.63860   0.03932   0.90029   0.01267  Uiso   1.00
C190   C     0.72840   0.35506   0.04356   0.01267  Uiso   1.00
C191   C     0.68189   0.46250   0.36565   0.01267  Uiso   1.00
C192   C     0.65047   0.27072   0.05026   0.01267  Uiso   1.00
C193   C     0.79990   0.73595   0.53402   0.01267  Uiso   1.00
C194   C     0.64020   0.60089   0.51281   0.01267  Uiso   1.00
C195   C     0.46068   0.40029   0.63860   0.01267  Uiso   1.00
C196   C     0.96598   0.29990   0.73595   0.01267  Uiso   1.00
C197   C     0.67521   0.02126   0.81602   0.01267  Uiso   1.00
C198   C     0.80374   0.03235   0.76814   0.01267  Uiso   1.00
C199   C     0.98719   0.35980   0.10089   0.01267  Uiso   1.00
C200   C     0.51955   0.81566   0.13379   0.01267  Uiso   1.00
C201   C     0.45644   0.22840   0.35506   0.01267  Uiso   1.00
C202   C     0.68398   0.17521   0.02126   0.01267  Uiso   1.00
C203   C     0.39911   0.01281   0.85980   0.01267  Uiso   1.00
C204   C     0.63435   0.18189   0.03750   0.01267  Uiso   1.00
C205   C     0.09971   0.13860   0.46068   0.01267  Uiso   1.00
C206   C     0.05026   0.65047   0.27072   0.01267  Uiso   1.00
C207   C     0.22840   0.35506   0.45644   0.01267  Uiso   1.00
C208   C     0.20010   0.26405   0.46598   0.01267  Uiso   1.00
C209   C     0.44974   0.34953   0.77072   0.01267  Uiso   1.00
C210   C     0.94800   0.11759   0.27036   0.01267  Uiso   1.00
C211   C     0.72840   0.14494   0.54356   0.01267  Uiso   1.00
C212   C     0.27160   0.64494   0.95644   0.01267  Uiso   1.00
C213   C     0.31602   0.82479   0.97874   0.01267  Uiso   1.00
C214   C     0.81602   0.82479   0.52126   0.01267  Uiso   1.00
C215   C     0.29990   0.76405   0.46598   0.01267  Uiso   1.00
C216   C     0.69626   0.53235   0.76814   0.01267  Uiso   1.00
C217   C     0.22928   0.94974   0.15047   0.01267  Uiso   1.00
C218   C     0.48045   0.31566   0.36621   0.01267  Uiso   1.00
C219   C     0.36565   0.68189   0.46250   0.01267  Uiso   1.00
C220   C     0.69626   0.96765   0.26814   0.01267  Uiso   1.00
C221   C     0.94974   0.15047   0.22928   0.01267  Uiso   1.00
C222   C     0.03750   0.86565   0.68189   0.01267  Uiso   1.00
C223   C     0.02126   0.81602   0.67521   0.01267  Uiso   1.00
C224   C     0.36621   0.48045   0.31566   0.01267  Uiso   1.00
C225   C     0.46765   0.26814   0.80374   0.01267  Uiso   1.00
C226   C     0.90029   0.63860   0.03932   0.01267  Uiso   1.00
C227   C     0.19626   0.53235   0.73186   0.01267  Uiso   1.00
C228   C     0.64020   0.89911   0.01281   0.01267  Uiso   1.00
C229   C     0.35980   0.39911   0.48719   0.01267  Uiso   1.00
C230   C     0.89911   0.48719   0.14020   0.01267  Uiso   1.00
C231   C     0.40029   0.86140   0.96068   0.01267  Uiso   1.00
C232   C     0.85980   0.39911   0.01281   0.01267  Uiso   1.00
C233   C     0.13435   0.18189   0.46250   0.01267  Uiso   1.00
C234   C     0.60089   0.51281   0.64020   0.01267  Uiso   1.00
C235   C     0.72971   0.61370   0.53716   0.01267  Uiso   1.00
C236   C     0.81489   0.00833   0.68088   0.01267  Uiso   1.00
C237   C     0.35506   0.04356   0.72840   0.01267  Uiso   1.00
C238   C     0.81489   0.49167   0.18088   0.01267  Uiso   1.00
C239   C     0.31489   0.00833   0.81912   0.01267  Uiso   1.00
C240   C     0.22964   0.44800   0.11759   0.01267  Uiso   1.00
C241   C     0.52126   0.68398   0.32479   0.01267  Uiso   1.00
C242   C     0.15047   0.27072   0.44974   0.01267  Uiso   1.00
C243   C     0.98719   0.14020   0.60089   0.01267  Uiso   1.00
C244   C     0.47874   0.31602   0.67521   0.01267  Uiso   1.00
C245   C     0.22928   0.55026   0.65047   0.01267  Uiso   1.00
C246   C     0.31489   0.49167   0.31912   0.01267  Uiso   1.00
C247   C     0.40029   0.63860   0.46068   0.01267  Uiso   1.00
C248   C     0.61759   0.22964   0.05200   0.01267  Uiso   1.00
C249   C     0.55200   0.61759   0.27036   0.01267  Uiso   1.00
C250   C     0.63379   0.98045   0.18434   0.01267  Uiso   1.00
C251   C     0.17521   0.47874   0.18398   0.01267  Uiso   1.00
C252   C     0.03716   0.77029   0.38630   0.01267  Uiso   1.00
C253   C     0.11759   0.22964   0.44800   0.01267  Uiso   1.00
C254   C     0.82479   0.52126   0.81602   0.01267  Uiso   1.00
C255   C     0.27072   0.44974   0.15047   0.01267  Uiso   1.00
C256   C     0.86621   0.01955   0.68434   0.01267  Uiso   1.00
C257   C     0.23186   0.19626   0.96765   0.01267  Uiso   1.00
C258   C     0.18189   0.03750   0.63435   0.01267  Uiso   1.00
C259   C     0.76814   0.69626   0.53235   0.01267  Uiso   1.00
C260   C     0.98045   0.18434   0.63379   0.01267  Uiso   1.00
C261   C     0.53402   0.70010   0.23595   0.01267  Uiso   1.00
C262   C     0.68511   0.50833   0.68088   0.01267  Uiso   1.00
C263   C     0.18511   0.50833   0.81912   0.01267  Uiso   1.00
C264   C     0.94800   0.38241   0.77036   0.01267  Uiso   1.00
C265   C     0.14494   0.54356   0.72840   0.01267  Uiso   1.00
C266   C     0.00833   0.81912   0.31489   0.01267  Uiso   1.00
C267   C     0.03235   0.76814   0.80374   0.01267  Uiso   1.00
C268   C     0.45644   0.27160   0.85506   0.01267  Uiso   1.00
C269   C     0.10089   0.98719   0.35980   0.01267  Uiso   1.00
C270   C     0.38241   0.72964   0.44800   0.01267  Uiso   1.00
C271   C     0.77072   0.05026   0.84953   0.01267  Uiso   1.00
C272   C     0.79990   0.76405   0.03402   0.01267  Uiso   1.00
C273   C     0.70010   0.23595   0.53402   0.01267  Uiso   1.00
C274   C     0.99167   0.31912   0.18511   0.01267  Uiso   1.00
C275   C     0.73595   0.96598   0.29990   0.01267  Uiso   1.00
C276   C     0.53402   0.79990   0.73595   0.01267  Uiso   1.00
C277   C     0.11370   0.96284   0.27029   0.01267  Uiso   1.00
C278   C     0.46765   0.23186   0.30374   0.01267  Uiso   1.00
C279   C     0.18398   0.32479   0.97874   0.01267  Uiso   1.00
C280   C     0.73186   0.19626   0.53235   0.01267  Uiso   1.00
C281   C     0.77036   0.55200   0.88241   0.01267  Uiso   1.00
C282   C     0.81566   0.36621   0.01955   0.01267  Uiso   1.00
C283   C     0.38241   0.77036   0.94800   0.01267  Uiso   1.00
C284   C     0.18434   0.86621   0.48045   0.01267  Uiso   1.00
C285   C     0.72964   0.05200   0.88241   0.01267  Uiso   1.00
C286   C     0.96765   0.23186   0.19626   0.01267  Uiso   1.00
C287   C     0.86621   0.48045   0.18434   0.01267  Uiso   1.00
C288   C     0.85506   0.45644   0.27160   0.01267  Uiso   1.00
N1     N     0.01956   0.78396   0.71528   0.01267  Uiso   1.00
N2     N     0.98543   0.27827   0.21557   0.01267  Uiso   1.00
N3     N     0.71557   0.98543   0.22173   0.01267  Uiso   1.00
N4     N     0.01457   0.77827   0.28443   0.01267  Uiso   1.00
N5     N     0.78472   0.98044   0.28396   0.01267  Uiso   1.00
N6     N     0.28472   0.51956   0.71604   0.01267  Uiso   1.00
N7     N     0.71557   0.51457   0.72173   0.01267  Uiso   1.00
N8     N     0.22173   0.71557   0.98543   0.01267  Uiso   1.00
N9     N     0.48044   0.21604   0.21528   0.01267  Uiso   1.00
N10    N     0.51457   0.77827   0.21557   0.01267  Uiso   1.00
N11    N     0.71528   0.48044   0.28396   0.01267  Uiso   1.00
N12    N     0.22173   0.78443   0.48543   0.01267  Uiso   1.00
N13    N     0.01457   0.72173   0.78443   0.01267  Uiso   1.00
N14    N     0.78443   0.01457   0.72173   0.01267  Uiso   1.00
N15    N     0.21557   0.98543   0.27827   0.01267  Uiso   1.00
N16    N     0.27827   0.28443   0.48543   0.01267  Uiso   1.00
N17    N     0.21604   0.21528   0.48044   0.01267  Uiso   1.00
N18    N     0.78396   0.71528   0.01956   0.01267  Uiso   1.00
N19    N     0.98044   0.28396   0.78472   0.01267  Uiso   1.00
N20    N     0.21528   0.01956   0.71604   0.01267  Uiso   1.00
N21    N     0.72173   0.78443   0.01457   0.01267  Uiso   1.00
N22    N     0.78396   0.78472   0.51956   0.01267  Uiso   1.00
N23    N     0.21604   0.28472   0.98044   0.01267  Uiso   1.00
N24    N     0.27827   0.21557   0.98543   0.01267  Uiso   1.00
N25    N     0.98543   0.22173   0.71557   0.01267  Uiso   1.00
N26    N     0.48543   0.27827   0.28443   0.01267  Uiso   1.00
N27    N     0.21557   0.51457   0.77827   0.01267  Uiso   1.00
N28    N     0.71604   0.28472   0.51956   0.01267  Uiso   1.00
N29    N     0.78443   0.48543   0.22173   0.01267  Uiso   1.00
N30    N     0.21528   0.48044   0.21604   0.01267  Uiso   1.00
N31    N     0.51956   0.78396   0.78472   0.01267  Uiso   1.00
N32    N     0.72173   0.71557   0.51457   0.01267  Uiso   1.00
N33    N     0.51457   0.72173   0.71557   0.01267  Uiso   1.00
N34    N     0.28396   0.78472   0.98044   0.01267  Uiso   1.00
N35    N     0.71604   0.21528   0.01956   0.01267  Uiso   1.00
N36    N     0.28443   0.48543   0.27827   0.01267  Uiso   1.00
N37    N     0.98044   0.21604   0.28472   0.01267  Uiso   1.00
N38    N     0.48543   0.22173   0.78443   0.01267  Uiso   1.00
N39    N     0.28472   0.98044   0.21604   0.01267  Uiso   1.00
N40    N     0.28443   0.01457   0.77827   0.01267  Uiso   1.00
N41    N     0.77827   0.28443   0.01457   0.01267  Uiso   1.00
N42    N     0.78472   0.51956   0.78396   0.01267  Uiso   1.00
N43    N     0.51956   0.71604   0.28472   0.01267  Uiso   1.00
N44    N     0.48044   0.28396   0.71528   0.01267  Uiso   1.00
N45    N     0.01956   0.71604   0.21528   0.01267  Uiso   1.00
N46    N     0.28396   0.71528   0.48044   0.01267  Uiso   1.00
N47    N     0.77827   0.21557   0.51457   0.01267  Uiso   1.00
N48    N     0.71528   0.01956   0.78396   0.01267  Uiso   1.00
Cl1    Cl    0.96690   0.71010   0.64490   0.01267  Uiso   1.00
Cl2    Cl    0.35510   0.03310   0.28990   0.01267  Uiso   1.00
Cl3    Cl    0.36575   0.20280   0.46220   0.01267  Uiso   1.00
Cl4    Cl    0.85510   0.46690   0.71010   0.01267  Uiso   1.00
Cl5    Cl    0.20280   0.03780   0.86575   0.01267  Uiso   1.00
Cl6    Cl    0.03310   0.28990   0.35510   0.01267  Uiso   1.00
Cl7    Cl    0.29720   0.53780   0.86575   0.01267  Uiso   1.00
Cl8    Cl    0.71010   0.85510   0.46690   0.01267  Uiso   1.00
Cl9    Cl    0.36575   0.29720   0.96220   0.01267  Uiso   1.00
Cl10   Cl    0.14490   0.96690   0.78990   0.01267  Uiso   1.00
Cl11   Cl    0.13425   0.79720   0.96220   0.01267  Uiso   1.00
Cl12   Cl    0.20280   0.46220   0.36575   0.01267  Uiso   1.00
Cl13   Cl    0.96220   0.13425   0.79720   0.01267  Uiso   1.00
Cl14   Cl    0.03780   0.86575   0.20280   0.01267  Uiso   1.00
Cl15   Cl    0.78990   0.35510   0.46690   0.01267  Uiso   1.00
Cl16   Cl    0.29720   0.96220   0.36575   0.01267  Uiso   1.00
Cl17   Cl    0.86575   0.29720   0.53780   0.01267  Uiso   1.00
Cl18   Cl    0.03780   0.63425   0.70280   0.01267  Uiso   1.00
Cl19   Cl    0.96690   0.78990   0.14490   0.01267  Uiso   1.00
Cl20   Cl    0.53780   0.86575   0.29720   0.01267  Uiso   1.00
Cl21   Cl    0.79720   0.96220   0.13425   0.01267  Uiso   1.00
Cl22   Cl    0.96220   0.36575   0.29720   0.01267  Uiso   1.00
Cl23   Cl    0.86575   0.20280   0.03780   0.01267  Uiso   1.00
Cl24   Cl    0.21010   0.64490   0.53310   0.01267  Uiso   1.00
Cl25   Cl    0.21010   0.85510   0.03310   0.01267  Uiso   1.00
Cl26   Cl    0.46220   0.13425   0.70280   0.01267  Uiso   1.00
Cl27   Cl    0.03310   0.21010   0.85510   0.01267  Uiso   1.00
Cl28   Cl    0.28990   0.14490   0.53310   0.01267  Uiso   1.00
Cl29   Cl    0.53310   0.28990   0.14490   0.01267  Uiso   1.00
Cl30   Cl    0.71010   0.64490   0.96690   0.01267  Uiso   1.00
Cl31   Cl    0.14490   0.53310   0.28990   0.01267  Uiso   1.00
Cl32   Cl    0.53310   0.21010   0.64490   0.01267  Uiso   1.00
Cl33   Cl    0.46690   0.71010   0.85510   0.01267  Uiso   1.00
Cl34   Cl    0.85510   0.03310   0.21010   0.01267  Uiso   1.00
Cl35   Cl    0.46220   0.36575   0.20280   0.01267  Uiso   1.00
Cl36   Cl    0.70280   0.46220   0.13425   0.01267  Uiso   1.00
Cl37   Cl    0.79720   0.53780   0.63425   0.01267  Uiso   1.00
Cl38   Cl    0.53780   0.63425   0.79720   0.01267  Uiso   1.00
Cl39   Cl    0.78990   0.14490   0.96690   0.01267  Uiso   1.00
Cl40   Cl    0.63425   0.70280   0.03780   0.01267  Uiso   1.00
Cl41   Cl    0.63425   0.79720   0.53780   0.01267  Uiso   1.00
Cl42   Cl    0.64490   0.96690   0.71010   0.01267  Uiso   1.00
Cl43   Cl    0.64490   0.53310   0.21010   0.01267  Uiso   1.00
Cl44   Cl    0.13425   0.70280   0.46220   0.01267  Uiso   1.00
Cl45   Cl    0.70280   0.03780   0.63425   0.01267  Uiso   1.00
Cl46   Cl    0.28990   0.35510   0.03310   0.01267  Uiso   1.00
Cl47   Cl    0.46690   0.78990   0.35510   0.01267  Uiso   1.00
Cl48   Cl    0.35510   0.46690   0.78990   0.01267  Uiso   1.00
O1     O     0.04800   0.50540   0.85300   0.01267  Uiso   1.00
O2     O     0.38278   0.90667   0.96337   0.01267  Uiso   1.00
O3     O     0.59130   0.86840   0.98930   0.01267  Uiso   1.00
O4     O     0.90667   0.96337   0.38278   0.01267  Uiso   1.00
O5     O     0.63160   0.01070   0.09130   0.01267  Uiso   1.00
O6     O     0.93032   0.47171   0.94644   0.01267  Uiso   1.00
O7     O     0.04800   0.99460   0.35300   0.01267  Uiso   1.00
O8     O     0.54800   0.99460   0.14700   0.01267  Uiso   1.00
O9     O     0.96122   0.94838   0.47048   0.01267  Uiso   1.00
O10    O     0.59833   0.88058   0.99649   0.01267  Uiso   1.00
O11    O     0.93032   0.02829   0.44644   0.01267  Uiso   1.00
O12    O     0.02829   0.05356   0.43032   0.01267  Uiso   1.00
O13    O     0.59333   0.46337   0.38278   0.01267  Uiso   1.00
O14    O     0.03878   0.44838   0.02952   0.01267  Uiso   1.00
O15    O     0.36980   0.58700   0.46450   0.01267  Uiso   1.00
O16    O     0.35406   0.95637   0.05185   0.01267  Uiso   1.00
O17    O     0.36840   0.51070   0.40870   0.01267  Uiso   1.00
O18    O     0.63020   0.41300   0.53550   0.01267  Uiso   1.00
O19    O     0.54210   0.15390   0.03150   0.01267  Uiso   1.00
O20    O     0.46850   0.04210   0.15390   0.01267  Uiso   1.00
O21    O     0.09833   0.61942   0.00351   0.01267  Uiso   1.00
O22    O     0.53150   0.95790   0.84610   0.01267  Uiso   1.00
O23    O     0.35300   0.45200   0.49460   0.01267  Uiso   1.00
O24    O     0.03150   0.95790   0.65390   0.01267  Uiso   1.00
O25    O     0.94649   0.02322   0.64339   0.01267  Uiso   1.00
O26    O     0.91300   0.96450   0.36980   0.01267  Uiso   1.00
O27    O     0.38058   0.50351   0.40167   0.01267  Uiso   1.00
O28    O     0.03550   0.86980   0.58700   0.01267  Uiso   1.00
O29    O     0.47048   0.96122   0.94838   0.01267  Uiso   1.00
O30    O     0.45790   0.84610   0.96850   0.01267  Uiso   1.00
O31    O     0.63160   0.48930   0.59130   0.01267  Uiso   1.00
O32    O     0.59333   0.03663   0.88278   0.01267  Uiso   1.00
O33    O     0.53878   0.44838   0.47048   0.01267  Uiso   1.00
O34    O     0.99649   0.59833   0.88058   0.01267  Uiso   1.00
O35    O     0.86840   0.51070   0.09130   0.01267  Uiso   1.00
O36    O     0.94644   0.56968   0.97171   0.01267  Uiso   1.00
O37    O     0.53150   0.54210   0.34610   0.01267  Uiso   1.00
O38    O     0.64339   0.55351   0.52322   0.01267  Uiso   1.00
O39    O     0.40167   0.38058   0.50351   0.01267  Uiso   1.00
O40    O     0.49460   0.35300   0.45200   0.01267  Uiso   1.00
O41    O     0.55185   0.35406   0.54363   0.01267  Uiso   1.00
O42    O     0.53540   0.96460   0.03540   0.01267  Uiso   1.00
O43    O     0.11722   0.40667   0.96337   0.01267  Uiso   1.00
O44    O     0.54363   0.94815   0.85406   0.01267  Uiso   1.00
O45    O     0.50351   0.40167   0.38058   0.01267  Uiso   1.00
O46    O     0.94610   0.05390   0.55390   0.01267  Uiso   1.00
O47    O     0.61722   0.40667   0.53663   0.01267  Uiso   1.00
O48    O     0.14339   0.94649   0.47678   0.01267  Uiso   1.00
O49    O     0.95200   0.00540   0.64700   0.01267  Uiso   1.00
O50    O     0.48930   0.90870   0.13160   0.01267  Uiso   1.00
O51    O     0.96337   0.11722   0.40667   0.01267  Uiso   1.00
O52    O     0.03540   0.53540   0.96460   0.01267  Uiso   1.00
O53    O     0.00540   0.85300   0.45200   0.01267  Uiso   1.00
O54    O     0.54210   0.34610   0.53150   0.01267  Uiso   1.00
O55    O     0.65390   0.46850   0.45790   0.01267  Uiso   1.00
O56    O     0.95637   0.05185   0.35406   0.01267  Uiso   1.00
O57    O     0.09130   0.86840   0.51070   0.01267  Uiso   1.00
O58    O     0.52829   0.44644   0.56968   0.01267  Uiso   1.00
O59    O     0.13020   0.41300   0.96450   0.01267  Uiso   1.00
O60    O     0.84610   0.96850   0.45790   0.01267  Uiso   1.00
O61    O     0.51070   0.09130   0.86840   0.01267  Uiso   1.00
O62    O     0.48930   0.59130   0.63160   0.01267  Uiso   1.00
O63    O     0.51070   0.40870   0.36840   0.01267  Uiso   1.00
O64    O     0.14594   0.45637   0.05185   0.01267  Uiso   1.00
O65    O     0.47678   0.14339   0.94649   0.01267  Uiso   1.00
O66    O     0.97171   0.94644   0.56968   0.01267  Uiso   1.00
O67    O     0.97171   0.55356   0.06968   0.01267  Uiso   1.00
O68    O     0.03540   0.96460   0.46460   0.01267  Uiso   1.00
O69    O     0.40167   0.11942   0.00351   0.01267  Uiso   1.00
O70    O     0.13160   0.01070   0.40870   0.01267  Uiso   1.00
O71    O     0.58700   0.46450   0.36980   0.01267  Uiso   1.00
O72    O     0.97678   0.14339   0.55351   0.01267  Uiso   1.00
O73    O     0.86980   0.91300   0.53550   0.01267  Uiso   1.00
O74    O     0.11942   0.49649   0.90167   0.01267  Uiso   1.00
O75    O     0.54800   0.50540   0.64700   0.01267  Uiso   1.00
O76    O     0.43032   0.47171   0.55356   0.01267  Uiso   1.00
O77    O     0.44838   0.47048   0.53878   0.01267  Uiso   1.00
O78    O     0.09333   0.03663   0.61722   0.01267  Uiso   1.00
O79    O     0.63020   0.08700   0.03550   0.01267  Uiso   1.00
O80    O     0.84610   0.53150   0.95790   0.01267  Uiso   1.00
O81    O     0.46337   0.38278   0.59333   0.01267  Uiso   1.00
O82    O     0.97048   0.96122   0.55162   0.01267  Uiso   1.00
O83    O     0.55356   0.43032   0.47171   0.01267  Uiso   1.00
O84    O     0.45637   0.05185   0.14594   0.01267  Uiso   1.00
O85    O     0.15390   0.03150   0.54210   0.01267  Uiso   1.00
O86    O     0.94644   0.93032   0.47171   0.01267  Uiso   1.00
O87    O     0.56968   0.52829   0.44644   0.01267  Uiso   1.00
O88    O     0.94610   0.44610   0.05390   0.01267  Uiso   1.00
O89    O     0.53550   0.63020   0.41300   0.01267  Uiso   1.00
O90    O     0.09333   0.46337   0.11722   0.01267  Uiso   1.00
O91    O     0.05162   0.52952   0.03878   0.01267  Uiso   1.00
O92    O     0.85661   0.44649   0.02322   0.01267  Uiso   1.00
O93    O     0.44649   0.47678   0.35661   0.01267  Uiso   1.00
O94    O     0.64594   0.04363   0.94815   0.01267  Uiso   1.00
O95    O     0.05390   0.94610   0.44610   0.01267  Uiso   1.00
O96    O     0.02952   0.46122   0.94838   0.01267  Uiso   1.00
O97    O     0.49460   0.14700   0.95200   0.01267  Uiso   1.00
O98    O     0.11942   0.00351   0.40167   0.01267  Uiso   1.00
O99    O     0.85406   0.54363   0.94815   0.01267  Uiso   1.00
O100   O     0.96460   0.03540   0.53540   0.01267  Uiso   1.00
O101   O     0.52322   0.64339   0.55351   0.01267  Uiso   1.00
O102   O     0.46460   0.03540   0.96460   0.01267  Uiso   1.00
O103   O     0.90870   0.36840   0.98930   0.01267  Uiso   1.00
O104   O     0.01070   0.09130   0.63160   0.01267  Uiso   1.00
O105   O     0.46450   0.13020   0.08700   0.01267  Uiso   1.00
O106   O     0.58700   0.03550   0.86980   0.01267  Uiso   1.00
O107   O     0.96122   0.55162   0.97048   0.01267  Uiso   1.00
O108   O     0.95200   0.49460   0.14700   0.01267  Uiso   1.00
O109   O     0.90667   0.53663   0.88278   0.01267  Uiso   1.00
O110   O     0.88058   0.50351   0.09833   0.01267  Uiso   1.00
O111   O     0.47048   0.53878   0.44838   0.01267  Uiso   1.00
O112   O     0.97048   0.53878   0.05162   0.01267  Uiso   1.00
O113   O     0.35300   0.04800   0.99460   0.01267  Uiso   1.00
O114   O     0.04363   0.94815   0.64594   0.01267  Uiso   1.00
O115   O     0.40870   0.13160   0.01070   0.01267  Uiso   1.00
O116   O     0.35406   0.54363   0.55185   0.01267  Uiso   1.00
O117   O     0.44649   0.02322   0.85661   0.01267  Uiso   1.00
O118   O     0.14700   0.95200   0.49460   0.01267  Uiso   1.00
O119   O     0.55162   0.52952   0.46122   0.01267  Uiso   1.00
O120   O     0.02829   0.44644   0.93032   0.01267  Uiso   1.00
O121   O     0.99460   0.14700   0.54800   0.01267  Uiso   1.00
O122   O     0.64339   0.94649   0.02322   0.01267  Uiso   1.00
O123   O     0.52322   0.85661   0.05351   0.01267  Uiso   1.00
O124   O     0.55185   0.14594   0.04363   0.01267  Uiso   1.00
O125   O     0.03878   0.05162   0.52952   0.01267  Uiso   1.00
O126   O     0.85406   0.95637   0.44815   0.01267  Uiso   1.00
O127   O     0.44838   0.02952   0.03878   0.01267  Uiso   1.00
O128   O     0.44644   0.93032   0.02829   0.01267  Uiso   1.00
O129   O     0.53550   0.86980   0.91300   0.01267  Uiso   1.00
O130   O     0.05185   0.14594   0.45637   0.01267  Uiso   1.00
O131   O     0.55351   0.97678   0.14339   0.01267  Uiso   1.00
O132   O     0.45790   0.65390   0.46850   0.01267  Uiso   1.00
O133   O     0.98930   0.90870   0.36840   0.01267  Uiso   1.00
O134   O     0.44610   0.05390   0.94610   0.01267  Uiso   1.00
O135   O     0.14700   0.54800   0.99460   0.01267  Uiso   1.00
O136   O     0.88058   0.99649   0.59833   0.01267  Uiso   1.00
O137   O     0.40667   0.53663   0.61722   0.01267  Uiso   1.00
O138   O     0.59130   0.63160   0.48930   0.01267  Uiso   1.00
O139   O     0.55351   0.52322   0.64339   0.01267  Uiso   1.00
O140   O     0.90870   0.13160   0.48930   0.01267  Uiso   1.00
O141   O     0.00351   0.40167   0.11942   0.01267  Uiso   1.00
O142   O     0.08700   0.46450   0.13020   0.01267  Uiso   1.00
O143   O     0.08700   0.03550   0.63020   0.01267  Uiso   1.00
O144   O     0.49649   0.59833   0.61942   0.01267  Uiso   1.00
O145   O     0.55356   0.06968   0.97171   0.01267  Uiso   1.00
O146   O     0.04210   0.15390   0.46850   0.01267  Uiso   1.00
O147   O     0.06968   0.52829   0.05356   0.01267  Uiso   1.00
O148   O     0.45200   0.49460   0.35300   0.01267  Uiso   1.00
O149   O     0.40667   0.96337   0.11722   0.01267  Uiso   1.00
O150   O     0.05351   0.97678   0.35661   0.01267  Uiso   1.00
O151   O     0.36980   0.91300   0.96450   0.01267  Uiso   1.00
O152   O     0.38278   0.59333   0.46337   0.01267  Uiso   1.00
O153   O     0.15390   0.46850   0.04210   0.01267  Uiso   1.00
O154   O     0.52952   0.46122   0.55162   0.01267  Uiso   1.00
O155   O     0.56968   0.97171   0.94644   0.01267  Uiso   1.00
O156   O     0.65390   0.03150   0.95790   0.01267  Uiso   1.00
O157   O     0.11722   0.09333   0.46337   0.01267  Uiso   1.00
O158   O     0.46460   0.46460   0.46460   0.01267  Uiso   1.00
O159   O     0.55390   0.94610   0.05390   0.01267  Uiso   1.00
O160   O     0.13020   0.08700   0.46450   0.01267  Uiso   1.00
O161   O     0.50540   0.64700   0.54800   0.01267  Uiso   1.00
O162   O     0.64700   0.95200   0.00540   0.01267  Uiso   1.00
O163   O     0.03150   0.54210   0.15390   0.01267  Uiso   1.00
O164   O     0.36840   0.98930   0.90870   0.01267  Uiso   1.00
O165   O     0.94815   0.64594   0.04363   0.01267  Uiso   1.00
O166   O     0.99460   0.35300   0.04800   0.01267  Uiso   1.00
O167   O     0.00351   0.09833   0.61942   0.01267  Uiso   1.00
O168   O     0.96450   0.13020   0.41300   0.01267  Uiso   1.00
O169   O     0.99649   0.90167   0.38058   0.01267  Uiso   1.00
O170   O     0.96850   0.04210   0.34610   0.01267  Uiso   1.00
O171   O     0.85300   0.04800   0.50540   0.01267  Uiso   1.00
O172   O     0.53540   0.53540   0.53540   0.01267  Uiso   1.00
O173   O     0.86840   0.98930   0.59130   0.01267  Uiso   1.00
O174   O     0.53663   0.61722   0.40667   0.01267  Uiso   1.00
O175   O     0.41300   0.53550   0.63020   0.01267  Uiso   1.00
O176   O     0.03663   0.61722   0.09333   0.01267  Uiso   1.00
O177   O     0.59833   0.61942   0.49649   0.01267  Uiso   1.00
O178   O     0.85661   0.05351   0.52322   0.01267  Uiso   1.00
O179   O     0.04363   0.55185   0.14594   0.01267  Uiso   1.00
O180   O     0.90167   0.38058   0.99649   0.01267  Uiso   1.00
O181   O     0.53663   0.88278   0.90667   0.01267  Uiso   1.00
O182   O     0.47678   0.35661   0.44649   0.01267  Uiso   1.00
O183   O     0.97678   0.35661   0.05351   0.01267  Uiso   1.00
O184   O     0.44610   0.44610   0.44610   0.01267  Uiso   1.00
O185   O     0.01070   0.40870   0.13160   0.01267  Uiso   1.00
O186   O     0.96850   0.45790   0.84610   0.01267  Uiso   1.00
O187   O     0.02952   0.03878   0.44838   0.01267  Uiso   1.00
O188   O     0.53878   0.05162   0.97048   0.01267  Uiso   1.00
O189   O     0.61942   0.49649   0.59833   0.01267  Uiso   1.00
O190   O     0.96460   0.46460   0.03540   0.01267  Uiso   1.00
O191   O     0.09833   0.88058   0.50351   0.01267  Uiso   1.00
O192   O     0.61722   0.09333   0.03663   0.01267  Uiso   1.00
O193   O     0.00540   0.64700   0.95200   0.01267  Uiso   1.00
O194   O     0.41300   0.96450   0.13020   0.01267  Uiso   1.00
O195   O     0.52829   0.05356   0.06968   0.01267  Uiso   1.00
O196   O     0.49649   0.90167   0.11942   0.01267  Uiso   1.00
O197   O     0.54363   0.55185   0.35406   0.01267  Uiso   1.00
O198   O     0.45200   0.00540   0.85300   0.01267  Uiso   1.00
O199   O     0.04210   0.34610   0.96850   0.01267  Uiso   1.00
O200   O     0.47171   0.94644   0.93032   0.01267  Uiso   1.00
O201   O     0.88278   0.59333   0.03663   0.01267  Uiso   1.00
O202   O     0.64700   0.54800   0.50540   0.01267  Uiso   1.00
O203   O     0.95637   0.44815   0.85406   0.01267  Uiso   1.00
O204   O     0.55162   0.97048   0.96122   0.01267  Uiso   1.00
O205   O     0.44815   0.64594   0.45637   0.01267  Uiso   1.00
O206   O     0.34610   0.96850   0.04210   0.01267  Uiso   1.00
O207   O     0.85300   0.45200   0.00540   0.01267  Uiso   1.00
O208   O     0.43032   0.02829   0.05356   0.01267  Uiso   1.00
O209   O     0.90167   0.11942   0.49649   0.01267  Uiso   1.00
O210   O     0.94815   0.85406   0.54363   0.01267  Uiso   1.00
O211   O     0.05356   0.43032   0.02829   0.01267  Uiso   1.00
O212   O     0.95790   0.65390   0.03150   0.01267  Uiso   1.00
O213   O     0.44644   0.56968   0.52829   0.01267  Uiso   1.00
O214   O     0.94649   0.47678   0.14339   0.01267  Uiso   1.00
O215   O     0.46122   0.55162   0.52952   0.01267  Uiso   1.00
O216   O     0.55390   0.55390   0.55390   0.01267  Uiso   1.00
O217   O     0.02322   0.64339   0.94649   0.01267  Uiso   1.00
O218   O     0.05162   0.97048   0.53878   0.01267  Uiso   1.00
O219   O     0.05185   0.35406   0.95637   0.01267  Uiso   1.00
O220   O     0.06968   0.97171   0.55356   0.01267  Uiso   1.00
O221   O     0.95790   0.84610   0.53150   0.01267  Uiso   1.00
O222   O     0.05356   0.06968   0.52829   0.01267  Uiso   1.00
O223   O     0.46450   0.36980   0.58700   0.01267  Uiso   1.00
O224   O     0.46122   0.94838   0.02952   0.01267  Uiso   1.00
O225   O     0.94838   0.47048   0.96122   0.01267  Uiso   1.00
O226   O     0.96450   0.36980   0.91300   0.01267  Uiso   1.00
O227   O     0.88278   0.90667   0.53663   0.01267  Uiso   1.00
O228   O     0.14339   0.55351   0.97678   0.01267  Uiso   1.00
O229   O     0.46337   0.11722   0.09333   0.01267  Uiso   1.00
O230   O     0.98930   0.59130   0.86840   0.01267  Uiso   1.00
O231   O     0.50540   0.85300   0.04800   0.01267  Uiso   1.00
O232   O     0.13160   0.48930   0.90870   0.01267  Uiso   1.00
O233   O     0.94838   0.02952   0.46122   0.01267  Uiso   1.00
O234   O     0.47171   0.55356   0.43032   0.01267  Uiso   1.00
O235   O     0.03550   0.63020   0.08700   0.01267  Uiso   1.00
O236   O     0.44815   0.85406   0.95637   0.01267  Uiso   1.00
O237   O     0.38058   0.99649   0.90167   0.01267  Uiso   1.00
O238   O     0.46850   0.45790   0.65390   0.01267  Uiso   1.00
O239   O     0.50351   0.09833   0.88058   0.01267  Uiso   1.00
O240   O     0.05390   0.55390   0.94610   0.01267  Uiso   1.00
O241   O     0.09130   0.63160   0.01070   0.01267  Uiso   1.00
O242   O     0.35661   0.05351   0.97678   0.01267  Uiso   1.00
O243   O     0.64594   0.45637   0.44815   0.01267  Uiso   1.00
O244   O     0.34610   0.53150   0.54210   0.01267  Uiso   1.00
O245   O     0.61942   0.00351   0.09833   0.01267  Uiso   1.00
O246   O     0.14594   0.04363   0.55185   0.01267  Uiso   1.00
O247   O     0.91300   0.53550   0.86980   0.01267  Uiso   1.00
O248   O     0.86980   0.58700   0.03550   0.01267  Uiso   1.00
O249   O     0.35661   0.44649   0.47678   0.01267  Uiso   1.00
O250   O     0.03663   0.88278   0.59333   0.01267  Uiso   1.00
O251   O     0.45637   0.44815   0.64594   0.01267  Uiso   1.00
O252   O     0.05351   0.52322   0.85661   0.01267  Uiso   1.00
O253   O     0.52952   0.03878   0.05162   0.01267  Uiso   1.00
O254   O     0.40870   0.36840   0.51070   0.01267  Uiso   1.00
O255   O     0.02322   0.85661   0.44649   0.01267  Uiso   1.00
O256   O     0.96337   0.38278   0.90667   0.01267  Uiso   1.00
