data_image0
_cell_length_a       48.25
_cell_length_b       48.65
_cell_length_c       35.6515
_cell_angle_alpha    90
_cell_angle_beta     131.386
_cell_angle_gamma    90

_symmetry_space_group_name_H-M    "P 1"
_symmetry_int_tables_number       1

loop_
  _symmetry_equiv_pos_as_xyz
  'x, y, z'

loop_
  _atom_site_label
  _atom_site_occupancy
  _atom_site_fract_x
  _atom_site_fract_y
  _atom_site_fract_z
  _atom_site_thermal_displace_type
  _atom_site_B_iso_or_equiv
  _atom_site_type_symbol
  S1       1.0000 0.13134  0.87977  0.77844  Biso   1.000  S
  S2       1.0000 0.25325  0.03770  0.65911  Biso   1.000  S
  S3       1.0000 0.25273  0.97003  0.87447  Biso   1.000  S
  S4       1.0000 0.19300  0.87505  0.93493  Biso   1.000  S
  S5       1.0000 0.14952  0.96416  0.75905  Biso   1.000  S
  S6       1.0000 0.08463  0.85390  0.53938  Biso   1.000  S
  S7       1.0000 0.38351  0.86458  0.76556  Biso   1.000  S
  S8       1.0000 0.24252  0.98579  0.55623  Biso   1.000  S
  S9       1.0000 0.22549  0.77226  0.62621  Biso   1.000  S
  S10      1.0000 0.15338  0.83694  0.52395  Biso   1.000  S
  S11      1.0000 0.44708  0.79552  0.84611  Biso   1.000  S
  S12      1.0000 0.31555  0.92687  0.65928  Biso   1.000  S
  S13      1.0000 0.19956  0.93229  0.02122  Biso   1.000  S
  S14      1.0000 0.33668  0.78357  0.72912  Biso   1.000  S
  S15      1.0000 0.55256  0.80385  0.98936  Biso   1.000  S
  S16      1.0000 0.19788  0.80793  0.86501  Biso   1.000  S
  S17      1.0000 0.11455  0.90844  0.65091  Biso   1.000  S
  S18      1.0000 0.11943  0.75586  0.51145  Biso   1.000  S
  S19      1.0000 0.37510  0.81696  0.96864  Biso   1.000  S
  S20      1.0000 0.27116  0.84874  0.63373  Biso   1.000  S
  S21      1.0000 0.48323  0.86465  0.93390  Biso   1.000  S
  S22      1.0000 0.16478  0.98441  0.66260  Biso   1.000  S
  S23      1.0000 0.19785  0.91172  0.54206  Biso   1.000  S
  S24      1.0000 0.15450  0.94569  0.87275  Biso   1.000  S
  S25      1.0000 0.40960  0.92343  0.85230  Biso   1.000  S
  S26      1.0000 0.15146  0.00504  0.53490  Biso   1.000  S
  S27      1.0000 0.25367  0.00707  0.77174  Biso   1.000  S
  S28      1.0000 0.11900  0.92991  0.54014  Biso   1.000  S
  S29      1.0000 0.30255  0.86862  0.86275  Biso   1.000  S
  S30      1.0000 0.15877  0.80083  0.63724  Biso   1.000  S
  S31      1.0000 0.22812  0.92745  0.76133  Biso   1.000  S
  S32      1.0000 0.13116  0.71912  0.62689  Biso   1.000  S
  S33      1.0000 0.26942  0.81887  0.74461  Biso   1.000  S
  S34      1.0000 0.30529  0.89920  0.75571  Biso   1.000  S
  S35      1.0000 0.19291  0.84729  0.75403  Biso   1.000  S
  S36      1.0000 0.19376  0.87776  0.64428  Biso   1.000  S
  S37      1.0000 0.37681  0.83997  0.85365  Biso   1.000  S
  S38      1.0000 0.23035  0.95555  0.65384  Biso   1.000  S
  S39      1.0000 0.22471  0.89979  0.86533  Biso   1.000  S
  S40      1.0000 0.41122  0.88534  0.96009  Biso   1.000  S
  S41      1.0000 0.26974  0.78367  0.85441  Biso   1.000  S
  S42      1.0000 0.24240  0.74098  0.73086  Biso   1.000  S
  S43      1.0000 0.34054  0.91069  0.98218  Biso   1.000  S
  S44      1.0000 0.04903  0.77794  0.53616  Biso   1.000  S
  S45      1.0000 0.45978  0.79247  0.97159  Biso   1.000  S
  S46      1.0000 0.28742  0.84157  0.95471  Biso   1.000  S
  S47      1.0000 0.15731  0.76940  0.73381  Biso   1.000  S
  S48      1.0000 0.32787  0.97836  0.75387  Biso   1.000  S
  S49      1.0000 0.26926  0.94261  0.99627  Biso   1.000  S
  S50      1.0000 0.08554  0.82865  0.65561  Biso   1.000  S
  S51      1.0000 0.35249  0.76746  0.84988  Biso   1.000  S
  S52      1.0000 0.33957  0.95137  0.87649  Biso   1.000  S
  Cd1      1.0000 0.31145  0.85740  0.80238  Biso   1.000  Cd
  Cd2      1.0000 0.23719  0.88548  0.80932  Biso   1.000  Cd
  Cd3      1.0000 0.23929  0.91426  0.70402  Biso   1.000  Cd
  Cd4      1.0000 0.20517  0.83722  0.69687  Biso   1.000  Cd
  Cd5      1.0000 0.34817  0.90710  0.91723  Biso   1.000  Cd
  Cd6      1.0000 0.28342  0.77788  0.79926  Biso   1.000  Cd
  Cd7      1.0000 0.12939  0.86920  0.70573  Biso   1.000  Cd
  Cd8      1.0000 0.12778  0.89305  0.59803  Biso   1.000  Cd
  Cd9      1.0000 0.20873  0.86749  0.58940  Biso   1.000  Cd
  Cd10     1.0000 0.17749  0.75645  0.68516  Biso   1.000  Cd
  Cd11     1.0000 0.30476  0.82509  0.90434  Biso   1.000  Cd
  Cd12     1.0000 0.20630  0.80279  0.80145  Biso   1.000  Cd
  Cd13     1.0000 0.27352  0.96341  0.82476  Biso   1.000  Cd
  Cd14     1.0000 0.09403  0.81602  0.59551  Biso   1.000  Cd
  Cd15     1.0000 0.39159  0.80502  0.91689  Biso   1.000  Cd
  Cd16     1.0000 0.16221  0.79409  0.57017  Biso   1.000  Cd
  Cd17     1.0000 0.42036  0.88034  0.89696  Biso   1.000  Cd
  Cd18     1.0000 0.34462  0.93924  0.81358  Biso   1.000  Cd
  Cd19     1.0000 0.31664  0.88263  0.69899  Biso   1.000  Cd
  Cd20     1.0000 0.21822  0.85614  0.89683  Biso   1.000  Cd
  Cd21     1.0000 0.16205  0.94385  0.70561  Biso   1.000  Cd
  Cd22     1.0000 0.48404  0.81369  0.93375  Biso   1.000  Cd
  Cd23     1.0000 0.27674  0.92995  0.93433  Biso   1.000  Cd
  Cd24     1.0000 0.08616  0.73971  0.53964  Biso   1.000  Cd
  Cd25     1.0000 0.20634  0.92533  0.95756  Biso   1.000  Cd
  Cd26     1.0000 0.38323  0.81711  0.79607  Biso   1.000  Cd
  Cd27     1.0000 0.16276  0.96818  0.59316  Biso   1.000  Cd
  Cd28     1.0000 0.25008  0.94378  0.60517  Biso   1.000  Cd
  Cd29     1.0000 0.26327  0.99642  0.71165  Biso   1.000  Cd
  Cd30     1.0000 0.27512  0.80908  0.68007  Biso   1.000  Cd
  Cd31     1.0000 0.16459  0.92587  0.81646  Biso   1.000  Cd
  Cd32     1.0000 0.21257  0.97644  0.06809  Biso   1.000  Cd
  C1       1.0000 0.08311  0.77288  0.45541  Biso   1.000  C
  C2       1.0000 0.06984  0.76154  0.41039  Biso   1.000  C
  C3       1.0000 0.04126  0.77434  0.36552  Biso   1.000  C
  C4       1.0000 0.02594  0.79849  0.36567  Biso   1.000  C
  C5       1.0000 0.03920  0.80983  0.41069  Biso   1.000  C
  C6       1.0000 0.06778  0.79702  0.45556  Biso   1.000  C
  C7       1.0000 0.03357  0.76595  0.56691  Biso   1.000  C
  C8       1.0000 0.99501  0.76513  0.53794  Biso   1.000  C
  C9       1.0000 0.98123  0.75715  0.55999  Biso   1.000  C
  C10      1.0000 0.00542  0.75080  0.61224  Biso   1.000  C
  C11      1.0000 0.04414  0.75214  0.64064  Biso   1.000  C
  C12      1.0000 0.05796  0.76015  0.61809  Biso   1.000  C
  C13      1.0000 0.15333  0.69407  0.61783  Biso   1.000  C
  C14      1.0000 0.14237  0.66700  0.61300  Biso   1.000  C
  C15      1.0000 0.15712  0.64620  0.60390  Biso   1.000  C
  C16      1.0000 0.18520  0.65392  0.60455  Biso   1.000  C
  C17      1.0000 0.19570  0.68079  0.60694  Biso   1.000  C
  C18      1.0000 0.18008  0.70161  0.61559  Biso   1.000  C
  C19      1.0000 0.15864  0.73946  0.76286  Biso   1.000  C
  C20      1.0000 0.13650  0.71760  0.73353  Biso   1.000  C
  C21      1.0000 0.13555  0.69305  0.75407  Biso   1.000  C
  C22      1.0000 0.15811  0.69074  0.80516  Biso   1.000  C
  C23      1.0000 0.18070  0.71343  0.83733  Biso   1.000  C
  C24      1.0000 0.18019  0.73729  0.81466  Biso   1.000  C
  C25      1.0000 0.24103  0.70997  0.75758  Biso   1.000  C
  C26      1.0000 0.24701  0.68537  0.74265  Biso   1.000  C
  C27      1.0000 0.24278  0.65953  0.76328  Biso   1.000  C
  C28      1.0000 0.23674  0.66288  0.79563  Biso   1.000  C
  C29      1.0000 0.23311  0.68608  0.81016  Biso   1.000  C
  C30      1.0000 0.23539  0.71152  0.79035  Biso   1.000  C
  C31      1.0000 0.23218  0.75179  0.59433  Biso   1.000  C
  C32      1.0000 0.20627  0.74328  0.54654  Biso   1.000  C
  C33      1.0000 0.21319  0.72862  0.51802  Biso   1.000  C
  C34      1.0000 0.15987  0.82505  0.48484  Biso   1.000  C
  C35      1.0000 0.19895  0.82457  0.50255  Biso   1.000  C
  C36      1.0000 0.20185  0.81657  0.46554  Biso   1.000  C
  C37      1.0000 0.17244  0.81026  0.41655  Biso   1.000  C
  C38      1.0000 0.14388  0.80729  0.40393  Biso   1.000  C
  C39      1.0000 0.13742  0.81370  0.44496  Biso   1.000  C
  C40      1.0000 0.03552  0.86425  0.50290  Biso   1.000  C
  C41      1.0000 0.00982  0.84783  0.48283  Biso   1.000  C
  C42      1.0000 0.97186  0.85648  0.44800  Biso   1.000  C
  C43      1.0000 0.95971  0.88085  0.44880  Biso   1.000  C
  C44      1.0000 0.99052  0.90172  0.47895  Biso   1.000  C
  C45      1.0000 0.03002  0.89371  0.50512  Biso   1.000  C
  C46      1.0000 0.15910  0.97879  0.87293  Biso   1.000  C
  C47      1.0000 0.13308  0.99595  0.82755  Biso   1.000  C
  C48      1.0000 0.14014  0.02697  0.82465  Biso   1.000  C
  C49      1.0000 0.16969  0.03666  0.87288  Biso   1.000  C
  C50      1.0000 0.19524  0.02243  0.91625  Biso   1.000  C
  C51      1.0000 0.19065  0.99180  0.91378  Biso   1.000  C
  C52      1.0000 0.15538  0.92188  0.98798  Biso   1.000  C
  C53      1.0000 0.15588  0.89156  0.00704  Biso   1.000  C
  C54      1.0000 0.11677  0.87596  0.96440  Biso   1.000  C
  C55      1.0000 0.08632  0.90013  0.92989  Biso   1.000  C
  C56      1.0000 0.08891  0.92405  0.91679  Biso   1.000  C
  C57      1.0000 0.12736  0.93576  0.94629  Biso   1.000  C
  C58      1.0000 0.13521  0.01088  0.65388  Biso   1.000  C
  C59      1.0000 0.10551  0.01699  0.60419  Biso   1.000  C
  C60      1.0000 0.08222  0.04093  0.60110  Biso   1.000  C
  C61      1.0000 0.09822  0.05148  0.65038  Biso   1.000  C
  C62      1.0000 0.13231  0.04960  0.71149  Biso   1.000  C
  C63      1.0000 0.15397  0.02414  0.70816  Biso   1.000  C
  C64      1.0000 0.08776  0.87976  0.75840  Biso   1.000  C
  C65      1.0000 0.05713  0.87111  0.71270  Biso   1.000  C
  C66      1.0000 0.01909  0.86875  0.69801  Biso   1.000  C
  C67      1.0000 0.01026  0.88848  0.70846  Biso   1.000  C
  C68      1.0000 0.03346  0.90980  0.73555  Biso   1.000  C
  C69      1.0000 0.07086  0.90819  0.75873  Biso   1.000  C
  C70      1.0000 0.15155  0.80011  0.83463  Biso   1.000  C
  C71      1.0000 0.12317  0.80390  0.78532  Biso   1.000  C
  C72      1.0000 0.08709  0.79413  0.76168  Biso   1.000  C
  C73      1.0000 0.08170  0.78206  0.79060  Biso   1.000  C
  C74      1.0000 0.10807  0.77811  0.83912  Biso   1.000  C
  C75      1.0000 0.14626  0.78740  0.86571  Biso   1.000  C
  C76      1.0000 0.36181  0.73490  0.87843  Biso   1.000  C
  C77      1.0000 0.33279  0.71755  0.86473  Biso   1.000  C
  C78      1.0000 0.34084  0.69192  0.88829  Biso   1.000  C
  C79      1.0000 0.37831  0.68203  0.92206  Biso   1.000  C
  C80      1.0000 0.40484  0.69992  0.93541  Biso   1.000  C
  C81      1.0000 0.39850  0.72583  0.91479  Biso   1.000  C
  C82      1.0000 0.34651  0.78399  0.68890  Biso   1.000  C
  C83      1.0000 0.34395  0.80646  0.66628  Biso   1.000  C
  C84      1.0000 0.35457  0.80655  0.63519  Biso   1.000  C
  C85      1.0000 0.36337  0.78273  0.62677  Biso   1.000  C
  C86      1.0000 0.36509  0.76066  0.64714  Biso   1.000  C
  C87      1.0000 0.35138  0.75949  0.67599  Biso   1.000  C
  C88      1.0000 0.20548  0.90105  0.50026  Biso   1.000  C
  C89      1.0000 0.21411  0.87092  0.50025  Biso   1.000  C
  C90      1.0000 0.21808  0.86197  0.46356  Biso   1.000  C
  C91      1.0000 0.23326  0.88320  0.44636  Biso   1.000  C
  C92      1.0000 0.23580  0.90875  0.46637  Biso   1.000  C
  C93      1.0000 0.22515  0.91620  0.49424  Biso   1.000  C
  C94      1.0000 0.07483  0.94709  0.51539  Biso   1.000  C
  C95      1.0000 0.06160  0.95160  0.46785  Biso   1.000  C
  C96      1.0000 0.02535  0.96176  0.43047  Biso   1.000  C
  C97      1.0000 0.01154  0.96632  0.45230  Biso   1.000  C
  C98      1.0000 0.07074  0.95470  0.54763  Biso   1.000  C
  C99      1.0000 0.12449  0.99521  0.47459  Biso   1.000  C
  C100     1.0000 0.08709  0.00679  0.43941  Biso   1.000  C
  C101     1.0000 0.07391  0.99349  0.38056  Biso   1.000  C
  C102     1.0000 0.09148  0.97147  0.38482  Biso   1.000  C
  C103     1.0000 0.12383  0.96177  0.42125  Biso   1.000  C
  C104     1.0000 0.14011  0.97279  0.46613  Biso   1.000  C
  C105     1.0000 0.11835  0.02555  0.51976  Biso   1.000  C
  C106     1.0000 0.08295  0.01651  0.49107  Biso   1.000  C
  C107     1.0000 0.05251  0.04233  0.47683  Biso   1.000  C
  C108     1.0000 0.07002  0.06032  0.50154  Biso   1.000  C
  C109     1.0000 0.10461  0.07134  0.53460  Biso   1.000  C
  C110     1.0000 0.12695  0.05330  0.53739  Biso   1.000  C
  C111     1.0000 0.09994  0.96505  0.71358  Biso   1.000  C
  C112     1.0000 0.07710  0.99328  0.68182  Biso   1.000  C
  C113     1.0000 0.04126  0.99099  0.67015  Biso   1.000  C
  C114     1.0000 0.02106  0.96647  0.64372  Biso   1.000  C
  C115     1.0000 0.03507  0.94331  0.66613  Biso   1.000  C
  C116     1.0000 0.07768  0.94135  0.70327  Biso   1.000  C
  C117     1.0000 0.20073  0.85560  0.98049  Biso   1.000  C
  C118     1.0000 0.17569  0.83428  0.96558  Biso   1.000  C
  C119     1.0000 0.18575  0.81670  0.00854  Biso   1.000  C
  C120     1.0000 0.21424  0.82401  0.05661  Biso   1.000  C
  C121     1.0000 0.23752  0.84692  0.07043  Biso   1.000  C
  C122     1.0000 0.23066  0.86229  0.03129  Biso   1.000  C
  C123     1.0000 0.28684  0.81161  0.98304  Biso   1.000  C
  C124     1.0000 0.27251  0.81518  0.00712  Biso   1.000  C
  C125     1.0000 0.27245  0.79185  0.03210  Biso   1.000  C
  C126     1.0000 0.28853  0.76787  0.03590  Biso   1.000  C
  C127     1.0000 0.30264  0.76432  0.01151  Biso   1.000  C
  C128     1.0000 0.30125  0.78686  0.98516  Biso   1.000  C
  C129     1.0000 0.38374  0.78485  0.99920  Biso   1.000  C
  C130     1.0000 0.40946  0.78478  0.05157  Biso   1.000  C
  C131     1.0000 0.41534  0.75871  0.07613  Biso   1.000  C
  C132     1.0000 0.39840  0.73596  0.04951  Biso   1.000  C
  C133     1.0000 0.37386  0.73565  0.99784  Biso   1.000  C
  C134     1.0000 0.36615  0.76107  0.97279  Biso   1.000  C
  C135     1.0000 0.44360  0.75868  0.85310  Biso   1.000  C
  C136     1.0000 0.46847  0.74554  0.89606  Biso   1.000  C
  C137     1.0000 0.46634  0.71646  0.89954  Biso   1.000  C
  C138     1.0000 0.44056  0.70194  0.85927  Biso   1.000  C
  C139     1.0000 0.41831  0.71587  0.81364  Biso   1.000  C
  C140     1.0000 0.41989  0.74522  0.80768  Biso   1.000  C
  C141     1.0000 0.40803  0.86489  0.74500  Biso   1.000  C
  C142     1.0000 0.43684  0.84942  0.76749  Biso   1.000  C
  C143     1.0000 0.45332  0.84168  0.73716  Biso   1.000  C
  C144     1.0000 0.44751  0.86537  0.71206  Biso   1.000  C
  C145     1.0000 0.42216  0.88232  0.69674  Biso   1.000  C
  C146     1.0000 0.40014  0.87858  0.71016  Biso   1.000  C
  C147     1.0000 0.32259  0.91548  0.61770  Biso   1.000  C
  C148     1.0000 0.31193  0.89104  0.59476  Biso   1.000  C
  C149     1.0000 0.32038  0.88181  0.56276  Biso   1.000  C
  C150     1.0000 0.34009  0.90227  0.56138  Biso   1.000  C
  C151     1.0000 0.35315  0.92524  0.58617  Biso   1.000  C
  C152     1.0000 0.34515  0.93325  0.61684  Biso   1.000  C
  C153     1.0000 0.28952  0.99520  0.59062  Biso   1.000  C
  C154     1.0000 0.30159  0.99732  0.56373  Biso   1.000  C
  C155     1.0000 0.33752  0.00539  0.58872  Biso   1.000  C
  C156     1.0000 0.36213  0.00922  0.63918  Biso   1.000  C
  C157     1.0000 0.35132  0.00719  0.66738  Biso   1.000  C
  C158     1.0000 0.31390  0.00059  0.64191  Biso   1.000  C
  C159     1.0000 0.22357  0.06166  0.65430  Biso   1.000  C
  C160     1.0000 0.22411  0.08834  0.63589  Biso   1.000  C
  C161     1.0000 0.20101  0.10928  0.63244  Biso   1.000  C
  C162     1.0000 0.18011  0.10417  0.64583  Biso   1.000  C
  C163     1.0000 0.17891  0.07709  0.66123  Biso   1.000  C
  C164     1.0000 0.20176  0.05610  0.66322  Biso   1.000  C
  C165     1.0000 0.28592  0.03220  0.80885  Biso   1.000  C
  C166     1.0000 0.27264  0.06001  0.79387  Biso   1.000  C
  C167     1.0000 0.29507  0.08216  0.82787  Biso   1.000  C
  C168     1.0000 0.33262  0.07335  0.88532  Biso   1.000  C
  C169     1.0000 0.33696  0.04647  0.89735  Biso   1.000  C
  C170     1.0000 0.31651  0.02615  0.87226  Biso   1.000  C
  C171     1.0000 0.26942  0.00172  0.90262  Biso   1.000  C
  C172     1.0000 0.24232  0.02081  0.85812  Biso   1.000  C
  C173     1.0000 0.30138  0.05130  0.95320  Biso   1.000  C
  C174     1.0000 0.30318  0.03476  0.97246  Biso   1.000  C
  C175     1.0000 0.29236  0.00456  0.94621  Biso   1.000  C
  C176     1.0000 0.29574  0.91999  0.04852  Biso   1.000  C
  C177     1.0000 0.30550  0.93007  0.09299  Biso   1.000  C
  C178     1.0000 0.32356  0.91310  0.13523  Biso   1.000  C
  C179     1.0000 0.33897  0.88708  0.13487  Biso   1.000  C
  C180     1.0000 0.32751  0.87732  0.08918  Biso   1.000  C
  C181     1.0000 0.30595  0.89383  0.04697  Biso   1.000  C
  C182     1.0000 0.36768  0.93863  0.02425  Biso   1.000  C
  C183     1.0000 0.37033  0.96280  0.00832  Biso   1.000  C
  C184     1.0000 0.39255  0.98506  0.04266  Biso   1.000  C
  C185     1.0000 0.41158  0.97748  0.09441  Biso   1.000  C
  C186     1.0000 0.40934  0.95440  0.10928  Biso   1.000  C
  C187     1.0000 0.38586  0.93387  0.07575  Biso   1.000  C
  C188     1.0000 0.44299  0.90775  0.00827  Biso   1.000  C
  C189     1.0000 0.43719  0.92668  0.02227  Biso   1.000  C
  C190     1.0000 0.46412  0.94299  0.06703  Biso   1.000  C
  C191     1.0000 0.49517  0.93410  0.09819  Biso   1.000  C
  C192     1.0000 0.50571  0.91080  0.09985  Biso   1.000  C
  C193     1.0000 0.47653  0.89254  0.04182  Biso   1.000  C
  C194     1.0000 0.48806  0.80895  0.03128  Biso   1.000  C
  C195     1.0000 0.47216  0.82339  0.04583  Biso   1.000  C
  C196     1.0000 0.49750  0.83522  0.09475  Biso   1.000  C
  C197     1.0000 0.53461  0.83335  0.12535  Biso   1.000  C
  C198     1.0000 0.54945  0.81813  0.10989  Biso   1.000  C
  C199     1.0000 0.52618  0.80573  0.06255  Biso   1.000  C
  C200     1.0000 0.03258  0.86836  0.59807  Biso   1.000  C
  C201     1.0000 0.03846  0.84150  0.61392  Biso   1.000  C
  C202     1.0000 0.01155  0.82346  0.60342  Biso   1.000  C
  C203     1.0000 0.97466  0.83302  0.57292  Biso   1.000  C
  C204     1.0000 0.96531  0.85899  0.55141  Biso   1.000  C
  C205     1.0000 0.99256  0.87894  0.56460  Biso   1.000  C
  C206     1.0000 0.56652  0.81145  0.95477  Biso   1.000  C
  C207     1.0000 0.60442  0.81769  0.98270  Biso   1.000  C
  C208     1.0000 0.61987  0.82428  0.96050  Biso   1.000  C
  C209     1.0000 0.59111  0.82585  0.90507  Biso   1.000  C
  C210     1.0000 0.55679  0.81807  0.87911  Biso   1.000  C
  C211     1.0000 0.54337  0.80971  0.90485  Biso   1.000  C
  C212     1.0000 0.50762  0.87703  0.92362  Biso   1.000  C
  C213     1.0000 0.54836  0.87698  0.95978  Biso   1.000  C
  C214     1.0000 0.56675  0.88641  0.94396  Biso   1.000  C
  C215     1.0000 0.54049  0.89417  0.88493  Biso   1.000  C
  C216     1.0000 0.50125  0.88818  0.84968  Biso   1.000  C
  C217     1.0000 0.49021  0.87913  0.86683  Biso   1.000  C
  C218     1.0000 0.35868  0.00578  0.78876  Biso   1.000  C
  C219     1.0000 0.38901  0.00350  0.83679  Biso   1.000  C
  C220     1.0000 0.42157  0.02430  0.86425  Biso   1.000  C
  C221     1.0000 0.40882  0.04783  0.83721  Biso   1.000  C
  C222     1.0000 0.37676  0.05200  0.78958  Biso   1.000  C
  C223     1.0000 0.35464  0.02965  0.76673  Biso   1.000  C
  C224     1.0000 0.44320  0.94660  0.91490  Biso   1.000  C
  S53      1.0000 0.63134  0.37977  0.77844  Biso   1.000  S
  S54      1.0000 0.75325  0.53770  0.65911  Biso   1.000  S
  S55      1.0000 0.75273  0.47003  0.87447  Biso   1.000  S
  S56      1.0000 0.69300  0.37505  0.93493  Biso   1.000  S
  S57      1.0000 0.64952  0.46416  0.75905  Biso   1.000  S
  S58      1.0000 0.58463  0.35390  0.53938  Biso   1.000  S
  S59      1.0000 0.88351  0.36458  0.76556  Biso   1.000  S
  S60      1.0000 0.74252  0.48579  0.55623  Biso   1.000  S
  S61      1.0000 0.72549  0.27226  0.62621  Biso   1.000  S
  S62      1.0000 0.65338  0.33694  0.52395  Biso   1.000  S
  S63      1.0000 0.94708  0.29552  0.84611  Biso   1.000  S
  S64      1.0000 0.81555  0.42687  0.65928  Biso   1.000  S
  S65      1.0000 0.69956  0.43229  0.02122  Biso   1.000  S
  S66      1.0000 0.83668  0.28357  0.72912  Biso   1.000  S
  S67      1.0000 0.05256  0.30385  0.98936  Biso   1.000  S
  S68      1.0000 0.69788  0.30793  0.86501  Biso   1.000  S
  S69      1.0000 0.61455  0.40844  0.65091  Biso   1.000  S
  S70      1.0000 0.61943  0.25586  0.51145  Biso   1.000  S
  S71      1.0000 0.87510  0.31696  0.96864  Biso   1.000  S
  S72      1.0000 0.77116  0.34874  0.63373  Biso   1.000  S
  S73      1.0000 0.98323  0.36465  0.93390  Biso   1.000  S
  S74      1.0000 0.66478  0.48441  0.66260  Biso   1.000  S
  S75      1.0000 0.69785  0.41172  0.54206  Biso   1.000  S
  S76      1.0000 0.65450  0.44569  0.87275  Biso   1.000  S
  S77      1.0000 0.90960  0.42343  0.85230  Biso   1.000  S
  S78      1.0000 0.65146  0.50504  0.53490  Biso   1.000  S
  S79      1.0000 0.75367  0.50707  0.77174  Biso   1.000  S
  S80      1.0000 0.61900  0.42991  0.54014  Biso   1.000  S
  S81      1.0000 0.80255  0.36862  0.86275  Biso   1.000  S
  S82      1.0000 0.65877  0.30083  0.63724  Biso   1.000  S
  S83      1.0000 0.72812  0.42745  0.76133  Biso   1.000  S
  S84      1.0000 0.63116  0.21912  0.62689  Biso   1.000  S
  S85      1.0000 0.76942  0.31887  0.74461  Biso   1.000  S
  S86      1.0000 0.80529  0.39920  0.75571  Biso   1.000  S
  S87      1.0000 0.69291  0.34729  0.75403  Biso   1.000  S
  S88      1.0000 0.69376  0.37776  0.64428  Biso   1.000  S
  S89      1.0000 0.87681  0.33997  0.85365  Biso   1.000  S
  S90      1.0000 0.73035  0.45555  0.65384  Biso   1.000  S
  S91      1.0000 0.72471  0.39979  0.86533  Biso   1.000  S
  S92      1.0000 0.91122  0.38534  0.96009  Biso   1.000  S
  S93      1.0000 0.76974  0.28367  0.85441  Biso   1.000  S
  S94      1.0000 0.74240  0.24098  0.73086  Biso   1.000  S
  S95      1.0000 0.84054  0.41069  0.98218  Biso   1.000  S
  S96      1.0000 0.54903  0.27794  0.53616  Biso   1.000  S
  S97      1.0000 0.95978  0.29247  0.97159  Biso   1.000  S
  S98      1.0000 0.78742  0.34157  0.95471  Biso   1.000  S
  S99      1.0000 0.65731  0.26940  0.73381  Biso   1.000  S
  S100     1.0000 0.82787  0.47836  0.75387  Biso   1.000  S
  S101     1.0000 0.76926  0.44261  0.99627  Biso   1.000  S
  S102     1.0000 0.58554  0.32865  0.65561  Biso   1.000  S
  S103     1.0000 0.85249  0.26746  0.84988  Biso   1.000  S
  S104     1.0000 0.83957  0.45137  0.87649  Biso   1.000  S
  Cd33     1.0000 0.81145  0.35740  0.80238  Biso   1.000  Cd
  Cd34     1.0000 0.73719  0.38548  0.80932  Biso   1.000  Cd
  Cd35     1.0000 0.73929  0.41426  0.70402  Biso   1.000  Cd
  Cd36     1.0000 0.70517  0.33722  0.69687  Biso   1.000  Cd
  Cd37     1.0000 0.84817  0.40710  0.91723  Biso   1.000  Cd
  Cd38     1.0000 0.78342  0.27788  0.79926  Biso   1.000  Cd
  Cd39     1.0000 0.62939  0.36920  0.70573  Biso   1.000  Cd
  Cd40     1.0000 0.62778  0.39305  0.59803  Biso   1.000  Cd
  Cd41     1.0000 0.70873  0.36749  0.58940  Biso   1.000  Cd
  Cd42     1.0000 0.67749  0.25645  0.68516  Biso   1.000  Cd
  Cd43     1.0000 0.80476  0.32509  0.90434  Biso   1.000  Cd
  Cd44     1.0000 0.70630  0.30279  0.80145  Biso   1.000  Cd
  Cd45     1.0000 0.77352  0.46341  0.82476  Biso   1.000  Cd
  Cd46     1.0000 0.59403  0.31602  0.59551  Biso   1.000  Cd
  Cd47     1.0000 0.89159  0.30502  0.91689  Biso   1.000  Cd
  Cd48     1.0000 0.66221  0.29409  0.57017  Biso   1.000  Cd
  Cd49     1.0000 0.92036  0.38034  0.89696  Biso   1.000  Cd
  Cd50     1.0000 0.84462  0.43924  0.81358  Biso   1.000  Cd
  Cd51     1.0000 0.81664  0.38263  0.69899  Biso   1.000  Cd
  Cd52     1.0000 0.71822  0.35614  0.89683  Biso   1.000  Cd
  Cd53     1.0000 0.66205  0.44385  0.70561  Biso   1.000  Cd
  Cd54     1.0000 0.98404  0.31369  0.93375  Biso   1.000  Cd
  Cd55     1.0000 0.77674  0.42995  0.93433  Biso   1.000  Cd
  Cd56     1.0000 0.58616  0.23971  0.53964  Biso   1.000  Cd
  Cd57     1.0000 0.70634  0.42533  0.95756  Biso   1.000  Cd
  Cd58     1.0000 0.88323  0.31711  0.79607  Biso   1.000  Cd
  Cd59     1.0000 0.66276  0.46818  0.59316  Biso   1.000  Cd
  Cd60     1.0000 0.75008  0.44378  0.60517  Biso   1.000  Cd
  Cd61     1.0000 0.76327  0.49642  0.71165  Biso   1.000  Cd
  Cd62     1.0000 0.77512  0.30908  0.68007  Biso   1.000  Cd
  Cd63     1.0000 0.66459  0.42587  0.81646  Biso   1.000  Cd
  Cd64     1.0000 0.71257  0.47644  0.06809  Biso   1.000  Cd
  C225     1.0000 0.58311  0.27288  0.45541  Biso   1.000  C
  C226     1.0000 0.56984  0.26154  0.41039  Biso   1.000  C
  C227     1.0000 0.54126  0.27434  0.36552  Biso   1.000  C
  C228     1.0000 0.52594  0.29849  0.36567  Biso   1.000  C
  C229     1.0000 0.53920  0.30983  0.41069  Biso   1.000  C
  C230     1.0000 0.56778  0.29702  0.45556  Biso   1.000  C
  C231     1.0000 0.53357  0.26595  0.56691  Biso   1.000  C
  C232     1.0000 0.49501  0.26513  0.53794  Biso   1.000  C
  C233     1.0000 0.48123  0.25715  0.55999  Biso   1.000  C
  C234     1.0000 0.50542  0.25080  0.61224  Biso   1.000  C
  C235     1.0000 0.54414  0.25214  0.64064  Biso   1.000  C
  C236     1.0000 0.55796  0.26015  0.61809  Biso   1.000  C
  C237     1.0000 0.65333  0.19407  0.61783  Biso   1.000  C
  C238     1.0000 0.64237  0.16700  0.61300  Biso   1.000  C
  C239     1.0000 0.65712  0.14620  0.60390  Biso   1.000  C
  C240     1.0000 0.68520  0.15392  0.60455  Biso   1.000  C
  C241     1.0000 0.69570  0.18079  0.60694  Biso   1.000  C
  C242     1.0000 0.68008  0.20161  0.61559  Biso   1.000  C
  C243     1.0000 0.65864  0.23946  0.76286  Biso   1.000  C
  C244     1.0000 0.63650  0.21760  0.73353  Biso   1.000  C
  C245     1.0000 0.63555  0.19305  0.75407  Biso   1.000  C
  C246     1.0000 0.65811  0.19074  0.80516  Biso   1.000  C
  C247     1.0000 0.68070  0.21343  0.83733  Biso   1.000  C
  C248     1.0000 0.68019  0.23729  0.81466  Biso   1.000  C
  C249     1.0000 0.74103  0.20997  0.75758  Biso   1.000  C
  C250     1.0000 0.74701  0.18537  0.74265  Biso   1.000  C
  C251     1.0000 0.74278  0.15953  0.76328  Biso   1.000  C
  C252     1.0000 0.73674  0.16288  0.79563  Biso   1.000  C
  C253     1.0000 0.73311  0.18608  0.81016  Biso   1.000  C
  C254     1.0000 0.73539  0.21152  0.79035  Biso   1.000  C
  C255     1.0000 0.73218  0.25179  0.59433  Biso   1.000  C
  C256     1.0000 0.70627  0.24328  0.54654  Biso   1.000  C
  C257     1.0000 0.71319  0.22862  0.51802  Biso   1.000  C
  C258     1.0000 0.65987  0.32505  0.48484  Biso   1.000  C
  C259     1.0000 0.69895  0.32457  0.50255  Biso   1.000  C
  C260     1.0000 0.70185  0.31657  0.46554  Biso   1.000  C
  C261     1.0000 0.67244  0.31026  0.41655  Biso   1.000  C
  C262     1.0000 0.64388  0.30729  0.40393  Biso   1.000  C
  C263     1.0000 0.63742  0.31370  0.44496  Biso   1.000  C
  C264     1.0000 0.53552  0.36425  0.50290  Biso   1.000  C
  C265     1.0000 0.50982  0.34783  0.48283  Biso   1.000  C
  C266     1.0000 0.47186  0.35648  0.44800  Biso   1.000  C
  C267     1.0000 0.45971  0.38085  0.44880  Biso   1.000  C
  C268     1.0000 0.49052  0.40172  0.47895  Biso   1.000  C
  C269     1.0000 0.53002  0.39371  0.50512  Biso   1.000  C
  C270     1.0000 0.65910  0.47879  0.87293  Biso   1.000  C
  C271     1.0000 0.63308  0.49595  0.82755  Biso   1.000  C
  C272     1.0000 0.64014  0.52697  0.82465  Biso   1.000  C
  C273     1.0000 0.66969  0.53666  0.87288  Biso   1.000  C
  C274     1.0000 0.69524  0.52243  0.91625  Biso   1.000  C
  C275     1.0000 0.69065  0.49180  0.91378  Biso   1.000  C
  C276     1.0000 0.65538  0.42188  0.98798  Biso   1.000  C
  C277     1.0000 0.65588  0.39156  0.00704  Biso   1.000  C
  C278     1.0000 0.61677  0.37596  0.96440  Biso   1.000  C
  C279     1.0000 0.58632  0.40013  0.92989  Biso   1.000  C
  C280     1.0000 0.58891  0.42405  0.91679  Biso   1.000  C
  C281     1.0000 0.62736  0.43576  0.94629  Biso   1.000  C
  C282     1.0000 0.63521  0.51088  0.65388  Biso   1.000  C
  C283     1.0000 0.60551  0.51699  0.60419  Biso   1.000  C
  C284     1.0000 0.58222  0.54093  0.60110  Biso   1.000  C
  C285     1.0000 0.59822  0.55148  0.65038  Biso   1.000  C
  C286     1.0000 0.63231  0.54960  0.71149  Biso   1.000  C
  C287     1.0000 0.65397  0.52414  0.70816  Biso   1.000  C
  C288     1.0000 0.58776  0.37976  0.75840  Biso   1.000  C
  C289     1.0000 0.55713  0.37111  0.71270  Biso   1.000  C
  C290     1.0000 0.51909  0.36875  0.69801  Biso   1.000  C
  C291     1.0000 0.51026  0.38848  0.70846  Biso   1.000  C
  C292     1.0000 0.53346  0.40980  0.73555  Biso   1.000  C
  C293     1.0000 0.57086  0.40819  0.75873  Biso   1.000  C
  C294     1.0000 0.65155  0.30011  0.83463  Biso   1.000  C
  C295     1.0000 0.62317  0.30390  0.78532  Biso   1.000  C
  C296     1.0000 0.58709  0.29413  0.76168  Biso   1.000  C
  C297     1.0000 0.58170  0.28206  0.79060  Biso   1.000  C
  C298     1.0000 0.60807  0.27811  0.83912  Biso   1.000  C
  C299     1.0000 0.64626  0.28740  0.86571  Biso   1.000  C
  C300     1.0000 0.86181  0.23490  0.87843  Biso   1.000  C
  C301     1.0000 0.83279  0.21755  0.86473  Biso   1.000  C
  C302     1.0000 0.84084  0.19192  0.88829  Biso   1.000  C
  C303     1.0000 0.87831  0.18203  0.92206  Biso   1.000  C
  C304     1.0000 0.90484  0.19992  0.93541  Biso   1.000  C
  C305     1.0000 0.89850  0.22583  0.91479  Biso   1.000  C
  C306     1.0000 0.84651  0.28399  0.68890  Biso   1.000  C
  C307     1.0000 0.84395  0.30646  0.66628  Biso   1.000  C
  C308     1.0000 0.85457  0.30655  0.63519  Biso   1.000  C
  C309     1.0000 0.86337  0.28273  0.62677  Biso   1.000  C
  C310     1.0000 0.86509  0.26066  0.64714  Biso   1.000  C
  C311     1.0000 0.85138  0.25949  0.67599  Biso   1.000  C
  C312     1.0000 0.70548  0.40105  0.50026  Biso   1.000  C
  C313     1.0000 0.71411  0.37092  0.50025  Biso   1.000  C
  C314     1.0000 0.71808  0.36197  0.46356  Biso   1.000  C
  C315     1.0000 0.73326  0.38320  0.44636  Biso   1.000  C
  C316     1.0000 0.73580  0.40875  0.46637  Biso   1.000  C
  C317     1.0000 0.72515  0.41620  0.49424  Biso   1.000  C
  C318     1.0000 0.57483  0.44709  0.51539  Biso   1.000  C
  C319     1.0000 0.56160  0.45160  0.46785  Biso   1.000  C
  C320     1.0000 0.52535  0.46176  0.43047  Biso   1.000  C
  C321     1.0000 0.51154  0.46632  0.45230  Biso   1.000  C
  C322     1.0000 0.57074  0.45470  0.54763  Biso   1.000  C
  C323     1.0000 0.62449  0.49521  0.47459  Biso   1.000  C
  C324     1.0000 0.58709  0.50679  0.43941  Biso   1.000  C
  C325     1.0000 0.57391  0.49349  0.38056  Biso   1.000  C
  C326     1.0000 0.59148  0.47147  0.38482  Biso   1.000  C
  C327     1.0000 0.62383  0.46177  0.42125  Biso   1.000  C
  C328     1.0000 0.64011  0.47279  0.46613  Biso   1.000  C
  C329     1.0000 0.61835  0.52555  0.51976  Biso   1.000  C
  C330     1.0000 0.58295  0.51651  0.49107  Biso   1.000  C
  C331     1.0000 0.55251  0.54233  0.47683  Biso   1.000  C
  C332     1.0000 0.57002  0.56032  0.50154  Biso   1.000  C
  C333     1.0000 0.60461  0.57134  0.53460  Biso   1.000  C
  C334     1.0000 0.62695  0.55330  0.53739  Biso   1.000  C
  C335     1.0000 0.59994  0.46505  0.71358  Biso   1.000  C
  C336     1.0000 0.57710  0.49328  0.68182  Biso   1.000  C
  C337     1.0000 0.54126  0.49099  0.67015  Biso   1.000  C
  C338     1.0000 0.52106  0.46647  0.64372  Biso   1.000  C
  C339     1.0000 0.53507  0.44331  0.66613  Biso   1.000  C
  C340     1.0000 0.57768  0.44135  0.70327  Biso   1.000  C
  C341     1.0000 0.70073  0.35560  0.98049  Biso   1.000  C
  C342     1.0000 0.67569  0.33428  0.96558  Biso   1.000  C
  C343     1.0000 0.68575  0.31670  0.00854  Biso   1.000  C
  C344     1.0000 0.71424  0.32401  0.05661  Biso   1.000  C
  C345     1.0000 0.73752  0.34692  0.07043  Biso   1.000  C
  C346     1.0000 0.73066  0.36229  0.03129  Biso   1.000  C
  C347     1.0000 0.78684  0.31161  0.98304  Biso   1.000  C
  C348     1.0000 0.77251  0.31518  0.00712  Biso   1.000  C
  C349     1.0000 0.77245  0.29185  0.03210  Biso   1.000  C
  C350     1.0000 0.78853  0.26787  0.03590  Biso   1.000  C
  C351     1.0000 0.80264  0.26432  0.01151  Biso   1.000  C
  C352     1.0000 0.80125  0.28686  0.98516  Biso   1.000  C
  C353     1.0000 0.88374  0.28485  0.99920  Biso   1.000  C
  C354     1.0000 0.90946  0.28478  0.05157  Biso   1.000  C
  C355     1.0000 0.91534  0.25871  0.07613  Biso   1.000  C
  C356     1.0000 0.89840  0.23596  0.04951  Biso   1.000  C
  C357     1.0000 0.87386  0.23565  0.99784  Biso   1.000  C
  C358     1.0000 0.86615  0.26107  0.97279  Biso   1.000  C
  C359     1.0000 0.94360  0.25868  0.85310  Biso   1.000  C
  C360     1.0000 0.96847  0.24554  0.89606  Biso   1.000  C
  C361     1.0000 0.96634  0.21646  0.89954  Biso   1.000  C
  C362     1.0000 0.94056  0.20194  0.85927  Biso   1.000  C
  C363     1.0000 0.91831  0.21587  0.81364  Biso   1.000  C
  C364     1.0000 0.91989  0.24522  0.80768  Biso   1.000  C
  C365     1.0000 0.90803  0.36489  0.74500  Biso   1.000  C
  C366     1.0000 0.93684  0.34942  0.76749  Biso   1.000  C
  C367     1.0000 0.95332  0.34168  0.73716  Biso   1.000  C
  C368     1.0000 0.94751  0.36537  0.71206  Biso   1.000  C
  C369     1.0000 0.92216  0.38232  0.69674  Biso   1.000  C
  C370     1.0000 0.90014  0.37858  0.71016  Biso   1.000  C
  C371     1.0000 0.82259  0.41548  0.61770  Biso   1.000  C
  C372     1.0000 0.81193  0.39104  0.59476  Biso   1.000  C
  C373     1.0000 0.82038  0.38181  0.56276  Biso   1.000  C
  C374     1.0000 0.84009  0.40227  0.56138  Biso   1.000  C
  C375     1.0000 0.85315  0.42524  0.58617  Biso   1.000  C
  C376     1.0000 0.84515  0.43325  0.61684  Biso   1.000  C
  C377     1.0000 0.78952  0.49520  0.59062  Biso   1.000  C
  C378     1.0000 0.80159  0.49732  0.56373  Biso   1.000  C
  C379     1.0000 0.83752  0.50539  0.58872  Biso   1.000  C
  C380     1.0000 0.86213  0.50922  0.63918  Biso   1.000  C
  C381     1.0000 0.85132  0.50719  0.66738  Biso   1.000  C
  C382     1.0000 0.81390  0.50059  0.64191  Biso   1.000  C
  C383     1.0000 0.72357  0.56166  0.65430  Biso   1.000  C
  C384     1.0000 0.72411  0.58834  0.63589  Biso   1.000  C
  C385     1.0000 0.70101  0.60928  0.63244  Biso   1.000  C
  C386     1.0000 0.68011  0.60417  0.64583  Biso   1.000  C
  C387     1.0000 0.67891  0.57709  0.66123  Biso   1.000  C
  C388     1.0000 0.70176  0.55610  0.66322  Biso   1.000  C
  C389     1.0000 0.78592  0.53220  0.80885  Biso   1.000  C
  C390     1.0000 0.77264  0.56001  0.79387  Biso   1.000  C
  C391     1.0000 0.79507  0.58216  0.82787  Biso   1.000  C
  C392     1.0000 0.83262  0.57335  0.88532  Biso   1.000  C
  C393     1.0000 0.83696  0.54647  0.89735  Biso   1.000  C
  C394     1.0000 0.81651  0.52615  0.87226  Biso   1.000  C
  C395     1.0000 0.76942  0.50172  0.90262  Biso   1.000  C
  C396     1.0000 0.74232  0.52081  0.85812  Biso   1.000  C
  C397     1.0000 0.80138  0.55130  0.95320  Biso   1.000  C
  C398     1.0000 0.80318  0.53476  0.97246  Biso   1.000  C
  C399     1.0000 0.79236  0.50456  0.94621  Biso   1.000  C
  C400     1.0000 0.79574  0.41999  0.04852  Biso   1.000  C
  C401     1.0000 0.80550  0.43007  0.09299  Biso   1.000  C
  C402     1.0000 0.82356  0.41310  0.13523  Biso   1.000  C
  C403     1.0000 0.83897  0.38708  0.13487  Biso   1.000  C
  C404     1.0000 0.82751  0.37732  0.08918  Biso   1.000  C
  C405     1.0000 0.80595  0.39383  0.04697  Biso   1.000  C
  C406     1.0000 0.86768  0.43863  0.02425  Biso   1.000  C
  C407     1.0000 0.87033  0.46280  0.00832  Biso   1.000  C
  C408     1.0000 0.89255  0.48506  0.04266  Biso   1.000  C
  C409     1.0000 0.91158  0.47748  0.09441  Biso   1.000  C
  C410     1.0000 0.90934  0.45440  0.10928  Biso   1.000  C
  C411     1.0000 0.88586  0.43387  0.07575  Biso   1.000  C
  C412     1.0000 0.94299  0.40775  0.00827  Biso   1.000  C
  C413     1.0000 0.93719  0.42668  0.02227  Biso   1.000  C
  C414     1.0000 0.96412  0.44299  0.06703  Biso   1.000  C
  C415     1.0000 0.99517  0.43410  0.09819  Biso   1.000  C
  C416     1.0000 0.00571  0.41080  0.09985  Biso   1.000  C
  C417     1.0000 0.97653  0.39254  0.04182  Biso   1.000  C
  C418     1.0000 0.98806  0.30895  0.03128  Biso   1.000  C
  C419     1.0000 0.97216  0.32339  0.04583  Biso   1.000  C
  C420     1.0000 0.99750  0.33522  0.09475  Biso   1.000  C
  C421     1.0000 0.03461  0.33335  0.12535  Biso   1.000  C
  C422     1.0000 0.04945  0.31813  0.10989  Biso   1.000  C
  C423     1.0000 0.02618  0.30573  0.06255  Biso   1.000  C
  C424     1.0000 0.53258  0.36836  0.59807  Biso   1.000  C
  C425     1.0000 0.53846  0.34150  0.61392  Biso   1.000  C
  C426     1.0000 0.51155  0.32346  0.60342  Biso   1.000  C
  C427     1.0000 0.47466  0.33302  0.57292  Biso   1.000  C
  C428     1.0000 0.46531  0.35899  0.55141  Biso   1.000  C
  C429     1.0000 0.49256  0.37894  0.56460  Biso   1.000  C
  C430     1.0000 0.06652  0.31145  0.95477  Biso   1.000  C
  C431     1.0000 0.10442  0.31769  0.98270  Biso   1.000  C
  C432     1.0000 0.11987  0.32428  0.96050  Biso   1.000  C
  C433     1.0000 0.09111  0.32585  0.90507  Biso   1.000  C
  C434     1.0000 0.05679  0.31807  0.87911  Biso   1.000  C
  C435     1.0000 0.04337  0.30971  0.90485  Biso   1.000  C
  C436     1.0000 0.00762  0.37703  0.92362  Biso   1.000  C
  C437     1.0000 0.04836  0.37698  0.95978  Biso   1.000  C
  C438     1.0000 0.06675  0.38641  0.94396  Biso   1.000  C
  C439     1.0000 0.04049  0.39417  0.88493  Biso   1.000  C
  C440     1.0000 0.00125  0.38818  0.84968  Biso   1.000  C
  C441     1.0000 0.99021  0.37913  0.86683  Biso   1.000  C
  C442     1.0000 0.85868  0.50578  0.78876  Biso   1.000  C
  C443     1.0000 0.88901  0.50350  0.83679  Biso   1.000  C
  C444     1.0000 0.92157  0.52430  0.86425  Biso   1.000  C
  C445     1.0000 0.90882  0.54783  0.83721  Biso   1.000  C
  C446     1.0000 0.87676  0.55200  0.78958  Biso   1.000  C
  C447     1.0000 0.85464  0.52965  0.76673  Biso   1.000  C
  C448     1.0000 0.94320  0.44660  0.91490  Biso   1.000  C
  S105     1.0000 0.13134  0.12023  0.27844  Biso   1.000  S
  S106     1.0000 0.25325  0.96230  0.15911  Biso   1.000  S
  S107     1.0000 0.25273  0.02997  0.37447  Biso   1.000  S
  S108     1.0000 0.19300  0.12495  0.43493  Biso   1.000  S
  S109     1.0000 0.14952  0.03584  0.25905  Biso   1.000  S
  S110     1.0000 0.08463  0.14610  0.03938  Biso   1.000  S
  S111     1.0000 0.38351  0.13542  0.26556  Biso   1.000  S
  S112     1.0000 0.24252  0.01421  0.05623  Biso   1.000  S
  S113     1.0000 0.22549  0.22774  0.12621  Biso   1.000  S
  S114     1.0000 0.15338  0.16306  0.02395  Biso   1.000  S
  S115     1.0000 0.44708  0.20448  0.34611  Biso   1.000  S
  S116     1.0000 0.31555  0.07313  0.15928  Biso   1.000  S
  S117     1.0000 0.19956  0.06771  0.52122  Biso   1.000  S
  S118     1.0000 0.33668  0.21643  0.22912  Biso   1.000  S
  S119     1.0000 0.55256  0.19615  0.48936  Biso   1.000  S
  S120     1.0000 0.19788  0.19207  0.36501  Biso   1.000  S
  S121     1.0000 0.11455  0.09156  0.15091  Biso   1.000  S
  S122     1.0000 0.11943  0.24414  0.01145  Biso   1.000  S
  S123     1.0000 0.37510  0.18304  0.46864  Biso   1.000  S
  S124     1.0000 0.27116  0.15126  0.13373  Biso   1.000  S
  S125     1.0000 0.48323  0.13535  0.43390  Biso   1.000  S
  S126     1.0000 0.16478  0.01559  0.16260  Biso   1.000  S
  S127     1.0000 0.19785  0.08828  0.04206  Biso   1.000  S
  S128     1.0000 0.15450  0.05431  0.37275  Biso   1.000  S
  S129     1.0000 0.40960  0.07657  0.35230  Biso   1.000  S
  S130     1.0000 0.15146  0.99496  0.03490  Biso   1.000  S
  S131     1.0000 0.25367  0.99293  0.27174  Biso   1.000  S
  S132     1.0000 0.11900  0.07009  0.04014  Biso   1.000  S
  S133     1.0000 0.30255  0.13138  0.36275  Biso   1.000  S
  S134     1.0000 0.15877  0.19917  0.13724  Biso   1.000  S
  S135     1.0000 0.22812  0.07255  0.26133  Biso   1.000  S
  S136     1.0000 0.13116  0.28088  0.12689  Biso   1.000  S
  S137     1.0000 0.26942  0.18113  0.24461  Biso   1.000  S
  S138     1.0000 0.30529  0.10080  0.25571  Biso   1.000  S
  S139     1.0000 0.19291  0.15271  0.25403  Biso   1.000  S
  S140     1.0000 0.19376  0.12224  0.14428  Biso   1.000  S
  S141     1.0000 0.37681  0.16003  0.35365  Biso   1.000  S
  S142     1.0000 0.23035  0.04445  0.15384  Biso   1.000  S
  S143     1.0000 0.22471  0.10021  0.36533  Biso   1.000  S
  S144     1.0000 0.41122  0.11466  0.46009  Biso   1.000  S
  S145     1.0000 0.26974  0.21633  0.35441  Biso   1.000  S
  S146     1.0000 0.24240  0.25902  0.23086  Biso   1.000  S
  S147     1.0000 0.34054  0.08931  0.48218  Biso   1.000  S
  S148     1.0000 0.04903  0.22206  0.03616  Biso   1.000  S
  S149     1.0000 0.45978  0.20753  0.47159  Biso   1.000  S
  S150     1.0000 0.28742  0.15843  0.45471  Biso   1.000  S
  S151     1.0000 0.15731  0.23060  0.23381  Biso   1.000  S
  S152     1.0000 0.32787  0.02164  0.25387  Biso   1.000  S
  S153     1.0000 0.26926  0.05739  0.49627  Biso   1.000  S
  S154     1.0000 0.08554  0.17135  0.15561  Biso   1.000  S
  S155     1.0000 0.35249  0.23254  0.34988  Biso   1.000  S
  S156     1.0000 0.33957  0.04863  0.37649  Biso   1.000  S
  Cd65     1.0000 0.31145  0.14260  0.30238  Biso   1.000  Cd
  Cd66     1.0000 0.23719  0.11452  0.30932  Biso   1.000  Cd
  Cd67     1.0000 0.23929  0.08574  0.20402  Biso   1.000  Cd
  Cd68     1.0000 0.20517  0.16278  0.19687  Biso   1.000  Cd
  Cd69     1.0000 0.34817  0.09290  0.41723  Biso   1.000  Cd
  Cd70     1.0000 0.28342  0.22212  0.29926  Biso   1.000  Cd
  Cd71     1.0000 0.12939  0.13080  0.20573  Biso   1.000  Cd
  Cd72     1.0000 0.12778  0.10695  0.09803  Biso   1.000  Cd
  Cd73     1.0000 0.20873  0.13251  0.08940  Biso   1.000  Cd
  Cd74     1.0000 0.17749  0.24355  0.18516  Biso   1.000  Cd
  Cd75     1.0000 0.30476  0.17491  0.40434  Biso   1.000  Cd
  Cd76     1.0000 0.20630  0.19721  0.30145  Biso   1.000  Cd
  Cd77     1.0000 0.27352  0.03659  0.32476  Biso   1.000  Cd
  Cd78     1.0000 0.09403  0.18398  0.09551  Biso   1.000  Cd
  Cd79     1.0000 0.39159  0.19498  0.41689  Biso   1.000  Cd
  Cd80     1.0000 0.16221  0.20591  0.07017  Biso   1.000  Cd
  Cd81     1.0000 0.42036  0.11966  0.39696  Biso   1.000  Cd
  Cd82     1.0000 0.34462  0.06076  0.31358  Biso   1.000  Cd
  Cd83     1.0000 0.31664  0.11737  0.19899  Biso   1.000  Cd
  Cd84     1.0000 0.21822  0.14386  0.39683  Biso   1.000  Cd
  Cd85     1.0000 0.16205  0.05615  0.20561  Biso   1.000  Cd
  Cd86     1.0000 0.48404  0.18631  0.43375  Biso   1.000  Cd
  Cd87     1.0000 0.27674  0.07005  0.43433  Biso   1.000  Cd
  Cd88     1.0000 0.08616  0.26029  0.03964  Biso   1.000  Cd
  Cd89     1.0000 0.20634  0.07467  0.45756  Biso   1.000  Cd
  Cd90     1.0000 0.38323  0.18289  0.29607  Biso   1.000  Cd
  Cd91     1.0000 0.16276  0.03182  0.09316  Biso   1.000  Cd
  Cd92     1.0000 0.25008  0.05622  0.10517  Biso   1.000  Cd
  Cd93     1.0000 0.26327  0.00358  0.21165  Biso   1.000  Cd
  Cd94     1.0000 0.27512  0.19092  0.18007  Biso   1.000  Cd
  Cd95     1.0000 0.16459  0.07413  0.31646  Biso   1.000  Cd
  Cd96     1.0000 0.21257  0.02356  0.56809  Biso   1.000  Cd
  C449     1.0000 0.08311  0.22712  0.95541  Biso   1.000  C
  C450     1.0000 0.06984  0.23846  0.91039  Biso   1.000  C
  C451     1.0000 0.04126  0.22566  0.86552  Biso   1.000  C
  C452     1.0000 0.02594  0.20151  0.86567  Biso   1.000  C
  C453     1.0000 0.03920  0.19017  0.91069  Biso   1.000  C
  C454     1.0000 0.06778  0.20298  0.95556  Biso   1.000  C
  C455     1.0000 0.03357  0.23405  0.06691  Biso   1.000  C
  C456     1.0000 0.99501  0.23487  0.03794  Biso   1.000  C
  C457     1.0000 0.98123  0.24285  0.05999  Biso   1.000  C
  C458     1.0000 0.00542  0.24920  0.11224  Biso   1.000  C
  C459     1.0000 0.04414  0.24786  0.14064  Biso   1.000  C
  C460     1.0000 0.05796  0.23985  0.11809  Biso   1.000  C
  C461     1.0000 0.15333  0.30593  0.11783  Biso   1.000  C
  C462     1.0000 0.14237  0.33300  0.11300  Biso   1.000  C
  C463     1.0000 0.15712  0.35380  0.10390  Biso   1.000  C
  C464     1.0000 0.18520  0.34608  0.10455  Biso   1.000  C
  C465     1.0000 0.19570  0.31921  0.10694  Biso   1.000  C
  C466     1.0000 0.18008  0.29839  0.11559  Biso   1.000  C
  C467     1.0000 0.15864  0.26054  0.26286  Biso   1.000  C
  C468     1.0000 0.13650  0.28240  0.23353  Biso   1.000  C
  C469     1.0000 0.13555  0.30695  0.25407  Biso   1.000  C
  C470     1.0000 0.15811  0.30926  0.30516  Biso   1.000  C
  C471     1.0000 0.18070  0.28657  0.33733  Biso   1.000  C
  C472     1.0000 0.18019  0.26271  0.31466  Biso   1.000  C
  C473     1.0000 0.24103  0.29003  0.25758  Biso   1.000  C
  C474     1.0000 0.24701  0.31463  0.24265  Biso   1.000  C
  C475     1.0000 0.24278  0.34047  0.26328  Biso   1.000  C
  C476     1.0000 0.23674  0.33712  0.29563  Biso   1.000  C
  C477     1.0000 0.23311  0.31392  0.31016  Biso   1.000  C
  C478     1.0000 0.23539  0.28848  0.29035  Biso   1.000  C
  C479     1.0000 0.23218  0.24821  0.09433  Biso   1.000  C
  C480     1.0000 0.20627  0.25672  0.04654  Biso   1.000  C
  C481     1.0000 0.21319  0.27138  0.01802  Biso   1.000  C
  C482     1.0000 0.15987  0.17495  0.98484  Biso   1.000  C
  C483     1.0000 0.19895  0.17543  0.00255  Biso   1.000  C
  C484     1.0000 0.20185  0.18343  0.96554  Biso   1.000  C
  C485     1.0000 0.17244  0.18974  0.91655  Biso   1.000  C
  C486     1.0000 0.14388  0.19271  0.90393  Biso   1.000  C
  C487     1.0000 0.13742  0.18630  0.94496  Biso   1.000  C
  C488     1.0000 0.03552  0.13575  0.00290  Biso   1.000  C
  C489     1.0000 0.00982  0.15217  0.98283  Biso   1.000  C
  C490     1.0000 0.97186  0.14352  0.94800  Biso   1.000  C
  C491     1.0000 0.95971  0.11915  0.94880  Biso   1.000  C
  C492     1.0000 0.99052  0.09828  0.97895  Biso   1.000  C
  C493     1.0000 0.03002  0.10629  0.00512  Biso   1.000  C
  C494     1.0000 0.15910  0.02121  0.37293  Biso   1.000  C
  C495     1.0000 0.13308  0.00405  0.32755  Biso   1.000  C
  C496     1.0000 0.14014  0.97303  0.32465  Biso   1.000  C
  C497     1.0000 0.16969  0.96334  0.37288  Biso   1.000  C
  C498     1.0000 0.19524  0.97757  0.41625  Biso   1.000  C
  C499     1.0000 0.19065  0.00820  0.41378  Biso   1.000  C
  C500     1.0000 0.15538  0.07812  0.48798  Biso   1.000  C
  C501     1.0000 0.15588  0.10844  0.50704  Biso   1.000  C
  C502     1.0000 0.11677  0.12404  0.46440  Biso   1.000  C
  C503     1.0000 0.08632  0.09987  0.42989  Biso   1.000  C
  C504     1.0000 0.08891  0.07595  0.41679  Biso   1.000  C
  C505     1.0000 0.12736  0.06424  0.44629  Biso   1.000  C
  C506     1.0000 0.13521  0.98912  0.15388  Biso   1.000  C
  C507     1.0000 0.10551  0.98301  0.10419  Biso   1.000  C
  C508     1.0000 0.08222  0.95907  0.10110  Biso   1.000  C
  C509     1.0000 0.09822  0.94852  0.15038  Biso   1.000  C
  C510     1.0000 0.13231  0.95040  0.21149  Biso   1.000  C
  C511     1.0000 0.15397  0.97586  0.20816  Biso   1.000  C
  C512     1.0000 0.08776  0.12024  0.25840  Biso   1.000  C
  C513     1.0000 0.05713  0.12889  0.21270  Biso   1.000  C
  C514     1.0000 0.01909  0.13125  0.19801  Biso   1.000  C
  C515     1.0000 0.01026  0.11152  0.20846  Biso   1.000  C
  C516     1.0000 0.03346  0.09020  0.23555  Biso   1.000  C
  C517     1.0000 0.07086  0.09181  0.25873  Biso   1.000  C
  C518     1.0000 0.15155  0.19989  0.33463  Biso   1.000  C
  C519     1.0000 0.12317  0.19610  0.28532  Biso   1.000  C
  C520     1.0000 0.08709  0.20587  0.26168  Biso   1.000  C
  C521     1.0000 0.08170  0.21794  0.29060  Biso   1.000  C
  C522     1.0000 0.10807  0.22189  0.33912  Biso   1.000  C
  C523     1.0000 0.14626  0.21260  0.36571  Biso   1.000  C
  C524     1.0000 0.36181  0.26510  0.37843  Biso   1.000  C
  C525     1.0000 0.33279  0.28245  0.36473  Biso   1.000  C
  C526     1.0000 0.34084  0.30808  0.38829  Biso   1.000  C
  C527     1.0000 0.37831  0.31797  0.42206  Biso   1.000  C
  C528     1.0000 0.40484  0.30008  0.43541  Biso   1.000  C
  C529     1.0000 0.39850  0.27417  0.41479  Biso   1.000  C
  C530     1.0000 0.34651  0.21601  0.18890  Biso   1.000  C
  C531     1.0000 0.34395  0.19354  0.16628  Biso   1.000  C
  C532     1.0000 0.35457  0.19345  0.13519  Biso   1.000  C
  C533     1.0000 0.36337  0.21727  0.12677  Biso   1.000  C
  C534     1.0000 0.36509  0.23934  0.14714  Biso   1.000  C
  C535     1.0000 0.35138  0.24051  0.17599  Biso   1.000  C
  C536     1.0000 0.20548  0.09895  0.00026  Biso   1.000  C
  C537     1.0000 0.21411  0.12908  0.00025  Biso   1.000  C
  C538     1.0000 0.21808  0.13803  0.96356  Biso   1.000  C
  C539     1.0000 0.23326  0.11680  0.94636  Biso   1.000  C
  C540     1.0000 0.23580  0.09125  0.96637  Biso   1.000  C
  C541     1.0000 0.22515  0.08380  0.99424  Biso   1.000  C
  C542     1.0000 0.07483  0.05291  0.01539  Biso   1.000  C
  C543     1.0000 0.06160  0.04840  0.96785  Biso   1.000  C
  C544     1.0000 0.02535  0.03824  0.93047  Biso   1.000  C
  C545     1.0000 0.01154  0.03368  0.95230  Biso   1.000  C
  C546     1.0000 0.07074  0.04530  0.04763  Biso   1.000  C
  C547     1.0000 0.12449  0.00479  0.97459  Biso   1.000  C
  C548     1.0000 0.08709  0.99321  0.93941  Biso   1.000  C
  C549     1.0000 0.07391  0.00651  0.88056  Biso   1.000  C
  C550     1.0000 0.09148  0.02853  0.88482  Biso   1.000  C
  C551     1.0000 0.12383  0.03823  0.92125  Biso   1.000  C
  C552     1.0000 0.14011  0.02721  0.96613  Biso   1.000  C
  C553     1.0000 0.11835  0.97445  0.01976  Biso   1.000  C
  C554     1.0000 0.08295  0.98349  0.99107  Biso   1.000  C
  C555     1.0000 0.05251  0.95767  0.97683  Biso   1.000  C
  C556     1.0000 0.07002  0.93968  0.00154  Biso   1.000  C
  C557     1.0000 0.10461  0.92866  0.03460  Biso   1.000  C
  C558     1.0000 0.12695  0.94670  0.03739  Biso   1.000  C
  C559     1.0000 0.09994  0.03495  0.21358  Biso   1.000  C
  C560     1.0000 0.07710  0.00672  0.18182  Biso   1.000  C
  C561     1.0000 0.04126  0.00901  0.17015  Biso   1.000  C
  C562     1.0000 0.02106  0.03353  0.14372  Biso   1.000  C
  C563     1.0000 0.03507  0.05669  0.16613  Biso   1.000  C
  C564     1.0000 0.07768  0.05865  0.20327  Biso   1.000  C
  C565     1.0000 0.20073  0.14440  0.48049  Biso   1.000  C
  C566     1.0000 0.17569  0.16572  0.46558  Biso   1.000  C
  C567     1.0000 0.18575  0.18330  0.50854  Biso   1.000  C
  C568     1.0000 0.21424  0.17599  0.55661  Biso   1.000  C
  C569     1.0000 0.23752  0.15308  0.57043  Biso   1.000  C
  C570     1.0000 0.23066  0.13771  0.53129  Biso   1.000  C
  C571     1.0000 0.28684  0.18839  0.48304  Biso   1.000  C
  C572     1.0000 0.27251  0.18482  0.50712  Biso   1.000  C
  C573     1.0000 0.27245  0.20815  0.53210  Biso   1.000  C
  C574     1.0000 0.28853  0.23213  0.53590  Biso   1.000  C
  C575     1.0000 0.30264  0.23568  0.51151  Biso   1.000  C
  C576     1.0000 0.30125  0.21314  0.48516  Biso   1.000  C
  C577     1.0000 0.38374  0.21515  0.49920  Biso   1.000  C
  C578     1.0000 0.40946  0.21522  0.55157  Biso   1.000  C
  C579     1.0000 0.41534  0.24129  0.57613  Biso   1.000  C
  C580     1.0000 0.39840  0.26404  0.54951  Biso   1.000  C
  C581     1.0000 0.37386  0.26435  0.49784  Biso   1.000  C
  C582     1.0000 0.36615  0.23893  0.47279  Biso   1.000  C
  C583     1.0000 0.44360  0.24132  0.35310  Biso   1.000  C
  C584     1.0000 0.46847  0.25446  0.39606  Biso   1.000  C
  C585     1.0000 0.46634  0.28354  0.39954  Biso   1.000  C
  C586     1.0000 0.44056  0.29806  0.35927  Biso   1.000  C
  C587     1.0000 0.41831  0.28413  0.31364  Biso   1.000  C
  C588     1.0000 0.41989  0.25478  0.30768  Biso   1.000  C
  C589     1.0000 0.40803  0.13511  0.24500  Biso   1.000  C
  C590     1.0000 0.43684  0.15058  0.26749  Biso   1.000  C
  C591     1.0000 0.45332  0.15832  0.23716  Biso   1.000  C
  C592     1.0000 0.44751  0.13463  0.21206  Biso   1.000  C
  C593     1.0000 0.42216  0.11768  0.19674  Biso   1.000  C
  C594     1.0000 0.40014  0.12142  0.21016  Biso   1.000  C
  C595     1.0000 0.32259  0.08452  0.11770  Biso   1.000  C
  C596     1.0000 0.31193  0.10896  0.09476  Biso   1.000  C
  C597     1.0000 0.32038  0.11819  0.06276  Biso   1.000  C
  C598     1.0000 0.34009  0.09773  0.06138  Biso   1.000  C
  C599     1.0000 0.35315  0.07476  0.08617  Biso   1.000  C
  C600     1.0000 0.34515  0.06675  0.11684  Biso   1.000  C
  C601     1.0000 0.28952  0.00480  0.09062  Biso   1.000  C
  C602     1.0000 0.30159  0.00268  0.06373  Biso   1.000  C
  C603     1.0000 0.33752  0.99461  0.08872  Biso   1.000  C
  C604     1.0000 0.36213  0.99078  0.13918  Biso   1.000  C
  C605     1.0000 0.35132  0.99281  0.16738  Biso   1.000  C
  C606     1.0000 0.31390  0.99941  0.14191  Biso   1.000  C
  C607     1.0000 0.22357  0.93834  0.15430  Biso   1.000  C
  C608     1.0000 0.22411  0.91166  0.13589  Biso   1.000  C
  C609     1.0000 0.20101  0.89072  0.13244  Biso   1.000  C
  C610     1.0000 0.18011  0.89583  0.14583  Biso   1.000  C
  C611     1.0000 0.17891  0.92291  0.16123  Biso   1.000  C
  C612     1.0000 0.20176  0.94390  0.16322  Biso   1.000  C
  C613     1.0000 0.28592  0.96780  0.30885  Biso   1.000  C
  C614     1.0000 0.27264  0.93999  0.29387  Biso   1.000  C
  C615     1.0000 0.29507  0.91784  0.32787  Biso   1.000  C
  C616     1.0000 0.33262  0.92665  0.38532  Biso   1.000  C
  C617     1.0000 0.33696  0.95353  0.39735  Biso   1.000  C
  C618     1.0000 0.31651  0.97385  0.37226  Biso   1.000  C
  C619     1.0000 0.26942  0.99828  0.40262  Biso   1.000  C
  C620     1.0000 0.24232  0.97919  0.35812  Biso   1.000  C
  C621     1.0000 0.30138  0.94870  0.45320  Biso   1.000  C
  C622     1.0000 0.30318  0.96524  0.47246  Biso   1.000  C
  C623     1.0000 0.29236  0.99544  0.44621  Biso   1.000  C
  C624     1.0000 0.29574  0.08001  0.54852  Biso   1.000  C
  C625     1.0000 0.30550  0.06993  0.59299  Biso   1.000  C
  C626     1.0000 0.32356  0.08690  0.63523  Biso   1.000  C
  C627     1.0000 0.33897  0.11292  0.63487  Biso   1.000  C
  C628     1.0000 0.32751  0.12268  0.58918  Biso   1.000  C
  C629     1.0000 0.30595  0.10617  0.54697  Biso   1.000  C
  C630     1.0000 0.36768  0.06137  0.52425  Biso   1.000  C
  C631     1.0000 0.37033  0.03720  0.50832  Biso   1.000  C
  C632     1.0000 0.39255  0.01494  0.54266  Biso   1.000  C
  C633     1.0000 0.41158  0.02252  0.59441  Biso   1.000  C
  C634     1.0000 0.40934  0.04560  0.60928  Biso   1.000  C
  C635     1.0000 0.38586  0.06613  0.57575  Biso   1.000  C
  C636     1.0000 0.44299  0.09225  0.50827  Biso   1.000  C
  C637     1.0000 0.43719  0.07332  0.52227  Biso   1.000  C
  C638     1.0000 0.46412  0.05701  0.56703  Biso   1.000  C
  C639     1.0000 0.49517  0.06590  0.59819  Biso   1.000  C
  C640     1.0000 0.50571  0.08920  0.59985  Biso   1.000  C
  C641     1.0000 0.47653  0.10746  0.54182  Biso   1.000  C
  C642     1.0000 0.48806  0.19105  0.53128  Biso   1.000  C
  C643     1.0000 0.47216  0.17661  0.54583  Biso   1.000  C
  C644     1.0000 0.49750  0.16478  0.59475  Biso   1.000  C
  C645     1.0000 0.53461  0.16665  0.62535  Biso   1.000  C
  C646     1.0000 0.54945  0.18187  0.60989  Biso   1.000  C
  C647     1.0000 0.52618  0.19427  0.56255  Biso   1.000  C
  C648     1.0000 0.03258  0.13164  0.09807  Biso   1.000  C
  C649     1.0000 0.03846  0.15850  0.11392  Biso   1.000  C
  C650     1.0000 0.01155  0.17654  0.10342  Biso   1.000  C
  C651     1.0000 0.97466  0.16698  0.07292  Biso   1.000  C
  C652     1.0000 0.96531  0.14101  0.05141  Biso   1.000  C
  C653     1.0000 0.99256  0.12106  0.06460  Biso   1.000  C
  C654     1.0000 0.56652  0.18855  0.45477  Biso   1.000  C
  C655     1.0000 0.60442  0.18231  0.48270  Biso   1.000  C
  C656     1.0000 0.61987  0.17572  0.46050  Biso   1.000  C
  C657     1.0000 0.59111  0.17415  0.40507  Biso   1.000  C
  C658     1.0000 0.55679  0.18193  0.37911  Biso   1.000  C
  C659     1.0000 0.54337  0.19029  0.40485  Biso   1.000  C
  C660     1.0000 0.50762  0.12297  0.42362  Biso   1.000  C
  C661     1.0000 0.54836  0.12302  0.45978  Biso   1.000  C
  C662     1.0000 0.56675  0.11359  0.44396  Biso   1.000  C
  C663     1.0000 0.54049  0.10583  0.38493  Biso   1.000  C
  C664     1.0000 0.50125  0.11182  0.34968  Biso   1.000  C
  C665     1.0000 0.49021  0.12087  0.36683  Biso   1.000  C
  C666     1.0000 0.35868  0.99422  0.28876  Biso   1.000  C
  C667     1.0000 0.38901  0.99650  0.33679  Biso   1.000  C
  C668     1.0000 0.42157  0.97570  0.36425  Biso   1.000  C
  C669     1.0000 0.40882  0.95217  0.33721  Biso   1.000  C
  C670     1.0000 0.37676  0.94800  0.28958  Biso   1.000  C
  C671     1.0000 0.35464  0.97035  0.26673  Biso   1.000  C
  C672     1.0000 0.44320  0.05340  0.41490  Biso   1.000  C
  S157     1.0000 0.63134  0.62023  0.27844  Biso   1.000  S
  S158     1.0000 0.75325  0.46230  0.15911  Biso   1.000  S
  S159     1.0000 0.75273  0.52997  0.37447  Biso   1.000  S
  S160     1.0000 0.69300  0.62495  0.43493  Biso   1.000  S
  S161     1.0000 0.64952  0.53584  0.25905  Biso   1.000  S
  S162     1.0000 0.58463  0.64610  0.03938  Biso   1.000  S
  S163     1.0000 0.88351  0.63542  0.26556  Biso   1.000  S
  S164     1.0000 0.74252  0.51421  0.05623  Biso   1.000  S
  S165     1.0000 0.72549  0.72774  0.12621  Biso   1.000  S
  S166     1.0000 0.65338  0.66306  0.02395  Biso   1.000  S
  S167     1.0000 0.94708  0.70448  0.34611  Biso   1.000  S
  S168     1.0000 0.81555  0.57313  0.15928  Biso   1.000  S
  S169     1.0000 0.69956  0.56771  0.52122  Biso   1.000  S
  S170     1.0000 0.83668  0.71643  0.22912  Biso   1.000  S
  S171     1.0000 0.05256  0.69615  0.48936  Biso   1.000  S
  S172     1.0000 0.69788  0.69207  0.36501  Biso   1.000  S
  S173     1.0000 0.61455  0.59156  0.15091  Biso   1.000  S
  S174     1.0000 0.61943  0.74414  0.01145  Biso   1.000  S
  S175     1.0000 0.87510  0.68304  0.46864  Biso   1.000  S
  S176     1.0000 0.77116  0.65126  0.13373  Biso   1.000  S
  S177     1.0000 0.98323  0.63535  0.43390  Biso   1.000  S
  S178     1.0000 0.66478  0.51559  0.16260  Biso   1.000  S
  S179     1.0000 0.69785  0.58828  0.04206  Biso   1.000  S
  S180     1.0000 0.65450  0.55431  0.37275  Biso   1.000  S
  S181     1.0000 0.90960  0.57657  0.35230  Biso   1.000  S
  S182     1.0000 0.65146  0.49496  0.03490  Biso   1.000  S
  S183     1.0000 0.75367  0.49293  0.27174  Biso   1.000  S
  S184     1.0000 0.61900  0.57009  0.04014  Biso   1.000  S
  S185     1.0000 0.80255  0.63138  0.36275  Biso   1.000  S
  S186     1.0000 0.65877  0.69917  0.13724  Biso   1.000  S
  S187     1.0000 0.72812  0.57255  0.26133  Biso   1.000  S
  S188     1.0000 0.63116  0.78088  0.12689  Biso   1.000  S
  S189     1.0000 0.76942  0.68113  0.24461  Biso   1.000  S
  S190     1.0000 0.80529  0.60080  0.25571  Biso   1.000  S
  S191     1.0000 0.69291  0.65271  0.25403  Biso   1.000  S
  S192     1.0000 0.69376  0.62224  0.14428  Biso   1.000  S
  S193     1.0000 0.87681  0.66003  0.35365  Biso   1.000  S
  S194     1.0000 0.73035  0.54445  0.15384  Biso   1.000  S
  S195     1.0000 0.72471  0.60021  0.36533  Biso   1.000  S
  S196     1.0000 0.91122  0.61466  0.46009  Biso   1.000  S
  S197     1.0000 0.76974  0.71633  0.35441  Biso   1.000  S
  S198     1.0000 0.74240  0.75902  0.23086  Biso   1.000  S
  S199     1.0000 0.84054  0.58931  0.48218  Biso   1.000  S
  S200     1.0000 0.54903  0.72206  0.03616  Biso   1.000  S
  S201     1.0000 0.95978  0.70753  0.47159  Biso   1.000  S
  S202     1.0000 0.78742  0.65843  0.45471  Biso   1.000  S
  S203     1.0000 0.65731  0.73060  0.23381  Biso   1.000  S
  S204     1.0000 0.82787  0.52164  0.25387  Biso   1.000  S
  S205     1.0000 0.76926  0.55739  0.49627  Biso   1.000  S
  S206     1.0000 0.58554  0.67135  0.15561  Biso   1.000  S
  S207     1.0000 0.85249  0.73254  0.34988  Biso   1.000  S
  S208     1.0000 0.83957  0.54863  0.37649  Biso   1.000  S
  Cd97     1.0000 0.81145  0.64260  0.30238  Biso   1.000  Cd
  Cd98     1.0000 0.73719  0.61452  0.30932  Biso   1.000  Cd
  Cd99     1.0000 0.73929  0.58574  0.20402  Biso   1.000  Cd
  Cd100    1.0000 0.70517  0.66278  0.19687  Biso   1.000  Cd
  Cd101    1.0000 0.84817  0.59290  0.41723  Biso   1.000  Cd
  Cd102    1.0000 0.78342  0.72212  0.29926  Biso   1.000  Cd
  Cd103    1.0000 0.62939  0.63080  0.20573  Biso   1.000  Cd
  Cd104    1.0000 0.62778  0.60695  0.09803  Biso   1.000  Cd
  Cd105    1.0000 0.70873  0.63251  0.08940  Biso   1.000  Cd
  Cd106    1.0000 0.67749  0.74355  0.18516  Biso   1.000  Cd
  Cd107    1.0000 0.80476  0.67491  0.40434  Biso   1.000  Cd
  Cd108    1.0000 0.70630  0.69721  0.30145  Biso   1.000  Cd
  Cd109    1.0000 0.77352  0.53659  0.32476  Biso   1.000  Cd
  Cd110    1.0000 0.59403  0.68398  0.09551  Biso   1.000  Cd
  Cd111    1.0000 0.89159  0.69498  0.41689  Biso   1.000  Cd
  Cd112    1.0000 0.66221  0.70591  0.07017  Biso   1.000  Cd
  Cd113    1.0000 0.92036  0.61966  0.39696  Biso   1.000  Cd
  Cd114    1.0000 0.84462  0.56076  0.31358  Biso   1.000  Cd
  Cd115    1.0000 0.81664  0.61737  0.19899  Biso   1.000  Cd
  Cd116    1.0000 0.71822  0.64386  0.39683  Biso   1.000  Cd
  Cd117    1.0000 0.66205  0.55615  0.20561  Biso   1.000  Cd
  Cd118    1.0000 0.98404  0.68631  0.43375  Biso   1.000  Cd
  Cd119    1.0000 0.77674  0.57005  0.43433  Biso   1.000  Cd
  Cd120    1.0000 0.58616  0.76029  0.03964  Biso   1.000  Cd
  Cd121    1.0000 0.70634  0.57467  0.45756  Biso   1.000  Cd
  Cd122    1.0000 0.88323  0.68289  0.29607  Biso   1.000  Cd
  Cd123    1.0000 0.66276  0.53182  0.09316  Biso   1.000  Cd
  Cd124    1.0000 0.75008  0.55622  0.10517  Biso   1.000  Cd
  Cd125    1.0000 0.76327  0.50358  0.21165  Biso   1.000  Cd
  Cd126    1.0000 0.77512  0.69092  0.18007  Biso   1.000  Cd
  Cd127    1.0000 0.66459  0.57413  0.31646  Biso   1.000  Cd
  Cd128    1.0000 0.71257  0.52356  0.56809  Biso   1.000  Cd
  C673     1.0000 0.58311  0.72712  0.95541  Biso   1.000  C
  C674     1.0000 0.56984  0.73846  0.91039  Biso   1.000  C
  C675     1.0000 0.54126  0.72566  0.86552  Biso   1.000  C
  C676     1.0000 0.52594  0.70151  0.86567  Biso   1.000  C
  C677     1.0000 0.53920  0.69017  0.91069  Biso   1.000  C
  C678     1.0000 0.56778  0.70298  0.95556  Biso   1.000  C
  C679     1.0000 0.53357  0.73405  0.06691  Biso   1.000  C
  C680     1.0000 0.49501  0.73487  0.03794  Biso   1.000  C
  C681     1.0000 0.48123  0.74285  0.05999  Biso   1.000  C
  C682     1.0000 0.50542  0.74920  0.11224  Biso   1.000  C
  C683     1.0000 0.54414  0.74786  0.14064  Biso   1.000  C
  C684     1.0000 0.55796  0.73985  0.11809  Biso   1.000  C
  C685     1.0000 0.65333  0.80593  0.11783  Biso   1.000  C
  C686     1.0000 0.64237  0.83300  0.11300  Biso   1.000  C
  C687     1.0000 0.65712  0.85380  0.10390  Biso   1.000  C
  C688     1.0000 0.68520  0.84608  0.10455  Biso   1.000  C
  C689     1.0000 0.69570  0.81921  0.10694  Biso   1.000  C
  C690     1.0000 0.68008  0.79839  0.11559  Biso   1.000  C
  C691     1.0000 0.65864  0.76054  0.26286  Biso   1.000  C
  C692     1.0000 0.63650  0.78240  0.23353  Biso   1.000  C
  C693     1.0000 0.63555  0.80695  0.25407  Biso   1.000  C
  C694     1.0000 0.65811  0.80926  0.30516  Biso   1.000  C
  C695     1.0000 0.68070  0.78657  0.33733  Biso   1.000  C
  C696     1.0000 0.68019  0.76271  0.31466  Biso   1.000  C
  C697     1.0000 0.74103  0.79003  0.25758  Biso   1.000  C
  C698     1.0000 0.74701  0.81463  0.24265  Biso   1.000  C
  C699     1.0000 0.74278  0.84047  0.26328  Biso   1.000  C
  C700     1.0000 0.73674  0.83712  0.29563  Biso   1.000  C
  C701     1.0000 0.73311  0.81392  0.31016  Biso   1.000  C
  C702     1.0000 0.73539  0.78848  0.29035  Biso   1.000  C
  C703     1.0000 0.73218  0.74821  0.09433  Biso   1.000  C
  C704     1.0000 0.70627  0.75672  0.04654  Biso   1.000  C
  C705     1.0000 0.71319  0.77138  0.01802  Biso   1.000  C
  C706     1.0000 0.65987  0.67495  0.98484  Biso   1.000  C
  C707     1.0000 0.69895  0.67543  0.00255  Biso   1.000  C
  C708     1.0000 0.70185  0.68343  0.96554  Biso   1.000  C
  C709     1.0000 0.67244  0.68974  0.91655  Biso   1.000  C
  C710     1.0000 0.64388  0.69271  0.90393  Biso   1.000  C
  C711     1.0000 0.63742  0.68630  0.94496  Biso   1.000  C
  C712     1.0000 0.53552  0.63575  0.00290  Biso   1.000  C
  C713     1.0000 0.50982  0.65217  0.98283  Biso   1.000  C
  C714     1.0000 0.47186  0.64352  0.94800  Biso   1.000  C
  C715     1.0000 0.45971  0.61915  0.94880  Biso   1.000  C
  C716     1.0000 0.49052  0.59828  0.97895  Biso   1.000  C
  C717     1.0000 0.53002  0.60629  0.00512  Biso   1.000  C
  C718     1.0000 0.65910  0.52121  0.37293  Biso   1.000  C
  C719     1.0000 0.63308  0.50405  0.32755  Biso   1.000  C
  C720     1.0000 0.64014  0.47303  0.32465  Biso   1.000  C
  C721     1.0000 0.66969  0.46334  0.37288  Biso   1.000  C
  C722     1.0000 0.69524  0.47757  0.41625  Biso   1.000  C
  C723     1.0000 0.69065  0.50820  0.41378  Biso   1.000  C
  C724     1.0000 0.65538  0.57812  0.48798  Biso   1.000  C
  C725     1.0000 0.65588  0.60844  0.50704  Biso   1.000  C
  C726     1.0000 0.61677  0.62404  0.46440  Biso   1.000  C
  C727     1.0000 0.58632  0.59987  0.42989  Biso   1.000  C
  C728     1.0000 0.58891  0.57595  0.41679  Biso   1.000  C
  C729     1.0000 0.62736  0.56424  0.44629  Biso   1.000  C
  C730     1.0000 0.63521  0.48912  0.15388  Biso   1.000  C
  C731     1.0000 0.60551  0.48301  0.10419  Biso   1.000  C
  C732     1.0000 0.58222  0.45907  0.10110  Biso   1.000  C
  C733     1.0000 0.59822  0.44852  0.15038  Biso   1.000  C
  C734     1.0000 0.63231  0.45040  0.21149  Biso   1.000  C
  C735     1.0000 0.65397  0.47586  0.20816  Biso   1.000  C
  C736     1.0000 0.58776  0.62024  0.25840  Biso   1.000  C
  C737     1.0000 0.55713  0.62889  0.21270  Biso   1.000  C
  C738     1.0000 0.51909  0.63125  0.19801  Biso   1.000  C
  C739     1.0000 0.51026  0.61152  0.20846  Biso   1.000  C
  C740     1.0000 0.53346  0.59020  0.23555  Biso   1.000  C
  C741     1.0000 0.57086  0.59181  0.25873  Biso   1.000  C
  C742     1.0000 0.65155  0.69989  0.33463  Biso   1.000  C
  C743     1.0000 0.62317  0.69610  0.28532  Biso   1.000  C
  C744     1.0000 0.58709  0.70587  0.26168  Biso   1.000  C
  C745     1.0000 0.58170  0.71794  0.29060  Biso   1.000  C
  C746     1.0000 0.60807  0.72189  0.33912  Biso   1.000  C
  C747     1.0000 0.64626  0.71260  0.36571  Biso   1.000  C
  C748     1.0000 0.86181  0.76510  0.37843  Biso   1.000  C
  C749     1.0000 0.83279  0.78245  0.36473  Biso   1.000  C
  C750     1.0000 0.84084  0.80808  0.38829  Biso   1.000  C
  C751     1.0000 0.87831  0.81797  0.42206  Biso   1.000  C
  C752     1.0000 0.90484  0.80008  0.43541  Biso   1.000  C
  C753     1.0000 0.89850  0.77417  0.41479  Biso   1.000  C
  C754     1.0000 0.84651  0.71601  0.18890  Biso   1.000  C
  C755     1.0000 0.84395  0.69354  0.16628  Biso   1.000  C
  C756     1.0000 0.85457  0.69345  0.13519  Biso   1.000  C
  C757     1.0000 0.86337  0.71727  0.12677  Biso   1.000  C
  C758     1.0000 0.86509  0.73934  0.14714  Biso   1.000  C
  C759     1.0000 0.85138  0.74051  0.17599  Biso   1.000  C
  C760     1.0000 0.70548  0.59895  0.00026  Biso   1.000  C
  C761     1.0000 0.71411  0.62908  0.00025  Biso   1.000  C
  C762     1.0000 0.71808  0.63803  0.96356  Biso   1.000  C
  C763     1.0000 0.73326  0.61680  0.94636  Biso   1.000  C
  C764     1.0000 0.73580  0.59125  0.96637  Biso   1.000  C
  C765     1.0000 0.72515  0.58380  0.99424  Biso   1.000  C
  C766     1.0000 0.57483  0.55291  0.01539  Biso   1.000  C
  C767     1.0000 0.56160  0.54840  0.96785  Biso   1.000  C
  C768     1.0000 0.52535  0.53824  0.93047  Biso   1.000  C
  C769     1.0000 0.51154  0.53368  0.95230  Biso   1.000  C
  C770     1.0000 0.57074  0.54530  0.04763  Biso   1.000  C
  C771     1.0000 0.62449  0.50479  0.97459  Biso   1.000  C
  C772     1.0000 0.58709  0.49321  0.93941  Biso   1.000  C
  C773     1.0000 0.57391  0.50651  0.88056  Biso   1.000  C
  C774     1.0000 0.59148  0.52853  0.88482  Biso   1.000  C
  C775     1.0000 0.62383  0.53823  0.92125  Biso   1.000  C
  C776     1.0000 0.64011  0.52721  0.96613  Biso   1.000  C
  C777     1.0000 0.61835  0.47445  0.01976  Biso   1.000  C
  C778     1.0000 0.58295  0.48349  0.99107  Biso   1.000  C
  C779     1.0000 0.55251  0.45767  0.97683  Biso   1.000  C
  C780     1.0000 0.57002  0.43968  0.00154  Biso   1.000  C
  C781     1.0000 0.60461  0.42866  0.03460  Biso   1.000  C
  C782     1.0000 0.62695  0.44670  0.03739  Biso   1.000  C
  C783     1.0000 0.59994  0.53495  0.21358  Biso   1.000  C
  C784     1.0000 0.57710  0.50672  0.18182  Biso   1.000  C
  C785     1.0000 0.54126  0.50901  0.17015  Biso   1.000  C
  C786     1.0000 0.52106  0.53353  0.14372  Biso   1.000  C
  C787     1.0000 0.53507  0.55669  0.16613  Biso   1.000  C
  C788     1.0000 0.57768  0.55865  0.20327  Biso   1.000  C
  C789     1.0000 0.70073  0.64440  0.48049  Biso   1.000  C
  C790     1.0000 0.67569  0.66572  0.46558  Biso   1.000  C
  C791     1.0000 0.68575  0.68330  0.50854  Biso   1.000  C
  C792     1.0000 0.71424  0.67599  0.55661  Biso   1.000  C
  C793     1.0000 0.73752  0.65308  0.57043  Biso   1.000  C
  C794     1.0000 0.73066  0.63771  0.53129  Biso   1.000  C
  C795     1.0000 0.78684  0.68839  0.48304  Biso   1.000  C
  C796     1.0000 0.77251  0.68482  0.50712  Biso   1.000  C
  C797     1.0000 0.77245  0.70815  0.53210  Biso   1.000  C
  C798     1.0000 0.78853  0.73213  0.53590  Biso   1.000  C
  C799     1.0000 0.80264  0.73568  0.51151  Biso   1.000  C
  C800     1.0000 0.80125  0.71314  0.48516  Biso   1.000  C
  C801     1.0000 0.88374  0.71515  0.49920  Biso   1.000  C
  C802     1.0000 0.90946  0.71522  0.55157  Biso   1.000  C
  C803     1.0000 0.91534  0.74129  0.57613  Biso   1.000  C
  C804     1.0000 0.89840  0.76404  0.54951  Biso   1.000  C
  C805     1.0000 0.87386  0.76435  0.49784  Biso   1.000  C
  C806     1.0000 0.86615  0.73893  0.47279  Biso   1.000  C
  C807     1.0000 0.94360  0.74132  0.35310  Biso   1.000  C
  C808     1.0000 0.96847  0.75446  0.39606  Biso   1.000  C
  C809     1.0000 0.96634  0.78354  0.39954  Biso   1.000  C
  C810     1.0000 0.94056  0.79806  0.35927  Biso   1.000  C
  C811     1.0000 0.91831  0.78413  0.31364  Biso   1.000  C
  C812     1.0000 0.91989  0.75478  0.30768  Biso   1.000  C
  C813     1.0000 0.90803  0.63511  0.24500  Biso   1.000  C
  C814     1.0000 0.93684  0.65058  0.26749  Biso   1.000  C
  C815     1.0000 0.95332  0.65832  0.23716  Biso   1.000  C
  C816     1.0000 0.94751  0.63463  0.21206  Biso   1.000  C
  C817     1.0000 0.92216  0.61768  0.19674  Biso   1.000  C
  C818     1.0000 0.90014  0.62142  0.21016  Biso   1.000  C
  C819     1.0000 0.82259  0.58452  0.11770  Biso   1.000  C
  C820     1.0000 0.81193  0.60896  0.09476  Biso   1.000  C
  C821     1.0000 0.82038  0.61819  0.06276  Biso   1.000  C
  C822     1.0000 0.84009  0.59773  0.06138  Biso   1.000  C
  C823     1.0000 0.85315  0.57476  0.08617  Biso   1.000  C
  C824     1.0000 0.84515  0.56675  0.11684  Biso   1.000  C
  C825     1.0000 0.78952  0.50480  0.09062  Biso   1.000  C
  C826     1.0000 0.80159  0.50268  0.06373  Biso   1.000  C
  C827     1.0000 0.83752  0.49461  0.08872  Biso   1.000  C
  C828     1.0000 0.86213  0.49078  0.13918  Biso   1.000  C
  C829     1.0000 0.85132  0.49281  0.16738  Biso   1.000  C
  C830     1.0000 0.81390  0.49941  0.14191  Biso   1.000  C
  C831     1.0000 0.72357  0.43834  0.15430  Biso   1.000  C
  C832     1.0000 0.72411  0.41166  0.13589  Biso   1.000  C
  C833     1.0000 0.70101  0.39072  0.13244  Biso   1.000  C
  C834     1.0000 0.68011  0.39583  0.14583  Biso   1.000  C
  C835     1.0000 0.67891  0.42291  0.16123  Biso   1.000  C
  C836     1.0000 0.70176  0.44390  0.16322  Biso   1.000  C
  C837     1.0000 0.78592  0.46780  0.30885  Biso   1.000  C
  C838     1.0000 0.77264  0.43999  0.29387  Biso   1.000  C
  C839     1.0000 0.79507  0.41784  0.32787  Biso   1.000  C
  C840     1.0000 0.83262  0.42665  0.38532  Biso   1.000  C
  C841     1.0000 0.83696  0.45353  0.39735  Biso   1.000  C
  C842     1.0000 0.81651  0.47385  0.37226  Biso   1.000  C
  C843     1.0000 0.76942  0.49828  0.40262  Biso   1.000  C
  C844     1.0000 0.74232  0.47919  0.35812  Biso   1.000  C
  C845     1.0000 0.80138  0.44870  0.45320  Biso   1.000  C
  C846     1.0000 0.80318  0.46524  0.47246  Biso   1.000  C
  C847     1.0000 0.79236  0.49544  0.44621  Biso   1.000  C
  C848     1.0000 0.79574  0.58001  0.54852  Biso   1.000  C
  C849     1.0000 0.80550  0.56993  0.59299  Biso   1.000  C
  C850     1.0000 0.82356  0.58690  0.63523  Biso   1.000  C
  C851     1.0000 0.83897  0.61292  0.63487  Biso   1.000  C
  C852     1.0000 0.82751  0.62268  0.58918  Biso   1.000  C
  C853     1.0000 0.80595  0.60617  0.54697  Biso   1.000  C
  C854     1.0000 0.86768  0.56137  0.52425  Biso   1.000  C
  C855     1.0000 0.87033  0.53720  0.50832  Biso   1.000  C
  C856     1.0000 0.89255  0.51494  0.54266  Biso   1.000  C
  C857     1.0000 0.91158  0.52252  0.59441  Biso   1.000  C
  C858     1.0000 0.90934  0.54560  0.60928  Biso   1.000  C
  C859     1.0000 0.88586  0.56613  0.57575  Biso   1.000  C
  C860     1.0000 0.94299  0.59225  0.50827  Biso   1.000  C
  C861     1.0000 0.93719  0.57332  0.52227  Biso   1.000  C
  C862     1.0000 0.96412  0.55701  0.56703  Biso   1.000  C
  C863     1.0000 0.99517  0.56590  0.59819  Biso   1.000  C
  C864     1.0000 0.00571  0.58920  0.59985  Biso   1.000  C
  C865     1.0000 0.97653  0.60746  0.54182  Biso   1.000  C
  C866     1.0000 0.98806  0.69105  0.53128  Biso   1.000  C
  C867     1.0000 0.97216  0.67661  0.54583  Biso   1.000  C
  C868     1.0000 0.99750  0.66478  0.59475  Biso   1.000  C
  C869     1.0000 0.03461  0.66665  0.62535  Biso   1.000  C
  C870     1.0000 0.04945  0.68187  0.60989  Biso   1.000  C
  C871     1.0000 0.02618  0.69427  0.56255  Biso   1.000  C
  C872     1.0000 0.53258  0.63164  0.09807  Biso   1.000  C
  C873     1.0000 0.53846  0.65850  0.11392  Biso   1.000  C
  C874     1.0000 0.51155  0.67654  0.10342  Biso   1.000  C
  C875     1.0000 0.47466  0.66698  0.07292  Biso   1.000  C
  C876     1.0000 0.46531  0.64101  0.05141  Biso   1.000  C
  C877     1.0000 0.49256  0.62106  0.06460  Biso   1.000  C
  C878     1.0000 0.06652  0.68855  0.45477  Biso   1.000  C
  C879     1.0000 0.10442  0.68231  0.48270  Biso   1.000  C
  C880     1.0000 0.11987  0.67572  0.46050  Biso   1.000  C
  C881     1.0000 0.09111  0.67415  0.40507  Biso   1.000  C
  C882     1.0000 0.05679  0.68193  0.37911  Biso   1.000  C
  C883     1.0000 0.04337  0.69029  0.40485  Biso   1.000  C
  C884     1.0000 0.00762  0.62297  0.42362  Biso   1.000  C
  C885     1.0000 0.04836  0.62302  0.45978  Biso   1.000  C
  C886     1.0000 0.06675  0.61359  0.44396  Biso   1.000  C
  C887     1.0000 0.04049  0.60583  0.38493  Biso   1.000  C
  C888     1.0000 0.00125  0.61182  0.34968  Biso   1.000  C
  C889     1.0000 0.99021  0.62087  0.36683  Biso   1.000  C
  C890     1.0000 0.85868  0.49422  0.28876  Biso   1.000  C
  C891     1.0000 0.88901  0.49650  0.33679  Biso   1.000  C
  C892     1.0000 0.92157  0.47570  0.36425  Biso   1.000  C
  C893     1.0000 0.90882  0.45217  0.33721  Biso   1.000  C
  C894     1.0000 0.87676  0.44800  0.28958  Biso   1.000  C
  C895     1.0000 0.85464  0.47035  0.26673  Biso   1.000  C
  C896     1.0000 0.94320  0.55340  0.41490  Biso   1.000  C
  S209     1.0000 0.86866  0.87977  0.72156  Biso   1.000  S
  S210     1.0000 0.74675  0.03770  0.84089  Biso   1.000  S
  S211     1.0000 0.74727  0.97003  0.62553  Biso   1.000  S
  S212     1.0000 0.80700  0.87505  0.56507  Biso   1.000  S
  S213     1.0000 0.85048  0.96416  0.74095  Biso   1.000  S
  S214     1.0000 0.91537  0.85390  0.96062  Biso   1.000  S
  S215     1.0000 0.61649  0.86458  0.73444  Biso   1.000  S
  S216     1.0000 0.75748  0.98579  0.94377  Biso   1.000  S
  S217     1.0000 0.77451  0.77226  0.87379  Biso   1.000  S
  S218     1.0000 0.84662  0.83694  0.97605  Biso   1.000  S
  S219     1.0000 0.55292  0.79552  0.65389  Biso   1.000  S
  S220     1.0000 0.68445  0.92687  0.84072  Biso   1.000  S
  S221     1.0000 0.80044  0.93229  0.47878  Biso   1.000  S
  S222     1.0000 0.66332  0.78357  0.77088  Biso   1.000  S
  S223     1.0000 0.44744  0.80385  0.51064  Biso   1.000  S
  S224     1.0000 0.80212  0.80793  0.63499  Biso   1.000  S
  S225     1.0000 0.88545  0.90844  0.84909  Biso   1.000  S
  S226     1.0000 0.88057  0.75586  0.98855  Biso   1.000  S
  S227     1.0000 0.62490  0.81696  0.53136  Biso   1.000  S
  S228     1.0000 0.72884  0.84874  0.86627  Biso   1.000  S
  S229     1.0000 0.51677  0.86465  0.56610  Biso   1.000  S
  S230     1.0000 0.83522  0.98441  0.83740  Biso   1.000  S
  S231     1.0000 0.80215  0.91172  0.95794  Biso   1.000  S
  S232     1.0000 0.84550  0.94569  0.62725  Biso   1.000  S
  S233     1.0000 0.59040  0.92343  0.64770  Biso   1.000  S
  S234     1.0000 0.84854  0.00504  0.96510  Biso   1.000  S
  S235     1.0000 0.74633  0.00707  0.72826  Biso   1.000  S
  S236     1.0000 0.88100  0.92991  0.95986  Biso   1.000  S
  S237     1.0000 0.69745  0.86862  0.63725  Biso   1.000  S
  S238     1.0000 0.84123  0.80083  0.86276  Biso   1.000  S
  S239     1.0000 0.77188  0.92745  0.73867  Biso   1.000  S
  S240     1.0000 0.86884  0.71912  0.87311  Biso   1.000  S
  S241     1.0000 0.73058  0.81887  0.75539  Biso   1.000  S
  S242     1.0000 0.69471  0.89920  0.74429  Biso   1.000  S
  S243     1.0000 0.80709  0.84729  0.74597  Biso   1.000  S
  S244     1.0000 0.80624  0.87776  0.85572  Biso   1.000  S
  S245     1.0000 0.62319  0.83997  0.64635  Biso   1.000  S
  S246     1.0000 0.76965  0.95555  0.84616  Biso   1.000  S
  S247     1.0000 0.77529  0.89979  0.63467  Biso   1.000  S
  S248     1.0000 0.58878  0.88534  0.53991  Biso   1.000  S
  S249     1.0000 0.73026  0.78367  0.64559  Biso   1.000  S
  S250     1.0000 0.75760  0.74098  0.76914  Biso   1.000  S
  S251     1.0000 0.65946  0.91069  0.51782  Biso   1.000  S
  S252     1.0000 0.95097  0.77794  0.96384  Biso   1.000  S
  S253     1.0000 0.54022  0.79247  0.52841  Biso   1.000  S
  S254     1.0000 0.71258  0.84157  0.54529  Biso   1.000  S
  S255     1.0000 0.84269  0.76940  0.76619  Biso   1.000  S
  S256     1.0000 0.67213  0.97836  0.74613  Biso   1.000  S
  S257     1.0000 0.73074  0.94261  0.50373  Biso   1.000  S
  S258     1.0000 0.91446  0.82865  0.84439  Biso   1.000  S
  S259     1.0000 0.64751  0.76746  0.65012  Biso   1.000  S
  S260     1.0000 0.66043  0.95137  0.62351  Biso   1.000  S
  Cd129    1.0000 0.68855  0.85740  0.69762  Biso   1.000  Cd
  Cd130    1.0000 0.76281  0.88548  0.69068  Biso   1.000  Cd
  Cd131    1.0000 0.76071  0.91426  0.79598  Biso   1.000  Cd
  Cd132    1.0000 0.79483  0.83722  0.80313  Biso   1.000  Cd
  Cd133    1.0000 0.65183  0.90710  0.58277  Biso   1.000  Cd
  Cd134    1.0000 0.71658  0.77788  0.70074  Biso   1.000  Cd
  Cd135    1.0000 0.87061  0.86920  0.79427  Biso   1.000  Cd
  Cd136    1.0000 0.87222  0.89305  0.90197  Biso   1.000  Cd
  Cd137    1.0000 0.79127  0.86749  0.91060  Biso   1.000  Cd
  Cd138    1.0000 0.82251  0.75645  0.81484  Biso   1.000  Cd
  Cd139    1.0000 0.69524  0.82509  0.59566  Biso   1.000  Cd
  Cd140    1.0000 0.79370  0.80279  0.69855  Biso   1.000  Cd
  Cd141    1.0000 0.72648  0.96341  0.67524  Biso   1.000  Cd
  Cd142    1.0000 0.90597  0.81602  0.90449  Biso   1.000  Cd
  Cd143    1.0000 0.60841  0.80502  0.58311  Biso   1.000  Cd
  Cd144    1.0000 0.83779  0.79409  0.92983  Biso   1.000  Cd
  Cd145    1.0000 0.57964  0.88034  0.60304  Biso   1.000  Cd
  Cd146    1.0000 0.65538  0.93924  0.68642  Biso   1.000  Cd
  Cd147    1.0000 0.68336  0.88263  0.80101  Biso   1.000  Cd
  Cd148    1.0000 0.78178  0.85614  0.60317  Biso   1.000  Cd
  Cd149    1.0000 0.83795  0.94385  0.79439  Biso   1.000  Cd
  Cd150    1.0000 0.51596  0.81369  0.56625  Biso   1.000  Cd
  Cd151    1.0000 0.72326  0.92995  0.56567  Biso   1.000  Cd
  Cd152    1.0000 0.91384  0.73971  0.96036  Biso   1.000  Cd
  Cd153    1.0000 0.79366  0.92533  0.54244  Biso   1.000  Cd
  Cd154    1.0000 0.61677  0.81711  0.70393  Biso   1.000  Cd
  Cd155    1.0000 0.83724  0.96818  0.90684  Biso   1.000  Cd
  Cd156    1.0000 0.74992  0.94378  0.89483  Biso   1.000  Cd
  Cd157    1.0000 0.73673  0.99642  0.78835  Biso   1.000  Cd
  Cd158    1.0000 0.72488  0.80908  0.81993  Biso   1.000  Cd
  Cd159    1.0000 0.83541  0.92587  0.68354  Biso   1.000  Cd
  Cd160    1.0000 0.78743  0.97644  0.43191  Biso   1.000  Cd
  C897     1.0000 0.91689  0.77288  0.04459  Biso   1.000  C
  C898     1.0000 0.93016  0.76154  0.08961  Biso   1.000  C
  C899     1.0000 0.95874  0.77434  0.13448  Biso   1.000  C
  C900     1.0000 0.97406  0.79849  0.13433  Biso   1.000  C
  C901     1.0000 0.96080  0.80983  0.08931  Biso   1.000  C
  C902     1.0000 0.93222  0.79702  0.04444  Biso   1.000  C
  C903     1.0000 0.96643  0.76595  0.93309  Biso   1.000  C
  C904     1.0000 0.00499  0.76513  0.96206  Biso   1.000  C
  C905     1.0000 0.01877  0.75715  0.94001  Biso   1.000  C
  C906     1.0000 0.99458  0.75080  0.88776  Biso   1.000  C
  C907     1.0000 0.95586  0.75214  0.85936  Biso   1.000  C
  C908     1.0000 0.94204  0.76015  0.88191  Biso   1.000  C
  C909     1.0000 0.84667  0.69407  0.88217  Biso   1.000  C
  C910     1.0000 0.85763  0.66700  0.88700  Biso   1.000  C
  C911     1.0000 0.84288  0.64620  0.89610  Biso   1.000  C
  C912     1.0000 0.81480  0.65392  0.89545  Biso   1.000  C
  C913     1.0000 0.80430  0.68079  0.89306  Biso   1.000  C
  C914     1.0000 0.81992  0.70161  0.88441  Biso   1.000  C
  C915     1.0000 0.84136  0.73946  0.73714  Biso   1.000  C
  C916     1.0000 0.86350  0.71760  0.76647  Biso   1.000  C
  C917     1.0000 0.86445  0.69305  0.74593  Biso   1.000  C
  C918     1.0000 0.84189  0.69074  0.69484  Biso   1.000  C
  C919     1.0000 0.81930  0.71343  0.66267  Biso   1.000  C
  C920     1.0000 0.81981  0.73729  0.68534  Biso   1.000  C
  C921     1.0000 0.75897  0.70997  0.74242  Biso   1.000  C
  C922     1.0000 0.75299  0.68537  0.75735  Biso   1.000  C
  C923     1.0000 0.75722  0.65953  0.73672  Biso   1.000  C
  C924     1.0000 0.76326  0.66288  0.70437  Biso   1.000  C
  C925     1.0000 0.76689  0.68608  0.68984  Biso   1.000  C
  C926     1.0000 0.76461  0.71152  0.70965  Biso   1.000  C
  C927     1.0000 0.76782  0.75179  0.90567  Biso   1.000  C
  C928     1.0000 0.79373  0.74328  0.95346  Biso   1.000  C
  C929     1.0000 0.78681  0.72862  0.98198  Biso   1.000  C
  C930     1.0000 0.84013  0.82505  0.01516  Biso   1.000  C
  C931     1.0000 0.80105  0.82457  0.99745  Biso   1.000  C
  C932     1.0000 0.79815  0.81657  0.03446  Biso   1.000  C
  C933     1.0000 0.82756  0.81026  0.08345  Biso   1.000  C
  C934     1.0000 0.85612  0.80729  0.09607  Biso   1.000  C
  C935     1.0000 0.86258  0.81370  0.05504  Biso   1.000  C
  C936     1.0000 0.96448  0.86425  0.99710  Biso   1.000  C
  C937     1.0000 0.99018  0.84783  0.01717  Biso   1.000  C
  C938     1.0000 0.02814  0.85648  0.05200  Biso   1.000  C
  C939     1.0000 0.04029  0.88085  0.05120  Biso   1.000  C
  C940     1.0000 0.00948  0.90172  0.02105  Biso   1.000  C
  C941     1.0000 0.96998  0.89371  0.99488  Biso   1.000  C
  C942     1.0000 0.84090  0.97879  0.62707  Biso   1.000  C
  C943     1.0000 0.86692  0.99595  0.67245  Biso   1.000  C
  C944     1.0000 0.85986  0.02697  0.67535  Biso   1.000  C
  C945     1.0000 0.83031  0.03666  0.62712  Biso   1.000  C
  C946     1.0000 0.80476  0.02243  0.58375  Biso   1.000  C
  C947     1.0000 0.80935  0.99180  0.58622  Biso   1.000  C
  C948     1.0000 0.84462  0.92188  0.51202  Biso   1.000  C
  C949     1.0000 0.84412  0.89156  0.49296  Biso   1.000  C
  C950     1.0000 0.88323  0.87596  0.53560  Biso   1.000  C
  C951     1.0000 0.91368  0.90013  0.57011  Biso   1.000  C
  C952     1.0000 0.91109  0.92405  0.58321  Biso   1.000  C
  C953     1.0000 0.87264  0.93576  0.55371  Biso   1.000  C
  C954     1.0000 0.86479  0.01088  0.84612  Biso   1.000  C
  C955     1.0000 0.89449  0.01699  0.89581  Biso   1.000  C
  C956     1.0000 0.91778  0.04093  0.89890  Biso   1.000  C
  C957     1.0000 0.90178  0.05148  0.84962  Biso   1.000  C
  C958     1.0000 0.86769  0.04960  0.78851  Biso   1.000  C
  C959     1.0000 0.84603  0.02414  0.79184  Biso   1.000  C
  C960     1.0000 0.91224  0.87976  0.74160  Biso   1.000  C
  C961     1.0000 0.94287  0.87111  0.78730  Biso   1.000  C
  C962     1.0000 0.98091  0.86875  0.80199  Biso   1.000  C
  C963     1.0000 0.98974  0.88848  0.79154  Biso   1.000  C
  C964     1.0000 0.96654  0.90980  0.76445  Biso   1.000  C
  C965     1.0000 0.92914  0.90819  0.74127  Biso   1.000  C
  C966     1.0000 0.84845  0.80011  0.66537  Biso   1.000  C
  C967     1.0000 0.87683  0.80390  0.71468  Biso   1.000  C
  C968     1.0000 0.91291  0.79413  0.73832  Biso   1.000  C
  C969     1.0000 0.91830  0.78206  0.70940  Biso   1.000  C
  C970     1.0000 0.89193  0.77811  0.66088  Biso   1.000  C
  C971     1.0000 0.85374  0.78740  0.63429  Biso   1.000  C
  C972     1.0000 0.63819  0.73490  0.62157  Biso   1.000  C
  C973     1.0000 0.66721  0.71755  0.63527  Biso   1.000  C
  C974     1.0000 0.65916  0.69192  0.61171  Biso   1.000  C
  C975     1.0000 0.62169  0.68203  0.57794  Biso   1.000  C
  C976     1.0000 0.59516  0.69992  0.56459  Biso   1.000  C
  C977     1.0000 0.60150  0.72583  0.58521  Biso   1.000  C
  C978     1.0000 0.65349  0.78399  0.81110  Biso   1.000  C
  C979     1.0000 0.65605  0.80646  0.83372  Biso   1.000  C
  C980     1.0000 0.64543  0.80655  0.86481  Biso   1.000  C
  C981     1.0000 0.63663  0.78273  0.87323  Biso   1.000  C
  C982     1.0000 0.63491  0.76066  0.85286  Biso   1.000  C
  C983     1.0000 0.64862  0.75949  0.82401  Biso   1.000  C
  C984     1.0000 0.79452  0.90105  0.99974  Biso   1.000  C
  C985     1.0000 0.78589  0.87092  0.99975  Biso   1.000  C
  C986     1.0000 0.78192  0.86197  0.03644  Biso   1.000  C
  C987     1.0000 0.76674  0.88320  0.05364  Biso   1.000  C
  C988     1.0000 0.76420  0.90875  0.03363  Biso   1.000  C
  C989     1.0000 0.77485  0.91620  0.00576  Biso   1.000  C
  C990     1.0000 0.92517  0.94709  0.98461  Biso   1.000  C
  C991     1.0000 0.93840  0.95160  0.03215  Biso   1.000  C
  C992     1.0000 0.97465  0.96176  0.06953  Biso   1.000  C
  C993     1.0000 0.98846  0.96632  0.04770  Biso   1.000  C
  C994     1.0000 0.92926  0.95470  0.95237  Biso   1.000  C
  C995     1.0000 0.87551  0.99521  0.02541  Biso   1.000  C
  C996     1.0000 0.91291  0.00679  0.06059  Biso   1.000  C
  C997     1.0000 0.92609  0.99349  0.11944  Biso   1.000  C
  C998     1.0000 0.90852  0.97147  0.11518  Biso   1.000  C
  C999     1.0000 0.87617  0.96177  0.07875  Biso   1.000  C
  C1000    1.0000 0.85989  0.97279  0.03387  Biso   1.000  C
  C1001    1.0000 0.88165  0.02555  0.98024  Biso   1.000  C
  C1002    1.0000 0.91705  0.01651  0.00893  Biso   1.000  C
  C1003    1.0000 0.94749  0.04233  0.02317  Biso   1.000  C
  C1004    1.0000 0.92998  0.06032  0.99846  Biso   1.000  C
  C1005    1.0000 0.89539  0.07134  0.96540  Biso   1.000  C
  C1006    1.0000 0.87305  0.05330  0.96261  Biso   1.000  C
  C1007    1.0000 0.90006  0.96505  0.78642  Biso   1.000  C
  C1008    1.0000 0.92290  0.99328  0.81818  Biso   1.000  C
  C1009    1.0000 0.95874  0.99099  0.82985  Biso   1.000  C
  C1010    1.0000 0.97894  0.96647  0.85628  Biso   1.000  C
  C1011    1.0000 0.96493  0.94331  0.83387  Biso   1.000  C
  C1012    1.0000 0.92232  0.94135  0.79673  Biso   1.000  C
  C1013    1.0000 0.79927  0.85560  0.51951  Biso   1.000  C
  C1014    1.0000 0.82431  0.83428  0.53442  Biso   1.000  C
  C1015    1.0000 0.81425  0.81670  0.49146  Biso   1.000  C
  C1016    1.0000 0.78576  0.82401  0.44339  Biso   1.000  C
  C1017    1.0000 0.76248  0.84692  0.42957  Biso   1.000  C
  C1018    1.0000 0.76934  0.86229  0.46871  Biso   1.000  C
  C1019    1.0000 0.71316  0.81161  0.51696  Biso   1.000  C
  C1020    1.0000 0.72749  0.81518  0.49288  Biso   1.000  C
  C1021    1.0000 0.72755  0.79185  0.46790  Biso   1.000  C
  C1022    1.0000 0.71147  0.76787  0.46410  Biso   1.000  C
  C1023    1.0000 0.69736  0.76432  0.48849  Biso   1.000  C
  C1024    1.0000 0.69875  0.78686  0.51484  Biso   1.000  C
  C1025    1.0000 0.61626  0.78485  0.50080  Biso   1.000  C
  C1026    1.0000 0.59054  0.78478  0.44843  Biso   1.000  C
  C1027    1.0000 0.58466  0.75871  0.42387  Biso   1.000  C
  C1028    1.0000 0.60160  0.73596  0.45049  Biso   1.000  C
  C1029    1.0000 0.62614  0.73565  0.50216  Biso   1.000  C
  C1030    1.0000 0.63385  0.76107  0.52721  Biso   1.000  C
  C1031    1.0000 0.55640  0.75868  0.64690  Biso   1.000  C
  C1032    1.0000 0.53153  0.74554  0.60394  Biso   1.000  C
  C1033    1.0000 0.53366  0.71646  0.60046  Biso   1.000  C
  C1034    1.0000 0.55944  0.70194  0.64073  Biso   1.000  C
  C1035    1.0000 0.58169  0.71587  0.68636  Biso   1.000  C
  C1036    1.0000 0.58011  0.74522  0.69232  Biso   1.000  C
  C1037    1.0000 0.59197  0.86489  0.75500  Biso   1.000  C
  C1038    1.0000 0.56316  0.84942  0.73251  Biso   1.000  C
  C1039    1.0000 0.54668  0.84168  0.76284  Biso   1.000  C
  C1040    1.0000 0.55249  0.86537  0.78794  Biso   1.000  C
  C1041    1.0000 0.57784  0.88232  0.80326  Biso   1.000  C
  C1042    1.0000 0.59986  0.87858  0.78984  Biso   1.000  C
  C1043    1.0000 0.67741  0.91548  0.88230  Biso   1.000  C
  C1044    1.0000 0.68807  0.89104  0.90524  Biso   1.000  C
  C1045    1.0000 0.67962  0.88181  0.93724  Biso   1.000  C
  C1046    1.0000 0.65991  0.90227  0.93862  Biso   1.000  C
  C1047    1.0000 0.64685  0.92524  0.91383  Biso   1.000  C
  C1048    1.0000 0.65485  0.93325  0.88316  Biso   1.000  C
  C1049    1.0000 0.71048  0.99520  0.90938  Biso   1.000  C
  C1050    1.0000 0.69841  0.99732  0.93627  Biso   1.000  C
  C1051    1.0000 0.66248  0.00539  0.91128  Biso   1.000  C
  C1052    1.0000 0.63787  0.00922  0.86082  Biso   1.000  C
  C1053    1.0000 0.64868  0.00719  0.83262  Biso   1.000  C
  C1054    1.0000 0.68610  0.00059  0.85809  Biso   1.000  C
  C1055    1.0000 0.77643  0.06166  0.84570  Biso   1.000  C
  C1056    1.0000 0.77589  0.08834  0.86411  Biso   1.000  C
  C1057    1.0000 0.79899  0.10928  0.86756  Biso   1.000  C
  C1058    1.0000 0.81989  0.10417  0.85417  Biso   1.000  C
  C1059    1.0000 0.82109  0.07709  0.83877  Biso   1.000  C
  C1060    1.0000 0.79824  0.05610  0.83678  Biso   1.000  C
  C1061    1.0000 0.71408  0.03220  0.69115  Biso   1.000  C
  C1062    1.0000 0.72736  0.06001  0.70613  Biso   1.000  C
  C1063    1.0000 0.70493  0.08216  0.67213  Biso   1.000  C
  C1064    1.0000 0.66738  0.07335  0.61468  Biso   1.000  C
  C1065    1.0000 0.66304  0.04647  0.60265  Biso   1.000  C
  C1066    1.0000 0.68349  0.02615  0.62774  Biso   1.000  C
  C1067    1.0000 0.73058  0.00172  0.59738  Biso   1.000  C
  C1068    1.0000 0.75768  0.02081  0.64188  Biso   1.000  C
  C1069    1.0000 0.69862  0.05130  0.54680  Biso   1.000  C
  C1070    1.0000 0.69682  0.03476  0.52754  Biso   1.000  C
  C1071    1.0000 0.70764  0.00456  0.55379  Biso   1.000  C
  C1072    1.0000 0.70426  0.91999  0.45148  Biso   1.000  C
  C1073    1.0000 0.69450  0.93007  0.40701  Biso   1.000  C
  C1074    1.0000 0.67644  0.91310  0.36477  Biso   1.000  C
  C1075    1.0000 0.66103  0.88708  0.36513  Biso   1.000  C
  C1076    1.0000 0.67249  0.87732  0.41082  Biso   1.000  C
  C1077    1.0000 0.69405  0.89383  0.45303  Biso   1.000  C
  C1078    1.0000 0.63232  0.93863  0.47575  Biso   1.000  C
  C1079    1.0000 0.62967  0.96280  0.49168  Biso   1.000  C
  C1080    1.0000 0.60745  0.98506  0.45734  Biso   1.000  C
  C1081    1.0000 0.58842  0.97748  0.40559  Biso   1.000  C
  C1082    1.0000 0.59066  0.95440  0.39072  Biso   1.000  C
  C1083    1.0000 0.61414  0.93387  0.42425  Biso   1.000  C
  C1084    1.0000 0.55701  0.90775  0.49173  Biso   1.000  C
  C1085    1.0000 0.56281  0.92668  0.47773  Biso   1.000  C
  C1086    1.0000 0.53588  0.94299  0.43297  Biso   1.000  C
  C1087    1.0000 0.50483  0.93410  0.40181  Biso   1.000  C
  C1088    1.0000 0.49429  0.91080  0.40015  Biso   1.000  C
  C1089    1.0000 0.52347  0.89254  0.45818  Biso   1.000  C
  C1090    1.0000 0.51194  0.80895  0.46872  Biso   1.000  C
  C1091    1.0000 0.52784  0.82339  0.45417  Biso   1.000  C
  C1092    1.0000 0.50250  0.83522  0.40525  Biso   1.000  C
  C1093    1.0000 0.46539  0.83335  0.37465  Biso   1.000  C
  C1094    1.0000 0.45055  0.81813  0.39011  Biso   1.000  C
  C1095    1.0000 0.47382  0.80573  0.43745  Biso   1.000  C
  C1096    1.0000 0.96742  0.86836  0.90193  Biso   1.000  C
  C1097    1.0000 0.96154  0.84150  0.88608  Biso   1.000  C
  C1098    1.0000 0.98845  0.82346  0.89658  Biso   1.000  C
  C1099    1.0000 0.02534  0.83302  0.92708  Biso   1.000  C
  C1100    1.0000 0.03469  0.85899  0.94859  Biso   1.000  C
  C1101    1.0000 0.00744  0.87894  0.93540  Biso   1.000  C
  C1102    1.0000 0.43348  0.81145  0.54523  Biso   1.000  C
  C1103    1.0000 0.39558  0.81769  0.51730  Biso   1.000  C
  C1104    1.0000 0.38013  0.82428  0.53950  Biso   1.000  C
  C1105    1.0000 0.40889  0.82585  0.59493  Biso   1.000  C
  C1106    1.0000 0.44321  0.81807  0.62089  Biso   1.000  C
  C1107    1.0000 0.45663  0.80971  0.59515  Biso   1.000  C
  C1108    1.0000 0.49238  0.87703  0.57638  Biso   1.000  C
  C1109    1.0000 0.45164  0.87698  0.54022  Biso   1.000  C
  C1110    1.0000 0.43325  0.88641  0.55604  Biso   1.000  C
  C1111    1.0000 0.45951  0.89417  0.61507  Biso   1.000  C
  C1112    1.0000 0.49875  0.88818  0.65032  Biso   1.000  C
  C1113    1.0000 0.50979  0.87913  0.63317  Biso   1.000  C
  C1114    1.0000 0.64132  0.00578  0.71124  Biso   1.000  C
  C1115    1.0000 0.61099  0.00350  0.66321  Biso   1.000  C
  C1116    1.0000 0.57843  0.02430  0.63575  Biso   1.000  C
  C1117    1.0000 0.59118  0.04783  0.66279  Biso   1.000  C
  C1118    1.0000 0.62324  0.05200  0.71042  Biso   1.000  C
  C1119    1.0000 0.64536  0.02965  0.73327  Biso   1.000  C
  C1120    1.0000 0.55680  0.94660  0.58510  Biso   1.000  C
  S261     1.0000 0.36866  0.37977  0.72156  Biso   1.000  S
  S262     1.0000 0.24675  0.53770  0.84089  Biso   1.000  S
  S263     1.0000 0.24727  0.47003  0.62553  Biso   1.000  S
  S264     1.0000 0.30700  0.37505  0.56507  Biso   1.000  S
  S265     1.0000 0.35048  0.46416  0.74095  Biso   1.000  S
  S266     1.0000 0.41537  0.35390  0.96062  Biso   1.000  S
  S267     1.0000 0.11649  0.36458  0.73444  Biso   1.000  S
  S268     1.0000 0.25748  0.48579  0.94377  Biso   1.000  S
  S269     1.0000 0.27451  0.27226  0.87379  Biso   1.000  S
  S270     1.0000 0.34662  0.33694  0.97605  Biso   1.000  S
  S271     1.0000 0.05292  0.29552  0.65389  Biso   1.000  S
  S272     1.0000 0.18445  0.42687  0.84072  Biso   1.000  S
  S273     1.0000 0.30044  0.43229  0.47878  Biso   1.000  S
  S274     1.0000 0.16332  0.28357  0.77088  Biso   1.000  S
  S275     1.0000 0.94744  0.30385  0.51064  Biso   1.000  S
  S276     1.0000 0.30212  0.30793  0.63499  Biso   1.000  S
  S277     1.0000 0.38545  0.40844  0.84909  Biso   1.000  S
  S278     1.0000 0.38057  0.25586  0.98855  Biso   1.000  S
  S279     1.0000 0.12490  0.31696  0.53136  Biso   1.000  S
  S280     1.0000 0.22884  0.34874  0.86627  Biso   1.000  S
  S281     1.0000 0.01677  0.36465  0.56610  Biso   1.000  S
  S282     1.0000 0.33522  0.48441  0.83740  Biso   1.000  S
  S283     1.0000 0.30215  0.41172  0.95794  Biso   1.000  S
  S284     1.0000 0.34550  0.44569  0.62725  Biso   1.000  S
  S285     1.0000 0.09040  0.42343  0.64770  Biso   1.000  S
  S286     1.0000 0.34854  0.50504  0.96510  Biso   1.000  S
  S287     1.0000 0.24633  0.50707  0.72826  Biso   1.000  S
  S288     1.0000 0.38100  0.42991  0.95986  Biso   1.000  S
  S289     1.0000 0.19745  0.36862  0.63725  Biso   1.000  S
  S290     1.0000 0.34123  0.30083  0.86276  Biso   1.000  S
  S291     1.0000 0.27188  0.42745  0.73867  Biso   1.000  S
  S292     1.0000 0.36884  0.21912  0.87311  Biso   1.000  S
  S293     1.0000 0.23058  0.31887  0.75539  Biso   1.000  S
  S294     1.0000 0.19471  0.39920  0.74429  Biso   1.000  S
  S295     1.0000 0.30709  0.34729  0.74597  Biso   1.000  S
  S296     1.0000 0.30624  0.37776  0.85572  Biso   1.000  S
  S297     1.0000 0.12319  0.33997  0.64635  Biso   1.000  S
  S298     1.0000 0.26965  0.45555  0.84616  Biso   1.000  S
  S299     1.0000 0.27529  0.39979  0.63467  Biso   1.000  S
  S300     1.0000 0.08878  0.38534  0.53991  Biso   1.000  S
  S301     1.0000 0.23026  0.28367  0.64559  Biso   1.000  S
  S302     1.0000 0.25760  0.24098  0.76914  Biso   1.000  S
  S303     1.0000 0.15946  0.41069  0.51782  Biso   1.000  S
  S304     1.0000 0.45097  0.27794  0.96384  Biso   1.000  S
  S305     1.0000 0.04022  0.29247  0.52841  Biso   1.000  S
  S306     1.0000 0.21258  0.34157  0.54529  Biso   1.000  S
  S307     1.0000 0.34269  0.26940  0.76619  Biso   1.000  S
  S308     1.0000 0.17213  0.47836  0.74613  Biso   1.000  S
  S309     1.0000 0.23074  0.44261  0.50373  Biso   1.000  S
  S310     1.0000 0.41446  0.32865  0.84439  Biso   1.000  S
  S311     1.0000 0.14751  0.26746  0.65012  Biso   1.000  S
  S312     1.0000 0.16043  0.45137  0.62351  Biso   1.000  S
  Cd161    1.0000 0.18855  0.35740  0.69762  Biso   1.000  Cd
  Cd162    1.0000 0.26281  0.38548  0.69068  Biso   1.000  Cd
  Cd163    1.0000 0.26071  0.41426  0.79598  Biso   1.000  Cd
  Cd164    1.0000 0.29483  0.33722  0.80313  Biso   1.000  Cd
  Cd165    1.0000 0.15183  0.40710  0.58277  Biso   1.000  Cd
  Cd166    1.0000 0.21658  0.27788  0.70074  Biso   1.000  Cd
  Cd167    1.0000 0.37061  0.36920  0.79427  Biso   1.000  Cd
  Cd168    1.0000 0.37222  0.39305  0.90197  Biso   1.000  Cd
  Cd169    1.0000 0.29127  0.36749  0.91060  Biso   1.000  Cd
  Cd170    1.0000 0.32251  0.25645  0.81484  Biso   1.000  Cd
  Cd171    1.0000 0.19524  0.32509  0.59566  Biso   1.000  Cd
  Cd172    1.0000 0.29370  0.30279  0.69855  Biso   1.000  Cd
  Cd173    1.0000 0.22648  0.46341  0.67524  Biso   1.000  Cd
  Cd174    1.0000 0.40597  0.31602  0.90449  Biso   1.000  Cd
  Cd175    1.0000 0.10841  0.30502  0.58311  Biso   1.000  Cd
  Cd176    1.0000 0.33779  0.29409  0.92983  Biso   1.000  Cd
  Cd177    1.0000 0.07964  0.38034  0.60304  Biso   1.000  Cd
  Cd178    1.0000 0.15538  0.43924  0.68642  Biso   1.000  Cd
  Cd179    1.0000 0.18336  0.38263  0.80101  Biso   1.000  Cd
  Cd180    1.0000 0.28178  0.35614  0.60317  Biso   1.000  Cd
  Cd181    1.0000 0.33795  0.44385  0.79439  Biso   1.000  Cd
  Cd182    1.0000 0.01596  0.31369  0.56625  Biso   1.000  Cd
  Cd183    1.0000 0.22326  0.42995  0.56567  Biso   1.000  Cd
  Cd184    1.0000 0.41384  0.23971  0.96036  Biso   1.000  Cd
  Cd185    1.0000 0.29366  0.42533  0.54244  Biso   1.000  Cd
  Cd186    1.0000 0.11677  0.31711  0.70393  Biso   1.000  Cd
  Cd187    1.0000 0.33724  0.46818  0.90684  Biso   1.000  Cd
  Cd188    1.0000 0.24992  0.44378  0.89483  Biso   1.000  Cd
  Cd189    1.0000 0.23673  0.49642  0.78835  Biso   1.000  Cd
  Cd190    1.0000 0.22488  0.30908  0.81993  Biso   1.000  Cd
  Cd191    1.0000 0.33541  0.42587  0.68354  Biso   1.000  Cd
  Cd192    1.0000 0.28743  0.47644  0.43191  Biso   1.000  Cd
  C1121    1.0000 0.41689  0.27288  0.04459  Biso   1.000  C
  C1122    1.0000 0.43016  0.26154  0.08961  Biso   1.000  C
  C1123    1.0000 0.45874  0.27434  0.13448  Biso   1.000  C
  C1124    1.0000 0.47406  0.29849  0.13433  Biso   1.000  C
  C1125    1.0000 0.46080  0.30983  0.08931  Biso   1.000  C
  C1126    1.0000 0.43222  0.29702  0.04444  Biso   1.000  C
  C1127    1.0000 0.46643  0.26595  0.93309  Biso   1.000  C
  C1128    1.0000 0.50499  0.26513  0.96206  Biso   1.000  C
  C1129    1.0000 0.51877  0.25715  0.94001  Biso   1.000  C
  C1130    1.0000 0.49458  0.25080  0.88776  Biso   1.000  C
  C1131    1.0000 0.45586  0.25214  0.85936  Biso   1.000  C
  C1132    1.0000 0.44204  0.26015  0.88191  Biso   1.000  C
  C1133    1.0000 0.34667  0.19407  0.88217  Biso   1.000  C
  C1134    1.0000 0.35763  0.16700  0.88700  Biso   1.000  C
  C1135    1.0000 0.34288  0.14620  0.89610  Biso   1.000  C
  C1136    1.0000 0.31480  0.15392  0.89545  Biso   1.000  C
  C1137    1.0000 0.30430  0.18079  0.89306  Biso   1.000  C
  C1138    1.0000 0.31992  0.20161  0.88441  Biso   1.000  C
  C1139    1.0000 0.34136  0.23946  0.73714  Biso   1.000  C
  C1140    1.0000 0.36350  0.21760  0.76647  Biso   1.000  C
  C1141    1.0000 0.36445  0.19305  0.74593  Biso   1.000  C
  C1142    1.0000 0.34189  0.19074  0.69484  Biso   1.000  C
  C1143    1.0000 0.31930  0.21343  0.66267  Biso   1.000  C
  C1144    1.0000 0.31981  0.23729  0.68534  Biso   1.000  C
  C1145    1.0000 0.25897  0.20997  0.74242  Biso   1.000  C
  C1146    1.0000 0.25299  0.18537  0.75735  Biso   1.000  C
  C1147    1.0000 0.25722  0.15953  0.73672  Biso   1.000  C
  C1148    1.0000 0.26326  0.16288  0.70437  Biso   1.000  C
  C1149    1.0000 0.26689  0.18608  0.68984  Biso   1.000  C
  C1150    1.0000 0.26461  0.21152  0.70965  Biso   1.000  C
  C1151    1.0000 0.26782  0.25179  0.90567  Biso   1.000  C
  C1152    1.0000 0.29373  0.24328  0.95346  Biso   1.000  C
  C1153    1.0000 0.28681  0.22862  0.98198  Biso   1.000  C
  C1154    1.0000 0.34013  0.32505  0.01516  Biso   1.000  C
  C1155    1.0000 0.30105  0.32457  0.99745  Biso   1.000  C
  C1156    1.0000 0.29815  0.31657  0.03446  Biso   1.000  C
  C1157    1.0000 0.32756  0.31026  0.08345  Biso   1.000  C
  C1158    1.0000 0.35612  0.30729  0.09607  Biso   1.000  C
  C1159    1.0000 0.36258  0.31370  0.05504  Biso   1.000  C
  C1160    1.0000 0.46448  0.36425  0.99710  Biso   1.000  C
  C1161    1.0000 0.49018  0.34783  0.01717  Biso   1.000  C
  C1162    1.0000 0.52814  0.35648  0.05200  Biso   1.000  C
  C1163    1.0000 0.54029  0.38085  0.05120  Biso   1.000  C
  C1164    1.0000 0.50948  0.40172  0.02105  Biso   1.000  C
  C1165    1.0000 0.46998  0.39371  0.99488  Biso   1.000  C
  C1166    1.0000 0.34090  0.47879  0.62707  Biso   1.000  C
  C1167    1.0000 0.36692  0.49595  0.67245  Biso   1.000  C
  C1168    1.0000 0.35986  0.52697  0.67535  Biso   1.000  C
  C1169    1.0000 0.33031  0.53666  0.62712  Biso   1.000  C
  C1170    1.0000 0.30476  0.52243  0.58375  Biso   1.000  C
  C1171    1.0000 0.30935  0.49180  0.58622  Biso   1.000  C
  C1172    1.0000 0.34462  0.42188  0.51202  Biso   1.000  C
  C1173    1.0000 0.34412  0.39156  0.49296  Biso   1.000  C
  C1174    1.0000 0.38323  0.37596  0.53560  Biso   1.000  C
  C1175    1.0000 0.41368  0.40013  0.57011  Biso   1.000  C
  C1176    1.0000 0.41109  0.42405  0.58321  Biso   1.000  C
  C1177    1.0000 0.37264  0.43576  0.55371  Biso   1.000  C
  C1178    1.0000 0.36479  0.51088  0.84612  Biso   1.000  C
  C1179    1.0000 0.39449  0.51699  0.89581  Biso   1.000  C
  C1180    1.0000 0.41778  0.54093  0.89890  Biso   1.000  C
  C1181    1.0000 0.40178  0.55148  0.84962  Biso   1.000  C
  C1182    1.0000 0.36769  0.54960  0.78851  Biso   1.000  C
  C1183    1.0000 0.34603  0.52414  0.79184  Biso   1.000  C
  C1184    1.0000 0.41224  0.37976  0.74160  Biso   1.000  C
  C1185    1.0000 0.44287  0.37111  0.78730  Biso   1.000  C
  C1186    1.0000 0.48091  0.36875  0.80199  Biso   1.000  C
  C1187    1.0000 0.48974  0.38848  0.79154  Biso   1.000  C
  C1188    1.0000 0.46654  0.40980  0.76445  Biso   1.000  C
  C1189    1.0000 0.42914  0.40819  0.74127  Biso   1.000  C
  C1190    1.0000 0.34845  0.30011  0.66537  Biso   1.000  C
  C1191    1.0000 0.37683  0.30390  0.71468  Biso   1.000  C
  C1192    1.0000 0.41291  0.29413  0.73832  Biso   1.000  C
  C1193    1.0000 0.41830  0.28206  0.70940  Biso   1.000  C
  C1194    1.0000 0.39193  0.27811  0.66088  Biso   1.000  C
  C1195    1.0000 0.35374  0.28740  0.63429  Biso   1.000  C
  C1196    1.0000 0.13819  0.23490  0.62157  Biso   1.000  C
  C1197    1.0000 0.16721  0.21755  0.63527  Biso   1.000  C
  C1198    1.0000 0.15916  0.19192  0.61171  Biso   1.000  C
  C1199    1.0000 0.12169  0.18203  0.57794  Biso   1.000  C
  C1200    1.0000 0.09516  0.19992  0.56459  Biso   1.000  C
  C1201    1.0000 0.10150  0.22583  0.58521  Biso   1.000  C
  C1202    1.0000 0.15349  0.28399  0.81110  Biso   1.000  C
  C1203    1.0000 0.15605  0.30646  0.83372  Biso   1.000  C
  C1204    1.0000 0.14543  0.30655  0.86481  Biso   1.000  C
  C1205    1.0000 0.13663  0.28273  0.87323  Biso   1.000  C
  C1206    1.0000 0.13491  0.26066  0.85286  Biso   1.000  C
  C1207    1.0000 0.14862  0.25949  0.82401  Biso   1.000  C
  C1208    1.0000 0.29452  0.40105  0.99974  Biso   1.000  C
  C1209    1.0000 0.28589  0.37092  0.99975  Biso   1.000  C
  C1210    1.0000 0.28192  0.36197  0.03644  Biso   1.000  C
  C1211    1.0000 0.26674  0.38320  0.05364  Biso   1.000  C
  C1212    1.0000 0.26420  0.40875  0.03363  Biso   1.000  C
  C1213    1.0000 0.27485  0.41620  0.00576  Biso   1.000  C
  C1214    1.0000 0.42517  0.44709  0.98461  Biso   1.000  C
  C1215    1.0000 0.43840  0.45160  0.03215  Biso   1.000  C
  C1216    1.0000 0.47465  0.46176  0.06953  Biso   1.000  C
  C1217    1.0000 0.48846  0.46632  0.04770  Biso   1.000  C
  C1218    1.0000 0.42926  0.45470  0.95237  Biso   1.000  C
  C1219    1.0000 0.37551  0.49521  0.02541  Biso   1.000  C
  C1220    1.0000 0.41291  0.50679  0.06059  Biso   1.000  C
  C1221    1.0000 0.42609  0.49349  0.11944  Biso   1.000  C
  C1222    1.0000 0.40852  0.47147  0.11518  Biso   1.000  C
  C1223    1.0000 0.37617  0.46177  0.07875  Biso   1.000  C
  C1224    1.0000 0.35989  0.47279  0.03387  Biso   1.000  C
  C1225    1.0000 0.38165  0.52555  0.98024  Biso   1.000  C
  C1226    1.0000 0.41705  0.51651  0.00893  Biso   1.000  C
  C1227    1.0000 0.44749  0.54233  0.02317  Biso   1.000  C
  C1228    1.0000 0.42998  0.56032  0.99846  Biso   1.000  C
  C1229    1.0000 0.39539  0.57134  0.96540  Biso   1.000  C
  C1230    1.0000 0.37305  0.55330  0.96261  Biso   1.000  C
  C1231    1.0000 0.40006  0.46505  0.78642  Biso   1.000  C
  C1232    1.0000 0.42290  0.49328  0.81818  Biso   1.000  C
  C1233    1.0000 0.45874  0.49099  0.82985  Biso   1.000  C
  C1234    1.0000 0.47894  0.46647  0.85628  Biso   1.000  C
  C1235    1.0000 0.46493  0.44331  0.83387  Biso   1.000  C
  C1236    1.0000 0.42232  0.44135  0.79673  Biso   1.000  C
  C1237    1.0000 0.29927  0.35560  0.51951  Biso   1.000  C
  C1238    1.0000 0.32431  0.33428  0.53442  Biso   1.000  C
  C1239    1.0000 0.31425  0.31670  0.49146  Biso   1.000  C
  C1240    1.0000 0.28576  0.32401  0.44339  Biso   1.000  C
  C1241    1.0000 0.26248  0.34692  0.42957  Biso   1.000  C
  C1242    1.0000 0.26934  0.36229  0.46871  Biso   1.000  C
  C1243    1.0000 0.21316  0.31161  0.51696  Biso   1.000  C
  C1244    1.0000 0.22749  0.31518  0.49288  Biso   1.000  C
  C1245    1.0000 0.22755  0.29185  0.46790  Biso   1.000  C
  C1246    1.0000 0.21147  0.26787  0.46410  Biso   1.000  C
  C1247    1.0000 0.19736  0.26432  0.48849  Biso   1.000  C
  C1248    1.0000 0.19875  0.28686  0.51484  Biso   1.000  C
  C1249    1.0000 0.11626  0.28485  0.50080  Biso   1.000  C
  C1250    1.0000 0.09054  0.28478  0.44843  Biso   1.000  C
  C1251    1.0000 0.08466  0.25871  0.42387  Biso   1.000  C
  C1252    1.0000 0.10160  0.23596  0.45049  Biso   1.000  C
  C1253    1.0000 0.12614  0.23565  0.50216  Biso   1.000  C
  C1254    1.0000 0.13385  0.26107  0.52721  Biso   1.000  C
  C1255    1.0000 0.05640  0.25868  0.64690  Biso   1.000  C
  C1256    1.0000 0.03153  0.24554  0.60394  Biso   1.000  C
  C1257    1.0000 0.03366  0.21646  0.60046  Biso   1.000  C
  C1258    1.0000 0.05944  0.20194  0.64073  Biso   1.000  C
  C1259    1.0000 0.08169  0.21587  0.68636  Biso   1.000  C
  C1260    1.0000 0.08011  0.24522  0.69232  Biso   1.000  C
  C1261    1.0000 0.09197  0.36489  0.75500  Biso   1.000  C
  C1262    1.0000 0.06316  0.34942  0.73251  Biso   1.000  C
  C1263    1.0000 0.04668  0.34168  0.76284  Biso   1.000  C
  C1264    1.0000 0.05249  0.36537  0.78794  Biso   1.000  C
  C1265    1.0000 0.07784  0.38232  0.80326  Biso   1.000  C
  C1266    1.0000 0.09986  0.37858  0.78984  Biso   1.000  C
  C1267    1.0000 0.17741  0.41548  0.88230  Biso   1.000  C
  C1268    1.0000 0.18807  0.39104  0.90524  Biso   1.000  C
  C1269    1.0000 0.17962  0.38181  0.93724  Biso   1.000  C
  C1270    1.0000 0.15991  0.40227  0.93862  Biso   1.000  C
  C1271    1.0000 0.14685  0.42524  0.91383  Biso   1.000  C
  C1272    1.0000 0.15485  0.43325  0.88316  Biso   1.000  C
  C1273    1.0000 0.21048  0.49520  0.90938  Biso   1.000  C
  C1274    1.0000 0.19841  0.49732  0.93627  Biso   1.000  C
  C1275    1.0000 0.16248  0.50539  0.91128  Biso   1.000  C
  C1276    1.0000 0.13787  0.50922  0.86082  Biso   1.000  C
  C1277    1.0000 0.14868  0.50719  0.83262  Biso   1.000  C
  C1278    1.0000 0.18610  0.50059  0.85809  Biso   1.000  C
  C1279    1.0000 0.27643  0.56166  0.84570  Biso   1.000  C
  C1280    1.0000 0.27589  0.58834  0.86411  Biso   1.000  C
  C1281    1.0000 0.29899  0.60928  0.86756  Biso   1.000  C
  C1282    1.0000 0.31989  0.60417  0.85417  Biso   1.000  C
  C1283    1.0000 0.32109  0.57709  0.83877  Biso   1.000  C
  C1284    1.0000 0.29824  0.55610  0.83678  Biso   1.000  C
  C1285    1.0000 0.21408  0.53220  0.69115  Biso   1.000  C
  C1286    1.0000 0.22736  0.56001  0.70613  Biso   1.000  C
  C1287    1.0000 0.20493  0.58216  0.67213  Biso   1.000  C
  C1288    1.0000 0.16738  0.57335  0.61468  Biso   1.000  C
  C1289    1.0000 0.16304  0.54647  0.60265  Biso   1.000  C
  C1290    1.0000 0.18349  0.52615  0.62774  Biso   1.000  C
  C1291    1.0000 0.23058  0.50172  0.59738  Biso   1.000  C
  C1292    1.0000 0.25768  0.52081  0.64188  Biso   1.000  C
  C1293    1.0000 0.19862  0.55130  0.54680  Biso   1.000  C
  C1294    1.0000 0.19682  0.53476  0.52754  Biso   1.000  C
  C1295    1.0000 0.20764  0.50456  0.55379  Biso   1.000  C
  C1296    1.0000 0.20426  0.41999  0.45148  Biso   1.000  C
  C1297    1.0000 0.19450  0.43007  0.40701  Biso   1.000  C
  C1298    1.0000 0.17644  0.41310  0.36477  Biso   1.000  C
  C1299    1.0000 0.16103  0.38708  0.36513  Biso   1.000  C
  C1300    1.0000 0.17249  0.37732  0.41082  Biso   1.000  C
  C1301    1.0000 0.19405  0.39383  0.45303  Biso   1.000  C
  C1302    1.0000 0.13232  0.43863  0.47575  Biso   1.000  C
  C1303    1.0000 0.12967  0.46280  0.49168  Biso   1.000  C
  C1304    1.0000 0.10745  0.48506  0.45734  Biso   1.000  C
  C1305    1.0000 0.08842  0.47748  0.40559  Biso   1.000  C
  C1306    1.0000 0.09066  0.45440  0.39072  Biso   1.000  C
  C1307    1.0000 0.11414  0.43387  0.42425  Biso   1.000  C
  C1308    1.0000 0.05701  0.40775  0.49173  Biso   1.000  C
  C1309    1.0000 0.06281  0.42668  0.47773  Biso   1.000  C
  C1310    1.0000 0.03588  0.44299  0.43297  Biso   1.000  C
  C1311    1.0000 0.00483  0.43410  0.40181  Biso   1.000  C
  C1312    1.0000 0.99429  0.41080  0.40015  Biso   1.000  C
  C1313    1.0000 0.02347  0.39254  0.45818  Biso   1.000  C
  C1314    1.0000 0.01194  0.30895  0.46872  Biso   1.000  C
  C1315    1.0000 0.02784  0.32339  0.45417  Biso   1.000  C
  C1316    1.0000 0.00250  0.33522  0.40525  Biso   1.000  C
  C1317    1.0000 0.96539  0.33335  0.37465  Biso   1.000  C
  C1318    1.0000 0.95055  0.31813  0.39011  Biso   1.000  C
  C1319    1.0000 0.97382  0.30573  0.43745  Biso   1.000  C
  C1320    1.0000 0.46742  0.36836  0.90193  Biso   1.000  C
  C1321    1.0000 0.46154  0.34150  0.88608  Biso   1.000  C
  C1322    1.0000 0.48845  0.32346  0.89658  Biso   1.000  C
  C1323    1.0000 0.52534  0.33302  0.92708  Biso   1.000  C
  C1324    1.0000 0.53469  0.35899  0.94859  Biso   1.000  C
  C1325    1.0000 0.50744  0.37894  0.93540  Biso   1.000  C
  C1326    1.0000 0.93348  0.31145  0.54523  Biso   1.000  C
  C1327    1.0000 0.89558  0.31769  0.51730  Biso   1.000  C
  C1328    1.0000 0.88013  0.32428  0.53950  Biso   1.000  C
  C1329    1.0000 0.90889  0.32585  0.59493  Biso   1.000  C
  C1330    1.0000 0.94321  0.31807  0.62089  Biso   1.000  C
  C1331    1.0000 0.95663  0.30971  0.59515  Biso   1.000  C
  C1332    1.0000 0.99238  0.37703  0.57638  Biso   1.000  C
  C1333    1.0000 0.95164  0.37698  0.54022  Biso   1.000  C
  C1334    1.0000 0.93325  0.38641  0.55604  Biso   1.000  C
  C1335    1.0000 0.95951  0.39417  0.61507  Biso   1.000  C
  C1336    1.0000 0.99875  0.38818  0.65032  Biso   1.000  C
  C1337    1.0000 0.00979  0.37913  0.63317  Biso   1.000  C
  C1338    1.0000 0.14132  0.50578  0.71124  Biso   1.000  C
  C1339    1.0000 0.11099  0.50350  0.66321  Biso   1.000  C
  C1340    1.0000 0.07843  0.52430  0.63575  Biso   1.000  C
  C1341    1.0000 0.09118  0.54783  0.66279  Biso   1.000  C
  C1342    1.0000 0.12324  0.55200  0.71042  Biso   1.000  C
  C1343    1.0000 0.14536  0.52965  0.73327  Biso   1.000  C
  C1344    1.0000 0.05680  0.44660  0.58510  Biso   1.000  C
  S313     1.0000 0.86866  0.12023  0.22156  Biso   1.000  S
  S314     1.0000 0.74675  0.96230  0.34089  Biso   1.000  S
  S315     1.0000 0.74727  0.02997  0.12553  Biso   1.000  S
  S316     1.0000 0.80700  0.12495  0.06507  Biso   1.000  S
  S317     1.0000 0.85048  0.03584  0.24095  Biso   1.000  S
  S318     1.0000 0.91537  0.14610  0.46062  Biso   1.000  S
  S319     1.0000 0.61649  0.13542  0.23444  Biso   1.000  S
  S320     1.0000 0.75748  0.01421  0.44377  Biso   1.000  S
  S321     1.0000 0.77451  0.22774  0.37379  Biso   1.000  S
  S322     1.0000 0.84662  0.16306  0.47605  Biso   1.000  S
  S323     1.0000 0.55292  0.20448  0.15389  Biso   1.000  S
  S324     1.0000 0.68445  0.07313  0.34072  Biso   1.000  S
  S325     1.0000 0.80044  0.06771  0.97878  Biso   1.000  S
  S326     1.0000 0.66332  0.21643  0.27088  Biso   1.000  S
  S327     1.0000 0.44744  0.19615  0.01064  Biso   1.000  S
  S328     1.0000 0.80212  0.19207  0.13499  Biso   1.000  S
  S329     1.0000 0.88545  0.09156  0.34909  Biso   1.000  S
  S330     1.0000 0.88057  0.24414  0.48855  Biso   1.000  S
  S331     1.0000 0.62490  0.18304  0.03136  Biso   1.000  S
  S332     1.0000 0.72884  0.15126  0.36627  Biso   1.000  S
  S333     1.0000 0.51677  0.13535  0.06610  Biso   1.000  S
  S334     1.0000 0.83522  0.01559  0.33740  Biso   1.000  S
  S335     1.0000 0.80215  0.08828  0.45794  Biso   1.000  S
  S336     1.0000 0.84550  0.05431  0.12725  Biso   1.000  S
  S337     1.0000 0.59040  0.07657  0.14770  Biso   1.000  S
  S338     1.0000 0.84854  0.99496  0.46510  Biso   1.000  S
  S339     1.0000 0.74633  0.99293  0.22826  Biso   1.000  S
  S340     1.0000 0.88100  0.07009  0.45986  Biso   1.000  S
  S341     1.0000 0.69745  0.13138  0.13725  Biso   1.000  S
  S342     1.0000 0.84123  0.19917  0.36276  Biso   1.000  S
  S343     1.0000 0.77188  0.07255  0.23867  Biso   1.000  S
  S344     1.0000 0.86884  0.28088  0.37311  Biso   1.000  S
  S345     1.0000 0.73058  0.18113  0.25539  Biso   1.000  S
  S346     1.0000 0.69471  0.10080  0.24429  Biso   1.000  S
  S347     1.0000 0.80709  0.15271  0.24597  Biso   1.000  S
  S348     1.0000 0.80624  0.12224  0.35572  Biso   1.000  S
  S349     1.0000 0.62319  0.16003  0.14635  Biso   1.000  S
  S350     1.0000 0.76965  0.04445  0.34616  Biso   1.000  S
  S351     1.0000 0.77529  0.10021  0.13467  Biso   1.000  S
  S352     1.0000 0.58878  0.11466  0.03991  Biso   1.000  S
  S353     1.0000 0.73026  0.21633  0.14559  Biso   1.000  S
  S354     1.0000 0.75760  0.25902  0.26914  Biso   1.000  S
  S355     1.0000 0.65946  0.08931  0.01782  Biso   1.000  S
  S356     1.0000 0.95097  0.22206  0.46384  Biso   1.000  S
  S357     1.0000 0.54022  0.20753  0.02841  Biso   1.000  S
  S358     1.0000 0.71258  0.15843  0.04529  Biso   1.000  S
  S359     1.0000 0.84269  0.23060  0.26619  Biso   1.000  S
  S360     1.0000 0.67213  0.02164  0.24613  Biso   1.000  S
  S361     1.0000 0.73074  0.05739  0.00373  Biso   1.000  S
  S362     1.0000 0.91446  0.17135  0.34439  Biso   1.000  S
  S363     1.0000 0.64751  0.23254  0.15012  Biso   1.000  S
  S364     1.0000 0.66043  0.04863  0.12351  Biso   1.000  S
  Cd193    1.0000 0.68855  0.14260  0.19762  Biso   1.000  Cd
  Cd194    1.0000 0.76281  0.11452  0.19068  Biso   1.000  Cd
  Cd195    1.0000 0.76071  0.08574  0.29598  Biso   1.000  Cd
  Cd196    1.0000 0.79483  0.16278  0.30313  Biso   1.000  Cd
  Cd197    1.0000 0.65183  0.09290  0.08277  Biso   1.000  Cd
  Cd198    1.0000 0.71658  0.22212  0.20074  Biso   1.000  Cd
  Cd199    1.0000 0.87061  0.13080  0.29427  Biso   1.000  Cd
  Cd200    1.0000 0.87222  0.10695  0.40197  Biso   1.000  Cd
  Cd201    1.0000 0.79127  0.13251  0.41060  Biso   1.000  Cd
  Cd202    1.0000 0.82251  0.24355  0.31484  Biso   1.000  Cd
  Cd203    1.0000 0.69524  0.17491  0.09566  Biso   1.000  Cd
  Cd204    1.0000 0.79370  0.19721  0.19855  Biso   1.000  Cd
  Cd205    1.0000 0.72648  0.03659  0.17524  Biso   1.000  Cd
  Cd206    1.0000 0.90597  0.18398  0.40449  Biso   1.000  Cd
  Cd207    1.0000 0.60841  0.19498  0.08311  Biso   1.000  Cd
  Cd208    1.0000 0.83779  0.20591  0.42983  Biso   1.000  Cd
  Cd209    1.0000 0.57964  0.11966  0.10304  Biso   1.000  Cd
  Cd210    1.0000 0.65538  0.06076  0.18642  Biso   1.000  Cd
  Cd211    1.0000 0.68336  0.11737  0.30101  Biso   1.000  Cd
  Cd212    1.0000 0.78178  0.14386  0.10317  Biso   1.000  Cd
  Cd213    1.0000 0.83795  0.05615  0.29439  Biso   1.000  Cd
  Cd214    1.0000 0.51596  0.18631  0.06625  Biso   1.000  Cd
  Cd215    1.0000 0.72326  0.07005  0.06567  Biso   1.000  Cd
  Cd216    1.0000 0.91384  0.26029  0.46036  Biso   1.000  Cd
  Cd217    1.0000 0.79366  0.07467  0.04244  Biso   1.000  Cd
  Cd218    1.0000 0.61677  0.18289  0.20393  Biso   1.000  Cd
  Cd219    1.0000 0.83724  0.03182  0.40684  Biso   1.000  Cd
  Cd220    1.0000 0.74992  0.05622  0.39483  Biso   1.000  Cd
  Cd221    1.0000 0.73673  0.00358  0.28835  Biso   1.000  Cd
  Cd222    1.0000 0.72488  0.19092  0.31993  Biso   1.000  Cd
  Cd223    1.0000 0.83541  0.07413  0.18354  Biso   1.000  Cd
  Cd224    1.0000 0.78743  0.02356  0.93191  Biso   1.000  Cd
  C1345    1.0000 0.91689  0.22712  0.54459  Biso   1.000  C
  C1346    1.0000 0.93016  0.23846  0.58961  Biso   1.000  C
  C1347    1.0000 0.95874  0.22566  0.63448  Biso   1.000  C
  C1348    1.0000 0.97406  0.20151  0.63433  Biso   1.000  C
  C1349    1.0000 0.96080  0.19017  0.58931  Biso   1.000  C
  C1350    1.0000 0.93222  0.20298  0.54444  Biso   1.000  C
  C1351    1.0000 0.96643  0.23405  0.43309  Biso   1.000  C
  C1352    1.0000 0.00499  0.23487  0.46206  Biso   1.000  C
  C1353    1.0000 0.01877  0.24285  0.44001  Biso   1.000  C
  C1354    1.0000 0.99458  0.24920  0.38776  Biso   1.000  C
  C1355    1.0000 0.95586  0.24786  0.35936  Biso   1.000  C
  C1356    1.0000 0.94204  0.23985  0.38191  Biso   1.000  C
  C1357    1.0000 0.84667  0.30593  0.38217  Biso   1.000  C
  C1358    1.0000 0.85763  0.33300  0.38700  Biso   1.000  C
  C1359    1.0000 0.84288  0.35380  0.39610  Biso   1.000  C
  C1360    1.0000 0.81480  0.34608  0.39545  Biso   1.000  C
  C1361    1.0000 0.80430  0.31921  0.39306  Biso   1.000  C
  C1362    1.0000 0.81992  0.29839  0.38441  Biso   1.000  C
  C1363    1.0000 0.84136  0.26054  0.23714  Biso   1.000  C
  C1364    1.0000 0.86350  0.28240  0.26647  Biso   1.000  C
  C1365    1.0000 0.86445  0.30695  0.24593  Biso   1.000  C
  C1366    1.0000 0.84189  0.30926  0.19484  Biso   1.000  C
  C1367    1.0000 0.81930  0.28657  0.16267  Biso   1.000  C
  C1368    1.0000 0.81981  0.26271  0.18534  Biso   1.000  C
  C1369    1.0000 0.75897  0.29003  0.24242  Biso   1.000  C
  C1370    1.0000 0.75299  0.31463  0.25735  Biso   1.000  C
  C1371    1.0000 0.75722  0.34047  0.23672  Biso   1.000  C
  C1372    1.0000 0.76326  0.33712  0.20437  Biso   1.000  C
  C1373    1.0000 0.76689  0.31392  0.18984  Biso   1.000  C
  C1374    1.0000 0.76461  0.28848  0.20965  Biso   1.000  C
  C1375    1.0000 0.76782  0.24821  0.40567  Biso   1.000  C
  C1376    1.0000 0.79373  0.25672  0.45346  Biso   1.000  C
  C1377    1.0000 0.78681  0.27138  0.48198  Biso   1.000  C
  C1378    1.0000 0.84013  0.17495  0.51516  Biso   1.000  C
  C1379    1.0000 0.80105  0.17543  0.49745  Biso   1.000  C
  C1380    1.0000 0.79815  0.18343  0.53446  Biso   1.000  C
  C1381    1.0000 0.82756  0.18974  0.58345  Biso   1.000  C
  C1382    1.0000 0.85612  0.19271  0.59607  Biso   1.000  C
  C1383    1.0000 0.86258  0.18630  0.55504  Biso   1.000  C
  C1384    1.0000 0.96448  0.13575  0.49710  Biso   1.000  C
  C1385    1.0000 0.99018  0.15217  0.51717  Biso   1.000  C
  C1386    1.0000 0.02814  0.14352  0.55200  Biso   1.000  C
  C1387    1.0000 0.04029  0.11915  0.55120  Biso   1.000  C
  C1388    1.0000 0.00948  0.09828  0.52105  Biso   1.000  C
  C1389    1.0000 0.96998  0.10629  0.49488  Biso   1.000  C
  C1390    1.0000 0.84090  0.02121  0.12707  Biso   1.000  C
  C1391    1.0000 0.86692  0.00405  0.17245  Biso   1.000  C
  C1392    1.0000 0.85986  0.97303  0.17535  Biso   1.000  C
  C1393    1.0000 0.83031  0.96334  0.12712  Biso   1.000  C
  C1394    1.0000 0.80476  0.97757  0.08375  Biso   1.000  C
  C1395    1.0000 0.80935  0.00820  0.08622  Biso   1.000  C
  C1396    1.0000 0.84462  0.07812  0.01202  Biso   1.000  C
  C1397    1.0000 0.84412  0.10844  0.99296  Biso   1.000  C
  C1398    1.0000 0.88323  0.12404  0.03560  Biso   1.000  C
  C1399    1.0000 0.91368  0.09987  0.07011  Biso   1.000  C
  C1400    1.0000 0.91109  0.07595  0.08321  Biso   1.000  C
  C1401    1.0000 0.87264  0.06424  0.05371  Biso   1.000  C
  C1402    1.0000 0.86479  0.98912  0.34612  Biso   1.000  C
  C1403    1.0000 0.89449  0.98301  0.39581  Biso   1.000  C
  C1404    1.0000 0.91778  0.95907  0.39890  Biso   1.000  C
  C1405    1.0000 0.90178  0.94852  0.34962  Biso   1.000  C
  C1406    1.0000 0.86769  0.95040  0.28851  Biso   1.000  C
  C1407    1.0000 0.84603  0.97586  0.29184  Biso   1.000  C
  C1408    1.0000 0.91224  0.12024  0.24160  Biso   1.000  C
  C1409    1.0000 0.94287  0.12889  0.28730  Biso   1.000  C
  C1410    1.0000 0.98091  0.13125  0.30199  Biso   1.000  C
  C1411    1.0000 0.98974  0.11152  0.29154  Biso   1.000  C
  C1412    1.0000 0.96654  0.09020  0.26445  Biso   1.000  C
  C1413    1.0000 0.92914  0.09181  0.24127  Biso   1.000  C
  C1414    1.0000 0.84845  0.19989  0.16537  Biso   1.000  C
  C1415    1.0000 0.87683  0.19610  0.21468  Biso   1.000  C
  C1416    1.0000 0.91291  0.20587  0.23832  Biso   1.000  C
  C1417    1.0000 0.91830  0.21794  0.20940  Biso   1.000  C
  C1418    1.0000 0.89193  0.22189  0.16088  Biso   1.000  C
  C1419    1.0000 0.85374  0.21260  0.13429  Biso   1.000  C
  C1420    1.0000 0.63819  0.26510  0.12157  Biso   1.000  C
  C1421    1.0000 0.66721  0.28245  0.13527  Biso   1.000  C
  C1422    1.0000 0.65916  0.30808  0.11171  Biso   1.000  C
  C1423    1.0000 0.62169  0.31797  0.07794  Biso   1.000  C
  C1424    1.0000 0.59516  0.30008  0.06459  Biso   1.000  C
  C1425    1.0000 0.60150  0.27417  0.08521  Biso   1.000  C
  C1426    1.0000 0.65349  0.21601  0.31110  Biso   1.000  C
  C1427    1.0000 0.65605  0.19354  0.33372  Biso   1.000  C
  C1428    1.0000 0.64543  0.19345  0.36481  Biso   1.000  C
  C1429    1.0000 0.63663  0.21727  0.37323  Biso   1.000  C
  C1430    1.0000 0.63491  0.23934  0.35286  Biso   1.000  C
  C1431    1.0000 0.64862  0.24051  0.32401  Biso   1.000  C
  C1432    1.0000 0.79452  0.09895  0.49974  Biso   1.000  C
  C1433    1.0000 0.78589  0.12908  0.49975  Biso   1.000  C
  C1434    1.0000 0.78192  0.13803  0.53644  Biso   1.000  C
  C1435    1.0000 0.76674  0.11680  0.55364  Biso   1.000  C
  C1436    1.0000 0.76420  0.09125  0.53363  Biso   1.000  C
  C1437    1.0000 0.77485  0.08380  0.50576  Biso   1.000  C
  C1438    1.0000 0.92517  0.05291  0.48461  Biso   1.000  C
  C1439    1.0000 0.93840  0.04840  0.53215  Biso   1.000  C
  C1440    1.0000 0.97465  0.03824  0.56953  Biso   1.000  C
  C1441    1.0000 0.98846  0.03368  0.54770  Biso   1.000  C
  C1442    1.0000 0.92926  0.04530  0.45237  Biso   1.000  C
  C1443    1.0000 0.87551  0.00479  0.52541  Biso   1.000  C
  C1444    1.0000 0.91291  0.99321  0.56059  Biso   1.000  C
  C1445    1.0000 0.92609  0.00651  0.61944  Biso   1.000  C
  C1446    1.0000 0.90852  0.02853  0.61518  Biso   1.000  C
  C1447    1.0000 0.87617  0.03823  0.57875  Biso   1.000  C
  C1448    1.0000 0.85989  0.02721  0.53387  Biso   1.000  C
  C1449    1.0000 0.88165  0.97445  0.48024  Biso   1.000  C
  C1450    1.0000 0.91705  0.98349  0.50893  Biso   1.000  C
  C1451    1.0000 0.94749  0.95767  0.52317  Biso   1.000  C
  C1452    1.0000 0.92998  0.93968  0.49846  Biso   1.000  C
  C1453    1.0000 0.89539  0.92866  0.46540  Biso   1.000  C
  C1454    1.0000 0.87305  0.94670  0.46261  Biso   1.000  C
  C1455    1.0000 0.90006  0.03495  0.28642  Biso   1.000  C
  C1456    1.0000 0.92290  0.00672  0.31818  Biso   1.000  C
  C1457    1.0000 0.95874  0.00901  0.32985  Biso   1.000  C
  C1458    1.0000 0.97894  0.03353  0.35628  Biso   1.000  C
  C1459    1.0000 0.96493  0.05669  0.33387  Biso   1.000  C
  C1460    1.0000 0.92232  0.05865  0.29673  Biso   1.000  C
  C1461    1.0000 0.79927  0.14440  0.01951  Biso   1.000  C
  C1462    1.0000 0.82431  0.16572  0.03442  Biso   1.000  C
  C1463    1.0000 0.81425  0.18330  0.99146  Biso   1.000  C
  C1464    1.0000 0.78576  0.17599  0.94339  Biso   1.000  C
  C1465    1.0000 0.76248  0.15308  0.92957  Biso   1.000  C
  C1466    1.0000 0.76934  0.13771  0.96871  Biso   1.000  C
  C1467    1.0000 0.71316  0.18839  0.01696  Biso   1.000  C
  C1468    1.0000 0.72749  0.18482  0.99288  Biso   1.000  C
  C1469    1.0000 0.72755  0.20815  0.96790  Biso   1.000  C
  C1470    1.0000 0.71147  0.23213  0.96410  Biso   1.000  C
  C1471    1.0000 0.69736  0.23568  0.98849  Biso   1.000  C
  C1472    1.0000 0.69875  0.21314  0.01484  Biso   1.000  C
  C1473    1.0000 0.61626  0.21515  0.00080  Biso   1.000  C
  C1474    1.0000 0.59054  0.21522  0.94843  Biso   1.000  C
  C1475    1.0000 0.58466  0.24129  0.92387  Biso   1.000  C
  C1476    1.0000 0.60160  0.26404  0.95049  Biso   1.000  C
  C1477    1.0000 0.62614  0.26435  0.00216  Biso   1.000  C
  C1478    1.0000 0.63385  0.23893  0.02721  Biso   1.000  C
  C1479    1.0000 0.55640  0.24132  0.14690  Biso   1.000  C
  C1480    1.0000 0.53153  0.25446  0.10394  Biso   1.000  C
  C1481    1.0000 0.53366  0.28354  0.10046  Biso   1.000  C
  C1482    1.0000 0.55944  0.29806  0.14073  Biso   1.000  C
  C1483    1.0000 0.58169  0.28413  0.18636  Biso   1.000  C
  C1484    1.0000 0.58011  0.25478  0.19232  Biso   1.000  C
  C1485    1.0000 0.59197  0.13511  0.25500  Biso   1.000  C
  C1486    1.0000 0.56316  0.15058  0.23251  Biso   1.000  C
  C1487    1.0000 0.54668  0.15832  0.26284  Biso   1.000  C
  C1488    1.0000 0.55249  0.13463  0.28794  Biso   1.000  C
  C1489    1.0000 0.57784  0.11768  0.30326  Biso   1.000  C
  C1490    1.0000 0.59986  0.12142  0.28984  Biso   1.000  C
  C1491    1.0000 0.67741  0.08452  0.38230  Biso   1.000  C
  C1492    1.0000 0.68807  0.10896  0.40524  Biso   1.000  C
  C1493    1.0000 0.67962  0.11819  0.43724  Biso   1.000  C
  C1494    1.0000 0.65991  0.09773  0.43862  Biso   1.000  C
  C1495    1.0000 0.64685  0.07476  0.41383  Biso   1.000  C
  C1496    1.0000 0.65485  0.06675  0.38316  Biso   1.000  C
  C1497    1.0000 0.71048  0.00480  0.40938  Biso   1.000  C
  C1498    1.0000 0.69841  0.00268  0.43627  Biso   1.000  C
  C1499    1.0000 0.66248  0.99461  0.41128  Biso   1.000  C
  C1500    1.0000 0.63787  0.99078  0.36082  Biso   1.000  C
  C1501    1.0000 0.64868  0.99281  0.33262  Biso   1.000  C
  C1502    1.0000 0.68610  0.99941  0.35809  Biso   1.000  C
  C1503    1.0000 0.77643  0.93834  0.34570  Biso   1.000  C
  C1504    1.0000 0.77589  0.91166  0.36411  Biso   1.000  C
  C1505    1.0000 0.79899  0.89072  0.36756  Biso   1.000  C
  C1506    1.0000 0.81989  0.89583  0.35417  Biso   1.000  C
  C1507    1.0000 0.82109  0.92291  0.33877  Biso   1.000  C
  C1508    1.0000 0.79824  0.94390  0.33678  Biso   1.000  C
  C1509    1.0000 0.71408  0.96780  0.19115  Biso   1.000  C
  C1510    1.0000 0.72736  0.93999  0.20613  Biso   1.000  C
  C1511    1.0000 0.70493  0.91784  0.17213  Biso   1.000  C
  C1512    1.0000 0.66738  0.92665  0.11468  Biso   1.000  C
  C1513    1.0000 0.66304  0.95353  0.10265  Biso   1.000  C
  C1514    1.0000 0.68349  0.97385  0.12774  Biso   1.000  C
  C1515    1.0000 0.73058  0.99828  0.09738  Biso   1.000  C
  C1516    1.0000 0.75768  0.97919  0.14188  Biso   1.000  C
  C1517    1.0000 0.69862  0.94870  0.04680  Biso   1.000  C
  C1518    1.0000 0.69682  0.96524  0.02754  Biso   1.000  C
  C1519    1.0000 0.70764  0.99544  0.05379  Biso   1.000  C
  C1520    1.0000 0.70426  0.08001  0.95148  Biso   1.000  C
  C1521    1.0000 0.69450  0.06993  0.90701  Biso   1.000  C
  C1522    1.0000 0.67644  0.08690  0.86477  Biso   1.000  C
  C1523    1.0000 0.66103  0.11292  0.86513  Biso   1.000  C
  C1524    1.0000 0.67249  0.12268  0.91082  Biso   1.000  C
  C1525    1.0000 0.69405  0.10617  0.95303  Biso   1.000  C
  C1526    1.0000 0.63232  0.06137  0.97575  Biso   1.000  C
  C1527    1.0000 0.62967  0.03720  0.99168  Biso   1.000  C
  C1528    1.0000 0.60745  0.01494  0.95734  Biso   1.000  C
  C1529    1.0000 0.58842  0.02252  0.90559  Biso   1.000  C
  C1530    1.0000 0.59066  0.04560  0.89072  Biso   1.000  C
  C1531    1.0000 0.61414  0.06613  0.92425  Biso   1.000  C
  C1532    1.0000 0.55701  0.09225  0.99173  Biso   1.000  C
  C1533    1.0000 0.56281  0.07332  0.97773  Biso   1.000  C
  C1534    1.0000 0.53588  0.05701  0.93297  Biso   1.000  C
  C1535    1.0000 0.50483  0.06590  0.90181  Biso   1.000  C
  C1536    1.0000 0.49429  0.08920  0.90015  Biso   1.000  C
  C1537    1.0000 0.52347  0.10746  0.95818  Biso   1.000  C
  C1538    1.0000 0.51194  0.19105  0.96872  Biso   1.000  C
  C1539    1.0000 0.52784  0.17661  0.95417  Biso   1.000  C
  C1540    1.0000 0.50250  0.16478  0.90525  Biso   1.000  C
  C1541    1.0000 0.46539  0.16665  0.87465  Biso   1.000  C
  C1542    1.0000 0.45055  0.18187  0.89011  Biso   1.000  C
  C1543    1.0000 0.47382  0.19427  0.93745  Biso   1.000  C
  C1544    1.0000 0.96742  0.13164  0.40193  Biso   1.000  C
  C1545    1.0000 0.96154  0.15850  0.38608  Biso   1.000  C
  C1546    1.0000 0.98845  0.17654  0.39658  Biso   1.000  C
  C1547    1.0000 0.02534  0.16698  0.42708  Biso   1.000  C
  C1548    1.0000 0.03469  0.14101  0.44859  Biso   1.000  C
  C1549    1.0000 0.00744  0.12106  0.43540  Biso   1.000  C
  C1550    1.0000 0.43348  0.18855  0.04523  Biso   1.000  C
  C1551    1.0000 0.39558  0.18231  0.01730  Biso   1.000  C
  C1552    1.0000 0.38013  0.17572  0.03950  Biso   1.000  C
  C1553    1.0000 0.40889  0.17415  0.09493  Biso   1.000  C
  C1554    1.0000 0.44321  0.18193  0.12089  Biso   1.000  C
  C1555    1.0000 0.45663  0.19029  0.09515  Biso   1.000  C
  C1556    1.0000 0.49238  0.12297  0.07638  Biso   1.000  C
  C1557    1.0000 0.45164  0.12302  0.04022  Biso   1.000  C
  C1558    1.0000 0.43325  0.11359  0.05604  Biso   1.000  C
  C1559    1.0000 0.45951  0.10583  0.11507  Biso   1.000  C
  C1560    1.0000 0.49875  0.11182  0.15032  Biso   1.000  C
  C1561    1.0000 0.50979  0.12087  0.13317  Biso   1.000  C
  C1562    1.0000 0.64132  0.99422  0.21124  Biso   1.000  C
  C1563    1.0000 0.61099  0.99650  0.16321  Biso   1.000  C
  C1564    1.0000 0.57843  0.97570  0.13575  Biso   1.000  C
  C1565    1.0000 0.59118  0.95217  0.16279  Biso   1.000  C
  C1566    1.0000 0.62324  0.94800  0.21042  Biso   1.000  C
  C1567    1.0000 0.64536  0.97035  0.23327  Biso   1.000  C
  C1568    1.0000 0.55680  0.05340  0.08510  Biso   1.000  C
  S365     1.0000 0.36866  0.62023  0.22156  Biso   1.000  S
  S366     1.0000 0.24675  0.46230  0.34089  Biso   1.000  S
  S367     1.0000 0.24727  0.52997  0.12553  Biso   1.000  S
  S368     1.0000 0.30700  0.62495  0.06507  Biso   1.000  S
  S369     1.0000 0.35048  0.53584  0.24095  Biso   1.000  S
  S370     1.0000 0.41537  0.64610  0.46062  Biso   1.000  S
  S371     1.0000 0.11649  0.63542  0.23444  Biso   1.000  S
  S372     1.0000 0.25748  0.51421  0.44377  Biso   1.000  S
  S373     1.0000 0.27451  0.72774  0.37379  Biso   1.000  S
  S374     1.0000 0.34662  0.66306  0.47605  Biso   1.000  S
  S375     1.0000 0.05292  0.70448  0.15389  Biso   1.000  S
  S376     1.0000 0.18445  0.57313  0.34072  Biso   1.000  S
  S377     1.0000 0.30044  0.56771  0.97878  Biso   1.000  S
  S378     1.0000 0.16332  0.71643  0.27088  Biso   1.000  S
  S379     1.0000 0.94744  0.69615  0.01064  Biso   1.000  S
  S380     1.0000 0.30212  0.69207  0.13499  Biso   1.000  S
  S381     1.0000 0.38545  0.59156  0.34909  Biso   1.000  S
  S382     1.0000 0.38057  0.74414  0.48855  Biso   1.000  S
  S383     1.0000 0.12490  0.68304  0.03136  Biso   1.000  S
  S384     1.0000 0.22884  0.65126  0.36627  Biso   1.000  S
  S385     1.0000 0.01677  0.63535  0.06610  Biso   1.000  S
  S386     1.0000 0.33522  0.51559  0.33740  Biso   1.000  S
  S387     1.0000 0.30215  0.58828  0.45794  Biso   1.000  S
  S388     1.0000 0.34550  0.55431  0.12725  Biso   1.000  S
  S389     1.0000 0.09040  0.57657  0.14770  Biso   1.000  S
  S390     1.0000 0.34854  0.49496  0.46510  Biso   1.000  S
  S391     1.0000 0.24633  0.49293  0.22826  Biso   1.000  S
  S392     1.0000 0.38100  0.57009  0.45986  Biso   1.000  S
  S393     1.0000 0.19745  0.63138  0.13725  Biso   1.000  S
  S394     1.0000 0.34123  0.69917  0.36276  Biso   1.000  S
  S395     1.0000 0.27188  0.57255  0.23867  Biso   1.000  S
  S396     1.0000 0.36884  0.78088  0.37311  Biso   1.000  S
  S397     1.0000 0.23058  0.68113  0.25539  Biso   1.000  S
  S398     1.0000 0.19471  0.60080  0.24429  Biso   1.000  S
  S399     1.0000 0.30709  0.65271  0.24597  Biso   1.000  S
  S400     1.0000 0.30624  0.62224  0.35572  Biso   1.000  S
  S401     1.0000 0.12319  0.66003  0.14635  Biso   1.000  S
  S402     1.0000 0.26965  0.54445  0.34616  Biso   1.000  S
  S403     1.0000 0.27529  0.60021  0.13467  Biso   1.000  S
  S404     1.0000 0.08878  0.61466  0.03991  Biso   1.000  S
  S405     1.0000 0.23026  0.71633  0.14559  Biso   1.000  S
  S406     1.0000 0.25760  0.75902  0.26914  Biso   1.000  S
  S407     1.0000 0.15946  0.58931  0.01782  Biso   1.000  S
  S408     1.0000 0.45097  0.72206  0.46384  Biso   1.000  S
  S409     1.0000 0.04022  0.70753  0.02841  Biso   1.000  S
  S410     1.0000 0.21258  0.65843  0.04529  Biso   1.000  S
  S411     1.0000 0.34269  0.73060  0.26619  Biso   1.000  S
  S412     1.0000 0.17213  0.52164  0.24613  Biso   1.000  S
  S413     1.0000 0.23074  0.55739  0.00373  Biso   1.000  S
  S414     1.0000 0.41446  0.67135  0.34439  Biso   1.000  S
  S415     1.0000 0.14751  0.73254  0.15012  Biso   1.000  S
  S416     1.0000 0.16043  0.54863  0.12351  Biso   1.000  S
  Cd225    1.0000 0.18855  0.64260  0.19762  Biso   1.000  Cd
  Cd226    1.0000 0.26281  0.61452  0.19068  Biso   1.000  Cd
  Cd227    1.0000 0.26071  0.58574  0.29598  Biso   1.000  Cd
  Cd228    1.0000 0.29483  0.66278  0.30313  Biso   1.000  Cd
  Cd229    1.0000 0.15183  0.59290  0.08277  Biso   1.000  Cd
  Cd230    1.0000 0.21658  0.72212  0.20074  Biso   1.000  Cd
  Cd231    1.0000 0.37061  0.63080  0.29427  Biso   1.000  Cd
  Cd232    1.0000 0.37222  0.60695  0.40197  Biso   1.000  Cd
  Cd233    1.0000 0.29127  0.63251  0.41060  Biso   1.000  Cd
  Cd234    1.0000 0.32251  0.74355  0.31484  Biso   1.000  Cd
  Cd235    1.0000 0.19524  0.67491  0.09566  Biso   1.000  Cd
  Cd236    1.0000 0.29370  0.69721  0.19855  Biso   1.000  Cd
  Cd237    1.0000 0.22648  0.53659  0.17524  Biso   1.000  Cd
  Cd238    1.0000 0.40597  0.68398  0.40449  Biso   1.000  Cd
  Cd239    1.0000 0.10841  0.69498  0.08311  Biso   1.000  Cd
  Cd240    1.0000 0.33779  0.70591  0.42983  Biso   1.000  Cd
  Cd241    1.0000 0.07964  0.61966  0.10304  Biso   1.000  Cd
  Cd242    1.0000 0.15538  0.56076  0.18642  Biso   1.000  Cd
  Cd243    1.0000 0.18336  0.61737  0.30101  Biso   1.000  Cd
  Cd244    1.0000 0.28178  0.64386  0.10317  Biso   1.000  Cd
  Cd245    1.0000 0.33795  0.55615  0.29439  Biso   1.000  Cd
  Cd246    1.0000 0.01596  0.68631  0.06625  Biso   1.000  Cd
  Cd247    1.0000 0.22326  0.57005  0.06567  Biso   1.000  Cd
  Cd248    1.0000 0.41384  0.76029  0.46036  Biso   1.000  Cd
  Cd249    1.0000 0.29366  0.57467  0.04244  Biso   1.000  Cd
  Cd250    1.0000 0.11677  0.68289  0.20393  Biso   1.000  Cd
  Cd251    1.0000 0.33724  0.53182  0.40684  Biso   1.000  Cd
  Cd252    1.0000 0.24992  0.55622  0.39483  Biso   1.000  Cd
  Cd253    1.0000 0.23673  0.50358  0.28835  Biso   1.000  Cd
  Cd254    1.0000 0.22488  0.69092  0.31993  Biso   1.000  Cd
  Cd255    1.0000 0.33541  0.57413  0.18354  Biso   1.000  Cd
  Cd256    1.0000 0.28743  0.52356  0.93191  Biso   1.000  Cd
  C1569    1.0000 0.41689  0.72712  0.54459  Biso   1.000  C
  C1570    1.0000 0.43016  0.73846  0.58961  Biso   1.000  C
  C1571    1.0000 0.45874  0.72566  0.63448  Biso   1.000  C
  C1572    1.0000 0.47406  0.70151  0.63433  Biso   1.000  C
  C1573    1.0000 0.46080  0.69017  0.58931  Biso   1.000  C
  C1574    1.0000 0.43222  0.70298  0.54444  Biso   1.000  C
  C1575    1.0000 0.46643  0.73405  0.43309  Biso   1.000  C
  C1576    1.0000 0.50499  0.73487  0.46206  Biso   1.000  C
  C1577    1.0000 0.51877  0.74285  0.44001  Biso   1.000  C
  C1578    1.0000 0.49458  0.74920  0.38776  Biso   1.000  C
  C1579    1.0000 0.45586  0.74786  0.35936  Biso   1.000  C
  C1580    1.0000 0.44204  0.73985  0.38191  Biso   1.000  C
  C1581    1.0000 0.34667  0.80593  0.38217  Biso   1.000  C
  C1582    1.0000 0.35763  0.83300  0.38700  Biso   1.000  C
  C1583    1.0000 0.34288  0.85380  0.39610  Biso   1.000  C
  C1584    1.0000 0.31480  0.84608  0.39545  Biso   1.000  C
  C1585    1.0000 0.30430  0.81921  0.39306  Biso   1.000  C
  C1586    1.0000 0.31992  0.79839  0.38441  Biso   1.000  C
  C1587    1.0000 0.34136  0.76054  0.23714  Biso   1.000  C
  C1588    1.0000 0.36350  0.78240  0.26647  Biso   1.000  C
  C1589    1.0000 0.36445  0.80695  0.24593  Biso   1.000  C
  C1590    1.0000 0.34189  0.80926  0.19484  Biso   1.000  C
  C1591    1.0000 0.31930  0.78657  0.16267  Biso   1.000  C
  C1592    1.0000 0.31981  0.76271  0.18534  Biso   1.000  C
  C1593    1.0000 0.25897  0.79003  0.24242  Biso   1.000  C
  C1594    1.0000 0.25299  0.81463  0.25735  Biso   1.000  C
  C1595    1.0000 0.25722  0.84047  0.23672  Biso   1.000  C
  C1596    1.0000 0.26326  0.83712  0.20437  Biso   1.000  C
  C1597    1.0000 0.26689  0.81392  0.18984  Biso   1.000  C
  C1598    1.0000 0.26461  0.78848  0.20965  Biso   1.000  C
  C1599    1.0000 0.26782  0.74821  0.40567  Biso   1.000  C
  C1600    1.0000 0.29373  0.75672  0.45346  Biso   1.000  C
  C1601    1.0000 0.28681  0.77138  0.48198  Biso   1.000  C
  C1602    1.0000 0.34013  0.67495  0.51516  Biso   1.000  C
  C1603    1.0000 0.30105  0.67543  0.49745  Biso   1.000  C
  C1604    1.0000 0.29815  0.68343  0.53446  Biso   1.000  C
  C1605    1.0000 0.32756  0.68974  0.58345  Biso   1.000  C
  C1606    1.0000 0.35612  0.69271  0.59607  Biso   1.000  C
  C1607    1.0000 0.36258  0.68630  0.55504  Biso   1.000  C
  C1608    1.0000 0.46448  0.63575  0.49710  Biso   1.000  C
  C1609    1.0000 0.49018  0.65217  0.51717  Biso   1.000  C
  C1610    1.0000 0.52814  0.64352  0.55200  Biso   1.000  C
  C1611    1.0000 0.54029  0.61915  0.55120  Biso   1.000  C
  C1612    1.0000 0.50948  0.59828  0.52105  Biso   1.000  C
  C1613    1.0000 0.46998  0.60629  0.49488  Biso   1.000  C
  C1614    1.0000 0.34090  0.52121  0.12707  Biso   1.000  C
  C1615    1.0000 0.36692  0.50405  0.17245  Biso   1.000  C
  C1616    1.0000 0.35986  0.47303  0.17535  Biso   1.000  C
  C1617    1.0000 0.33031  0.46334  0.12712  Biso   1.000  C
  C1618    1.0000 0.30476  0.47757  0.08375  Biso   1.000  C
  C1619    1.0000 0.30935  0.50820  0.08622  Biso   1.000  C
  C1620    1.0000 0.34462  0.57812  0.01202  Biso   1.000  C
  C1621    1.0000 0.34412  0.60844  0.99296  Biso   1.000  C
  C1622    1.0000 0.38323  0.62404  0.03560  Biso   1.000  C
  C1623    1.0000 0.41368  0.59987  0.07011  Biso   1.000  C
  C1624    1.0000 0.41109  0.57595  0.08321  Biso   1.000  C
  C1625    1.0000 0.37264  0.56424  0.05371  Biso   1.000  C
  C1626    1.0000 0.36479  0.48912  0.34612  Biso   1.000  C
  C1627    1.0000 0.39449  0.48301  0.39581  Biso   1.000  C
  C1628    1.0000 0.41778  0.45907  0.39890  Biso   1.000  C
  C1629    1.0000 0.40178  0.44852  0.34962  Biso   1.000  C
  C1630    1.0000 0.36769  0.45040  0.28851  Biso   1.000  C
  C1631    1.0000 0.34603  0.47586  0.29184  Biso   1.000  C
  C1632    1.0000 0.41224  0.62024  0.24160  Biso   1.000  C
  C1633    1.0000 0.44287  0.62889  0.28730  Biso   1.000  C
  C1634    1.0000 0.48091  0.63125  0.30199  Biso   1.000  C
  C1635    1.0000 0.48974  0.61152  0.29154  Biso   1.000  C
  C1636    1.0000 0.46654  0.59020  0.26445  Biso   1.000  C
  C1637    1.0000 0.42914  0.59181  0.24127  Biso   1.000  C
  C1638    1.0000 0.34845  0.69989  0.16537  Biso   1.000  C
  C1639    1.0000 0.37683  0.69610  0.21468  Biso   1.000  C
  C1640    1.0000 0.41291  0.70587  0.23832  Biso   1.000  C
  C1641    1.0000 0.41830  0.71794  0.20940  Biso   1.000  C
  C1642    1.0000 0.39193  0.72189  0.16088  Biso   1.000  C
  C1643    1.0000 0.35374  0.71260  0.13429  Biso   1.000  C
  C1644    1.0000 0.13819  0.76510  0.12157  Biso   1.000  C
  C1645    1.0000 0.16721  0.78245  0.13527  Biso   1.000  C
  C1646    1.0000 0.15916  0.80808  0.11171  Biso   1.000  C
  C1647    1.0000 0.12169  0.81797  0.07794  Biso   1.000  C
  C1648    1.0000 0.09516  0.80008  0.06459  Biso   1.000  C
  C1649    1.0000 0.10150  0.77417  0.08521  Biso   1.000  C
  C1650    1.0000 0.15349  0.71601  0.31110  Biso   1.000  C
  C1651    1.0000 0.15605  0.69354  0.33372  Biso   1.000  C
  C1652    1.0000 0.14543  0.69345  0.36481  Biso   1.000  C
  C1653    1.0000 0.13663  0.71727  0.37323  Biso   1.000  C
  C1654    1.0000 0.13491  0.73934  0.35286  Biso   1.000  C
  C1655    1.0000 0.14862  0.74051  0.32401  Biso   1.000  C
  C1656    1.0000 0.29452  0.59895  0.49974  Biso   1.000  C
  C1657    1.0000 0.28589  0.62908  0.49975  Biso   1.000  C
  C1658    1.0000 0.28192  0.63803  0.53644  Biso   1.000  C
  C1659    1.0000 0.26674  0.61680  0.55364  Biso   1.000  C
  C1660    1.0000 0.26420  0.59125  0.53363  Biso   1.000  C
  C1661    1.0000 0.27485  0.58380  0.50576  Biso   1.000  C
  C1662    1.0000 0.42517  0.55291  0.48461  Biso   1.000  C
  C1663    1.0000 0.43840  0.54840  0.53215  Biso   1.000  C
  C1664    1.0000 0.47465  0.53824  0.56953  Biso   1.000  C
  C1665    1.0000 0.48846  0.53368  0.54770  Biso   1.000  C
  C1666    1.0000 0.42926  0.54530  0.45237  Biso   1.000  C
  C1667    1.0000 0.37551  0.50479  0.52541  Biso   1.000  C
  C1668    1.0000 0.41291  0.49321  0.56059  Biso   1.000  C
  C1669    1.0000 0.42609  0.50651  0.61944  Biso   1.000  C
  C1670    1.0000 0.40852  0.52853  0.61518  Biso   1.000  C
  C1671    1.0000 0.37617  0.53823  0.57875  Biso   1.000  C
  C1672    1.0000 0.35989  0.52721  0.53387  Biso   1.000  C
  C1673    1.0000 0.38165  0.47445  0.48024  Biso   1.000  C
  C1674    1.0000 0.41705  0.48349  0.50893  Biso   1.000  C
  C1675    1.0000 0.44749  0.45767  0.52317  Biso   1.000  C
  C1676    1.0000 0.42998  0.43968  0.49846  Biso   1.000  C
  C1677    1.0000 0.39539  0.42866  0.46540  Biso   1.000  C
  C1678    1.0000 0.37305  0.44670  0.46261  Biso   1.000  C
  C1679    1.0000 0.40006  0.53495  0.28642  Biso   1.000  C
  C1680    1.0000 0.42290  0.50672  0.31818  Biso   1.000  C
  C1681    1.0000 0.45874  0.50901  0.32985  Biso   1.000  C
  C1682    1.0000 0.47894  0.53353  0.35628  Biso   1.000  C
  C1683    1.0000 0.46493  0.55669  0.33387  Biso   1.000  C
  C1684    1.0000 0.42232  0.55865  0.29673  Biso   1.000  C
  C1685    1.0000 0.29927  0.64440  0.01951  Biso   1.000  C
  C1686    1.0000 0.32431  0.66572  0.03442  Biso   1.000  C
  C1687    1.0000 0.31425  0.68330  0.99146  Biso   1.000  C
  C1688    1.0000 0.28576  0.67599  0.94339  Biso   1.000  C
  C1689    1.0000 0.26248  0.65308  0.92957  Biso   1.000  C
  C1690    1.0000 0.26934  0.63771  0.96871  Biso   1.000  C
  C1691    1.0000 0.21316  0.68839  0.01696  Biso   1.000  C
  C1692    1.0000 0.22749  0.68482  0.99288  Biso   1.000  C
  C1693    1.0000 0.22755  0.70815  0.96790  Biso   1.000  C
  C1694    1.0000 0.21147  0.73213  0.96410  Biso   1.000  C
  C1695    1.0000 0.19736  0.73568  0.98849  Biso   1.000  C
  C1696    1.0000 0.19875  0.71314  0.01484  Biso   1.000  C
  C1697    1.0000 0.11626  0.71515  0.00080  Biso   1.000  C
  C1698    1.0000 0.09054  0.71522  0.94843  Biso   1.000  C
  C1699    1.0000 0.08466  0.74129  0.92387  Biso   1.000  C
  C1700    1.0000 0.10160  0.76404  0.95049  Biso   1.000  C
  C1701    1.0000 0.12614  0.76435  0.00216  Biso   1.000  C
  C1702    1.0000 0.13385  0.73893  0.02721  Biso   1.000  C
  C1703    1.0000 0.05640  0.74132  0.14690  Biso   1.000  C
  C1704    1.0000 0.03153  0.75446  0.10394  Biso   1.000  C
  C1705    1.0000 0.03366  0.78354  0.10046  Biso   1.000  C
  C1706    1.0000 0.05944  0.79806  0.14073  Biso   1.000  C
  C1707    1.0000 0.08169  0.78413  0.18636  Biso   1.000  C
  C1708    1.0000 0.08011  0.75478  0.19232  Biso   1.000  C
  C1709    1.0000 0.09197  0.63511  0.25500  Biso   1.000  C
  C1710    1.0000 0.06316  0.65058  0.23251  Biso   1.000  C
  C1711    1.0000 0.04668  0.65832  0.26284  Biso   1.000  C
  C1712    1.0000 0.05249  0.63463  0.28794  Biso   1.000  C
  C1713    1.0000 0.07784  0.61768  0.30326  Biso   1.000  C
  C1714    1.0000 0.09986  0.62142  0.28984  Biso   1.000  C
  C1715    1.0000 0.17741  0.58452  0.38230  Biso   1.000  C
  C1716    1.0000 0.18807  0.60896  0.40524  Biso   1.000  C
  C1717    1.0000 0.17962  0.61819  0.43724  Biso   1.000  C
  C1718    1.0000 0.15991  0.59773  0.43862  Biso   1.000  C
  C1719    1.0000 0.14685  0.57476  0.41383  Biso   1.000  C
  C1720    1.0000 0.15485  0.56675  0.38316  Biso   1.000  C
  C1721    1.0000 0.21048  0.50480  0.40938  Biso   1.000  C
  C1722    1.0000 0.19841  0.50268  0.43627  Biso   1.000  C
  C1723    1.0000 0.16248  0.49461  0.41128  Biso   1.000  C
  C1724    1.0000 0.13787  0.49078  0.36082  Biso   1.000  C
  C1725    1.0000 0.14868  0.49281  0.33262  Biso   1.000  C
  C1726    1.0000 0.18610  0.49941  0.35809  Biso   1.000  C
  C1727    1.0000 0.27643  0.43834  0.34570  Biso   1.000  C
  C1728    1.0000 0.27589  0.41166  0.36411  Biso   1.000  C
  C1729    1.0000 0.29899  0.39072  0.36756  Biso   1.000  C
  C1730    1.0000 0.31989  0.39583  0.35417  Biso   1.000  C
  C1731    1.0000 0.32109  0.42291  0.33877  Biso   1.000  C
  C1732    1.0000 0.29824  0.44390  0.33678  Biso   1.000  C
  C1733    1.0000 0.21408  0.46780  0.19115  Biso   1.000  C
  C1734    1.0000 0.22736  0.43999  0.20613  Biso   1.000  C
  C1735    1.0000 0.20493  0.41784  0.17213  Biso   1.000  C
  C1736    1.0000 0.16738  0.42665  0.11468  Biso   1.000  C
  C1737    1.0000 0.16304  0.45353  0.10265  Biso   1.000  C
  C1738    1.0000 0.18349  0.47385  0.12774  Biso   1.000  C
  C1739    1.0000 0.23058  0.49828  0.09738  Biso   1.000  C
  C1740    1.0000 0.25768  0.47919  0.14188  Biso   1.000  C
  C1741    1.0000 0.19862  0.44870  0.04680  Biso   1.000  C
  C1742    1.0000 0.19682  0.46524  0.02754  Biso   1.000  C
  C1743    1.0000 0.20764  0.49544  0.05379  Biso   1.000  C
  C1744    1.0000 0.20426  0.58001  0.95148  Biso   1.000  C
  C1745    1.0000 0.19450  0.56993  0.90701  Biso   1.000  C
  C1746    1.0000 0.17644  0.58690  0.86477  Biso   1.000  C
  C1747    1.0000 0.16103  0.61292  0.86513  Biso   1.000  C
  C1748    1.0000 0.17249  0.62268  0.91082  Biso   1.000  C
  C1749    1.0000 0.19405  0.60617  0.95303  Biso   1.000  C
  C1750    1.0000 0.13232  0.56137  0.97575  Biso   1.000  C
  C1751    1.0000 0.12967  0.53720  0.99168  Biso   1.000  C
  C1752    1.0000 0.10745  0.51494  0.95734  Biso   1.000  C
  C1753    1.0000 0.08842  0.52252  0.90559  Biso   1.000  C
  C1754    1.0000 0.09066  0.54560  0.89072  Biso   1.000  C
  C1755    1.0000 0.11414  0.56613  0.92425  Biso   1.000  C
  C1756    1.0000 0.05701  0.59225  0.99173  Biso   1.000  C
  C1757    1.0000 0.06281  0.57332  0.97773  Biso   1.000  C
  C1758    1.0000 0.03588  0.55701  0.93297  Biso   1.000  C
  C1759    1.0000 0.00483  0.56590  0.90181  Biso   1.000  C
  C1760    1.0000 0.99429  0.58920  0.90015  Biso   1.000  C
  C1761    1.0000 0.02347  0.60746  0.95818  Biso   1.000  C
  C1762    1.0000 0.01194  0.69105  0.96872  Biso   1.000  C
  C1763    1.0000 0.02784  0.67661  0.95417  Biso   1.000  C
  C1764    1.0000 0.00250  0.66478  0.90525  Biso   1.000  C
  C1765    1.0000 0.96539  0.66665  0.87465  Biso   1.000  C
  C1766    1.0000 0.95055  0.68187  0.89011  Biso   1.000  C
  C1767    1.0000 0.97382  0.69427  0.93745  Biso   1.000  C
  C1768    1.0000 0.46742  0.63164  0.40193  Biso   1.000  C
  C1769    1.0000 0.46154  0.65850  0.38608  Biso   1.000  C
  C1770    1.0000 0.48845  0.67654  0.39658  Biso   1.000  C
  C1771    1.0000 0.52534  0.66698  0.42708  Biso   1.000  C
  C1772    1.0000 0.53469  0.64101  0.44859  Biso   1.000  C
  C1773    1.0000 0.50744  0.62106  0.43540  Biso   1.000  C
  C1774    1.0000 0.93348  0.68855  0.04523  Biso   1.000  C
  C1775    1.0000 0.89558  0.68231  0.01730  Biso   1.000  C
  C1776    1.0000 0.88013  0.67572  0.03950  Biso   1.000  C
  C1777    1.0000 0.90889  0.67415  0.09493  Biso   1.000  C
  C1778    1.0000 0.94321  0.68193  0.12089  Biso   1.000  C
  C1779    1.0000 0.95663  0.69029  0.09515  Biso   1.000  C
  C1780    1.0000 0.99238  0.62297  0.07638  Biso   1.000  C
  C1781    1.0000 0.95164  0.62302  0.04022  Biso   1.000  C
  C1782    1.0000 0.93325  0.61359  0.05604  Biso   1.000  C
  C1783    1.0000 0.95951  0.60583  0.11507  Biso   1.000  C
  C1784    1.0000 0.99875  0.61182  0.15032  Biso   1.000  C
  C1785    1.0000 0.00979  0.62087  0.13317  Biso   1.000  C
  C1786    1.0000 0.14132  0.49422  0.21124  Biso   1.000  C
  C1787    1.0000 0.11099  0.49650  0.16321  Biso   1.000  C
  C1788    1.0000 0.07843  0.47570  0.13575  Biso   1.000  C
  C1789    1.0000 0.09118  0.45217  0.16279  Biso   1.000  C
  C1790    1.0000 0.12324  0.44800  0.21042  Biso   1.000  C
  C1791    1.0000 0.14536  0.47035  0.23327  Biso   1.000  C
  C1792    1.0000 0.05680  0.55340  0.08510  Biso   1.000  C
