data_image0
_cell_length_a       27.4756
_cell_length_b       27.4756
_cell_length_c       27.4756
_cell_angle_alpha    90
_cell_angle_beta     90
_cell_angle_gamma    90

_symmetry_space_group_name_H-M    "P 1"
_symmetry_int_tables_number       1

loop_
  _symmetry_equiv_pos_as_xyz
  'x, y, z'

loop_
  _atom_site_label
  _atom_site_occupancy
  _atom_site_fract_x
  _atom_site_fract_y
  _atom_site_fract_z
  _atom_site_thermal_displace_type
  _atom_site_B_iso_or_equiv
  _atom_site_type_symbol
  C1       1.0000 0.29330  0.85280  0.51620  Biso   1.000  C
  H1       1.0000 0.28600  0.88470  0.52740  Biso   1.000  H
  C2       1.0000 0.25740  0.81650  0.51520  Biso   1.000  C
  H2       1.0000 0.22500  0.82370  0.52480  Biso   1.000  H
  F1       1.0000 0.27510  0.89640  0.53130  Biso   1.000  F
  C3       1.0000 0.29330  0.35280  0.01620  Biso   1.000  C
  H3       1.0000 0.28600  0.38470  0.02740  Biso   1.000  H
  C4       1.0000 0.25740  0.31650  0.01520  Biso   1.000  C
  H4       1.0000 0.22500  0.32370  0.02480  Biso   1.000  H
  F2       1.0000 0.27510  0.39640  0.03130  Biso   1.000  F
  C5       1.0000 0.79330  0.85280  0.01620  Biso   1.000  C
  H5       1.0000 0.78600  0.88470  0.02740  Biso   1.000  H
  C6       1.0000 0.75740  0.81650  0.01520  Biso   1.000  C
  H6       1.0000 0.72500  0.82370  0.02480  Biso   1.000  H
  F3       1.0000 0.77510  0.89640  0.03130  Biso   1.000  F
  C7       1.0000 0.79330  0.35280  0.51620  Biso   1.000  C
  H7       1.0000 0.78600  0.38470  0.52740  Biso   1.000  H
  C8       1.0000 0.75740  0.31650  0.51520  Biso   1.000  C
  H8       1.0000 0.72500  0.32370  0.52480  Biso   1.000  H
  F4       1.0000 0.77510  0.39640  0.53130  Biso   1.000  F
  C9       1.0000 0.70670  0.14720  0.51620  Biso   1.000  C
  H9       1.0000 0.71400  0.11530  0.52740  Biso   1.000  H
  C10      1.0000 0.74260  0.18350  0.51520  Biso   1.000  C
  H10      1.0000 0.77500  0.17630  0.52480  Biso   1.000  H
  F5       1.0000 0.72490  0.10360  0.53130  Biso   1.000  F
  C11      1.0000 0.70670  0.64720  0.01620  Biso   1.000  C
  H11      1.0000 0.71400  0.61530  0.02740  Biso   1.000  H
  C12      1.0000 0.74260  0.68350  0.01520  Biso   1.000  C
  H12      1.0000 0.77500  0.67630  0.02480  Biso   1.000  H
  F6       1.0000 0.72490  0.60360  0.03130  Biso   1.000  F
  C13      1.0000 0.20670  0.14720  0.01620  Biso   1.000  C
  H13      1.0000 0.21400  0.11530  0.02740  Biso   1.000  H
  C14      1.0000 0.24260  0.18350  0.01520  Biso   1.000  C
  H14      1.0000 0.27500  0.17630  0.02480  Biso   1.000  H
  F7       1.0000 0.22490  0.10360  0.03130  Biso   1.000  F
  C15      1.0000 0.20670  0.64720  0.51620  Biso   1.000  C
  H15      1.0000 0.21400  0.61530  0.52740  Biso   1.000  H
  C16      1.0000 0.24260  0.68350  0.51520  Biso   1.000  C
  H16      1.0000 0.27500  0.67630  0.52480  Biso   1.000  H
  F8       1.0000 0.22490  0.60360  0.53130  Biso   1.000  F
  C17      1.0000 0.70670  0.85280  0.48380  Biso   1.000  C
  H17      1.0000 0.71400  0.88470  0.47260  Biso   1.000  H
  C18      1.0000 0.74260  0.81650  0.48480  Biso   1.000  C
  H18      1.0000 0.77500  0.82370  0.47520  Biso   1.000  H
  F9       1.0000 0.72490  0.89640  0.46870  Biso   1.000  F
  C19      1.0000 0.70670  0.35280  0.98380  Biso   1.000  C
  H19      1.0000 0.71400  0.38470  0.97260  Biso   1.000  H
  C20      1.0000 0.74260  0.31650  0.98480  Biso   1.000  C
  H20      1.0000 0.77500  0.32370  0.97520  Biso   1.000  H
  F10      1.0000 0.72490  0.39640  0.96870  Biso   1.000  F
  C21      1.0000 0.20670  0.85280  0.98380  Biso   1.000  C
  H21      1.0000 0.21400  0.88470  0.97260  Biso   1.000  H
  C22      1.0000 0.24260  0.81650  0.98480  Biso   1.000  C
  H22      1.0000 0.27500  0.82370  0.97520  Biso   1.000  H
  F11      1.0000 0.22490  0.89640  0.96870  Biso   1.000  F
  C23      1.0000 0.20670  0.35280  0.48380  Biso   1.000  C
  H23      1.0000 0.21400  0.38470  0.47260  Biso   1.000  H
  C24      1.0000 0.24260  0.31650  0.48480  Biso   1.000  C
  H24      1.0000 0.27500  0.32370  0.47520  Biso   1.000  H
  F12      1.0000 0.22490  0.39640  0.46870  Biso   1.000  F
  C25      1.0000 0.29330  0.14720  0.48380  Biso   1.000  C
  H25      1.0000 0.28600  0.11530  0.47260  Biso   1.000  H
  C26      1.0000 0.25740  0.18350  0.48480  Biso   1.000  C
  H26      1.0000 0.22500  0.17630  0.47520  Biso   1.000  H
  F13      1.0000 0.27510  0.10360  0.46870  Biso   1.000  F
  C27      1.0000 0.29330  0.64720  0.98380  Biso   1.000  C
  H27      1.0000 0.28600  0.61530  0.97260  Biso   1.000  H
  C28      1.0000 0.25740  0.68350  0.98480  Biso   1.000  C
  H28      1.0000 0.22500  0.67630  0.97520  Biso   1.000  H
  F14      1.0000 0.27510  0.60360  0.96870  Biso   1.000  F
  C29      1.0000 0.79330  0.14720  0.98380  Biso   1.000  C
  H29      1.0000 0.78600  0.11530  0.97260  Biso   1.000  H
  C30      1.0000 0.75740  0.18350  0.98480  Biso   1.000  C
  H30      1.0000 0.72500  0.17630  0.97520  Biso   1.000  H
  F15      1.0000 0.77510  0.10360  0.96870  Biso   1.000  F
  C31      1.0000 0.79330  0.64720  0.48380  Biso   1.000  C
  H31      1.0000 0.78600  0.61530  0.47260  Biso   1.000  H
  C32      1.0000 0.75740  0.68350  0.48480  Biso   1.000  C
  H32      1.0000 0.72500  0.67630  0.47520  Biso   1.000  H
  F16      1.0000 0.77510  0.60360  0.46870  Biso   1.000  F
  C33      1.0000 0.51620  0.29330  0.85280  Biso   1.000  C
  H33      1.0000 0.52740  0.28600  0.88470  Biso   1.000  H
  C34      1.0000 0.51520  0.25740  0.81650  Biso   1.000  C
  H34      1.0000 0.52480  0.22500  0.82370  Biso   1.000  H
  F17      1.0000 0.53130  0.27510  0.89640  Biso   1.000  F
  C35      1.0000 0.51620  0.79330  0.35280  Biso   1.000  C
  H35      1.0000 0.52740  0.78600  0.38470  Biso   1.000  H
  C36      1.0000 0.51520  0.75740  0.31650  Biso   1.000  C
  H36      1.0000 0.52480  0.72500  0.32370  Biso   1.000  H
  F18      1.0000 0.53130  0.77510  0.39640  Biso   1.000  F
  C37      1.0000 0.01620  0.29330  0.35280  Biso   1.000  C
  H37      1.0000 0.02740  0.28600  0.38470  Biso   1.000  H
  C38      1.0000 0.01520  0.25740  0.31650  Biso   1.000  C
  H38      1.0000 0.02480  0.22500  0.32370  Biso   1.000  H
  F19      1.0000 0.03130  0.27510  0.39640  Biso   1.000  F
  C39      1.0000 0.01620  0.79330  0.85280  Biso   1.000  C
  H39      1.0000 0.02740  0.78600  0.88470  Biso   1.000  H
  C40      1.0000 0.01520  0.75740  0.81650  Biso   1.000  C
  H40      1.0000 0.02480  0.72500  0.82370  Biso   1.000  H
  F20      1.0000 0.03130  0.77510  0.89640  Biso   1.000  F
  C41      1.0000 0.51620  0.70670  0.14720  Biso   1.000  C
  H41      1.0000 0.52740  0.71400  0.11530  Biso   1.000  H
  C42      1.0000 0.51520  0.74260  0.18350  Biso   1.000  C
  H42      1.0000 0.52480  0.77500  0.17630  Biso   1.000  H
  F21      1.0000 0.53130  0.72490  0.10360  Biso   1.000  F
  C43      1.0000 0.51620  0.20670  0.64720  Biso   1.000  C
  H43      1.0000 0.52740  0.21400  0.61530  Biso   1.000  H
  C44      1.0000 0.51520  0.24260  0.68350  Biso   1.000  C
  H44      1.0000 0.52480  0.27500  0.67630  Biso   1.000  H
  F22      1.0000 0.53130  0.22490  0.60360  Biso   1.000  F
  C45      1.0000 0.01620  0.70670  0.64720  Biso   1.000  C
  H45      1.0000 0.02740  0.71400  0.61530  Biso   1.000  H
  C46      1.0000 0.01520  0.74260  0.68350  Biso   1.000  C
  H46      1.0000 0.02480  0.77500  0.67630  Biso   1.000  H
  F23      1.0000 0.03130  0.72490  0.60360  Biso   1.000  F
  C47      1.0000 0.01620  0.20670  0.14720  Biso   1.000  C
  H47      1.0000 0.02740  0.21400  0.11530  Biso   1.000  H
  C48      1.0000 0.01520  0.24260  0.18350  Biso   1.000  C
  H48      1.0000 0.02480  0.27500  0.17630  Biso   1.000  H
  F24      1.0000 0.03130  0.22490  0.10360  Biso   1.000  F
  C49      1.0000 0.48380  0.70670  0.85280  Biso   1.000  C
  H49      1.0000 0.47260  0.71400  0.88470  Biso   1.000  H
  C50      1.0000 0.48480  0.74260  0.81650  Biso   1.000  C
  H50      1.0000 0.47520  0.77500  0.82370  Biso   1.000  H
  F25      1.0000 0.46870  0.72490  0.89640  Biso   1.000  F
  C51      1.0000 0.48380  0.20670  0.35280  Biso   1.000  C
  H51      1.0000 0.47260  0.21400  0.38470  Biso   1.000  H
  C52      1.0000 0.48480  0.24260  0.31650  Biso   1.000  C
  H52      1.0000 0.47520  0.27500  0.32370  Biso   1.000  H
  F26      1.0000 0.46870  0.22490  0.39640  Biso   1.000  F
  C53      1.0000 0.98380  0.70670  0.35280  Biso   1.000  C
  H53      1.0000 0.97260  0.71400  0.38470  Biso   1.000  H
  C54      1.0000 0.98480  0.74260  0.31650  Biso   1.000  C
  H54      1.0000 0.97520  0.77500  0.32370  Biso   1.000  H
  F27      1.0000 0.96870  0.72490  0.39640  Biso   1.000  F
  C55      1.0000 0.98380  0.20670  0.85280  Biso   1.000  C
  H55      1.0000 0.97260  0.21400  0.88470  Biso   1.000  H
  C56      1.0000 0.98480  0.24260  0.81650  Biso   1.000  C
  H56      1.0000 0.97520  0.27500  0.82370  Biso   1.000  H
  F28      1.0000 0.96870  0.22490  0.89640  Biso   1.000  F
  C57      1.0000 0.48380  0.29330  0.14720  Biso   1.000  C
  H57      1.0000 0.47260  0.28600  0.11530  Biso   1.000  H
  C58      1.0000 0.48480  0.25740  0.18350  Biso   1.000  C
  H58      1.0000 0.47520  0.22500  0.17630  Biso   1.000  H
  F29      1.0000 0.46870  0.27510  0.10360  Biso   1.000  F
  C59      1.0000 0.48380  0.79330  0.64720  Biso   1.000  C
  H59      1.0000 0.47260  0.78600  0.61530  Biso   1.000  H
  C60      1.0000 0.48480  0.75740  0.68350  Biso   1.000  C
  H60      1.0000 0.47520  0.72500  0.67630  Biso   1.000  H
  F30      1.0000 0.46870  0.77510  0.60360  Biso   1.000  F
  C61      1.0000 0.98380  0.29330  0.64720  Biso   1.000  C
  H61      1.0000 0.97260  0.28600  0.61530  Biso   1.000  H
  C62      1.0000 0.98480  0.25740  0.68350  Biso   1.000  C
  H62      1.0000 0.97520  0.22500  0.67630  Biso   1.000  H
  F31      1.0000 0.96870  0.27510  0.60360  Biso   1.000  F
  C63      1.0000 0.98380  0.79330  0.14720  Biso   1.000  C
  H63      1.0000 0.97260  0.78600  0.11530  Biso   1.000  H
  C64      1.0000 0.98480  0.75740  0.18350  Biso   1.000  C
  H64      1.0000 0.97520  0.72500  0.17630  Biso   1.000  H
  F32      1.0000 0.96870  0.77510  0.10360  Biso   1.000  F
  C65      1.0000 0.85280  0.51620  0.29330  Biso   1.000  C
  H65      1.0000 0.88470  0.52740  0.28600  Biso   1.000  H
  C66      1.0000 0.81650  0.51520  0.25740  Biso   1.000  C
  H66      1.0000 0.82370  0.52480  0.22500  Biso   1.000  H
  F33      1.0000 0.89640  0.53130  0.27510  Biso   1.000  F
  C67      1.0000 0.85280  0.01620  0.79330  Biso   1.000  C
  H67      1.0000 0.88470  0.02740  0.78600  Biso   1.000  H
  C68      1.0000 0.81650  0.01520  0.75740  Biso   1.000  C
  H68      1.0000 0.82370  0.02480  0.72500  Biso   1.000  H
  F34      1.0000 0.89640  0.03130  0.77510  Biso   1.000  F
  C69      1.0000 0.35280  0.51620  0.79330  Biso   1.000  C
  H69      1.0000 0.38470  0.52740  0.78600  Biso   1.000  H
  C70      1.0000 0.31650  0.51520  0.75740  Biso   1.000  C
  H70      1.0000 0.32370  0.52480  0.72500  Biso   1.000  H
  F35      1.0000 0.39640  0.53130  0.77510  Biso   1.000  F
  C71      1.0000 0.35280  0.01620  0.29330  Biso   1.000  C
  H71      1.0000 0.38470  0.02740  0.28600  Biso   1.000  H
  C72      1.0000 0.31650  0.01520  0.25740  Biso   1.000  C
  H72      1.0000 0.32370  0.02480  0.22500  Biso   1.000  H
  F36      1.0000 0.39640  0.03130  0.27510  Biso   1.000  F
  C73      1.0000 0.14720  0.51620  0.70670  Biso   1.000  C
  H73      1.0000 0.11530  0.52740  0.71400  Biso   1.000  H
  C74      1.0000 0.18350  0.51520  0.74260  Biso   1.000  C
  H74      1.0000 0.17630  0.52480  0.77500  Biso   1.000  H
  F37      1.0000 0.10360  0.53130  0.72490  Biso   1.000  F
  C75      1.0000 0.14720  0.01620  0.20670  Biso   1.000  C
  H75      1.0000 0.11530  0.02740  0.21400  Biso   1.000  H
  C76      1.0000 0.18350  0.01520  0.24260  Biso   1.000  C
  H76      1.0000 0.17630  0.02480  0.27500  Biso   1.000  H
  F38      1.0000 0.10360  0.03130  0.22490  Biso   1.000  F
  C77      1.0000 0.64720  0.51620  0.20670  Biso   1.000  C
  H77      1.0000 0.61530  0.52740  0.21400  Biso   1.000  H
  C78      1.0000 0.68350  0.51520  0.24260  Biso   1.000  C
  H78      1.0000 0.67630  0.52480  0.27500  Biso   1.000  H
  F39      1.0000 0.60360  0.53130  0.22490  Biso   1.000  F
  C79      1.0000 0.64720  0.01620  0.70670  Biso   1.000  C
  H79      1.0000 0.61530  0.02740  0.71400  Biso   1.000  H
  C80      1.0000 0.68350  0.01520  0.74260  Biso   1.000  C
  H80      1.0000 0.67630  0.02480  0.77500  Biso   1.000  H
  F40      1.0000 0.60360  0.03130  0.72490  Biso   1.000  F
  C81      1.0000 0.85280  0.48380  0.70670  Biso   1.000  C
  H81      1.0000 0.88470  0.47260  0.71400  Biso   1.000  H
  C82      1.0000 0.81650  0.48480  0.74260  Biso   1.000  C
  H82      1.0000 0.82370  0.47520  0.77500  Biso   1.000  H
  F41      1.0000 0.89640  0.46870  0.72490  Biso   1.000  F
  C83      1.0000 0.85280  0.98380  0.20670  Biso   1.000  C
  H83      1.0000 0.88470  0.97260  0.21400  Biso   1.000  H
  C84      1.0000 0.81650  0.98480  0.24260  Biso   1.000  C
  H84      1.0000 0.82370  0.97520  0.27500  Biso   1.000  H
  F42      1.0000 0.89640  0.96870  0.22490  Biso   1.000  F
  C85      1.0000 0.35280  0.48380  0.20670  Biso   1.000  C
  H85      1.0000 0.38470  0.47260  0.21400  Biso   1.000  H
  C86      1.0000 0.31650  0.48480  0.24260  Biso   1.000  C
  H86      1.0000 0.32370  0.47520  0.27500  Biso   1.000  H
  F43      1.0000 0.39640  0.46870  0.22490  Biso   1.000  F
  C87      1.0000 0.35280  0.98380  0.70670  Biso   1.000  C
  H87      1.0000 0.38470  0.97260  0.71400  Biso   1.000  H
  C88      1.0000 0.31650  0.98480  0.74260  Biso   1.000  C
  H88      1.0000 0.32370  0.97520  0.77500  Biso   1.000  H
  F44      1.0000 0.39640  0.96870  0.72490  Biso   1.000  F
  C89      1.0000 0.14720  0.48380  0.29330  Biso   1.000  C
  H89      1.0000 0.11530  0.47260  0.28600  Biso   1.000  H
  C90      1.0000 0.18350  0.48480  0.25740  Biso   1.000  C
  H90      1.0000 0.17630  0.47520  0.22500  Biso   1.000  H
  F45      1.0000 0.10360  0.46870  0.27510  Biso   1.000  F
  C91      1.0000 0.14720  0.98380  0.79330  Biso   1.000  C
  H91      1.0000 0.11530  0.97260  0.78600  Biso   1.000  H
  C92      1.0000 0.18350  0.98480  0.75740  Biso   1.000  C
  H92      1.0000 0.17630  0.97520  0.72500  Biso   1.000  H
  F46      1.0000 0.10360  0.96870  0.77510  Biso   1.000  F
  C93      1.0000 0.64720  0.48380  0.79330  Biso   1.000  C
  H93      1.0000 0.61530  0.47260  0.78600  Biso   1.000  H
  C94      1.0000 0.68350  0.48480  0.75740  Biso   1.000  C
  H94      1.0000 0.67630  0.47520  0.72500  Biso   1.000  H
  F47      1.0000 0.60360  0.46870  0.77510  Biso   1.000  F
  C95      1.0000 0.64720  0.98380  0.29330  Biso   1.000  C
  H95      1.0000 0.61530  0.97260  0.28600  Biso   1.000  H
  C96      1.0000 0.68350  0.98480  0.25740  Biso   1.000  C
  H96      1.0000 0.67630  0.97520  0.22500  Biso   1.000  H
  F48      1.0000 0.60360  0.96870  0.27510  Biso   1.000  F
  C97      1.0000 0.85280  0.29330  0.48380  Biso   1.000  C
  H97      1.0000 0.88470  0.28600  0.47260  Biso   1.000  H
  C98      1.0000 0.81650  0.25740  0.48480  Biso   1.000  C
  H98      1.0000 0.82370  0.22500  0.47520  Biso   1.000  H
  F49      1.0000 0.89640  0.27510  0.46870  Biso   1.000  F
  C99      1.0000 0.85280  0.79330  0.98380  Biso   1.000  C
  H99      1.0000 0.88470  0.78600  0.97260  Biso   1.000  H
  C100     1.0000 0.81650  0.75740  0.98480  Biso   1.000  C
  H100     1.0000 0.82370  0.72500  0.97520  Biso   1.000  H
  F50      1.0000 0.89640  0.77510  0.96870  Biso   1.000  F
  C101     1.0000 0.35280  0.29330  0.98380  Biso   1.000  C
  H101     1.0000 0.38470  0.28600  0.97260  Biso   1.000  H
  C102     1.0000 0.31650  0.25740  0.98480  Biso   1.000  C
  H102     1.0000 0.32370  0.22500  0.97520  Biso   1.000  H
  F51      1.0000 0.39640  0.27510  0.96870  Biso   1.000  F
  C103     1.0000 0.35280  0.79330  0.48380  Biso   1.000  C
  H103     1.0000 0.38470  0.78600  0.47260  Biso   1.000  H
  C104     1.0000 0.31650  0.75740  0.48480  Biso   1.000  C
  H104     1.0000 0.32370  0.72500  0.47520  Biso   1.000  H
  F52      1.0000 0.39640  0.77510  0.46870  Biso   1.000  F
  C105     1.0000 0.14720  0.70670  0.48380  Biso   1.000  C
  H105     1.0000 0.11530  0.71400  0.47260  Biso   1.000  H
  C106     1.0000 0.18350  0.74260  0.48480  Biso   1.000  C
  H106     1.0000 0.17630  0.77500  0.47520  Biso   1.000  H
  F53      1.0000 0.10360  0.72490  0.46870  Biso   1.000  F
  C107     1.0000 0.14720  0.20670  0.98380  Biso   1.000  C
  H107     1.0000 0.11530  0.21400  0.97260  Biso   1.000  H
  C108     1.0000 0.18350  0.24260  0.98480  Biso   1.000  C
  H108     1.0000 0.17630  0.27500  0.97520  Biso   1.000  H
  F54      1.0000 0.10360  0.22490  0.96870  Biso   1.000  F
  C109     1.0000 0.64720  0.70670  0.98380  Biso   1.000  C
  H109     1.0000 0.61530  0.71400  0.97260  Biso   1.000  H
  C110     1.0000 0.68350  0.74260  0.98480  Biso   1.000  C
  H110     1.0000 0.67630  0.77500  0.97520  Biso   1.000  H
  F55      1.0000 0.60360  0.72490  0.96870  Biso   1.000  F
  C111     1.0000 0.64720  0.20670  0.48380  Biso   1.000  C
  H111     1.0000 0.61530  0.21400  0.47260  Biso   1.000  H
  C112     1.0000 0.68350  0.24260  0.48480  Biso   1.000  C
  H112     1.0000 0.67630  0.27500  0.47520  Biso   1.000  H
  F56      1.0000 0.60360  0.22490  0.46870  Biso   1.000  F
  C113     1.0000 0.85280  0.70670  0.51620  Biso   1.000  C
  H113     1.0000 0.88470  0.71400  0.52740  Biso   1.000  H
  C114     1.0000 0.81650  0.74260  0.51520  Biso   1.000  C
  H114     1.0000 0.82370  0.77500  0.52480  Biso   1.000  H
  F57      1.0000 0.89640  0.72490  0.53130  Biso   1.000  F
  C115     1.0000 0.85280  0.20670  0.01620  Biso   1.000  C
  H115     1.0000 0.88470  0.21400  0.02740  Biso   1.000  H
  C116     1.0000 0.81650  0.24260  0.01520  Biso   1.000  C
  H116     1.0000 0.82370  0.27500  0.02480  Biso   1.000  H
  F58      1.0000 0.89640  0.22490  0.03130  Biso   1.000  F
  C117     1.0000 0.35280  0.70670  0.01620  Biso   1.000  C
  H117     1.0000 0.38470  0.71400  0.02740  Biso   1.000  H
  C118     1.0000 0.31650  0.74260  0.01520  Biso   1.000  C
  H118     1.0000 0.32370  0.77500  0.02480  Biso   1.000  H
  F59      1.0000 0.39640  0.72490  0.03130  Biso   1.000  F
  C119     1.0000 0.35280  0.20670  0.51620  Biso   1.000  C
  H119     1.0000 0.38470  0.21400  0.52740  Biso   1.000  H
  C120     1.0000 0.31650  0.24260  0.51520  Biso   1.000  C
  H120     1.0000 0.32370  0.27500  0.52480  Biso   1.000  H
  F60      1.0000 0.39640  0.22490  0.53130  Biso   1.000  F
  C121     1.0000 0.14720  0.29330  0.51620  Biso   1.000  C
  H121     1.0000 0.11530  0.28600  0.52740  Biso   1.000  H
  C122     1.0000 0.18350  0.25740  0.51520  Biso   1.000  C
  H122     1.0000 0.17630  0.22500  0.52480  Biso   1.000  H
  F61      1.0000 0.10360  0.27510  0.53130  Biso   1.000  F
  C123     1.0000 0.14720  0.79330  0.01620  Biso   1.000  C
  H123     1.0000 0.11530  0.78600  0.02740  Biso   1.000  H
  C124     1.0000 0.18350  0.75740  0.01520  Biso   1.000  C
  H124     1.0000 0.17630  0.72500  0.02480  Biso   1.000  H
  F62      1.0000 0.10360  0.77510  0.03130  Biso   1.000  F
  C125     1.0000 0.64720  0.29330  0.01620  Biso   1.000  C
  H125     1.0000 0.61530  0.28600  0.02740  Biso   1.000  H
  C126     1.0000 0.68350  0.25740  0.01520  Biso   1.000  C
  H126     1.0000 0.67630  0.22500  0.02480  Biso   1.000  H
  F63      1.0000 0.60360  0.27510  0.03130  Biso   1.000  F
  C127     1.0000 0.64720  0.79330  0.51620  Biso   1.000  C
  H127     1.0000 0.61530  0.78600  0.52740  Biso   1.000  H
  C128     1.0000 0.68350  0.75740  0.51520  Biso   1.000  C
  H128     1.0000 0.67630  0.72500  0.52480  Biso   1.000  H
  F64      1.0000 0.60360  0.77510  0.53130  Biso   1.000  F
  C129     1.0000 0.29330  0.51620  0.14720  Biso   1.000  C
  H129     1.0000 0.28600  0.52740  0.11530  Biso   1.000  H
  C130     1.0000 0.25740  0.51520  0.18350  Biso   1.000  C
  H130     1.0000 0.22500  0.52480  0.17630  Biso   1.000  H
  F65      1.0000 0.27510  0.53130  0.10360  Biso   1.000  F
  C131     1.0000 0.29330  0.01620  0.64720  Biso   1.000  C
  H131     1.0000 0.28600  0.02740  0.61530  Biso   1.000  H
  C132     1.0000 0.25740  0.01520  0.68350  Biso   1.000  C
  H132     1.0000 0.22500  0.02480  0.67630  Biso   1.000  H
  F66      1.0000 0.27510  0.03130  0.60360  Biso   1.000  F
  C133     1.0000 0.79330  0.51620  0.64720  Biso   1.000  C
  H133     1.0000 0.78600  0.52740  0.61530  Biso   1.000  H
  C134     1.0000 0.75740  0.51520  0.68350  Biso   1.000  C
  H134     1.0000 0.72500  0.52480  0.67630  Biso   1.000  H
  F67      1.0000 0.77510  0.53130  0.60360  Biso   1.000  F
  C135     1.0000 0.79330  0.01620  0.14720  Biso   1.000  C
  H135     1.0000 0.78600  0.02740  0.11530  Biso   1.000  H
  C136     1.0000 0.75740  0.01520  0.18350  Biso   1.000  C
  H136     1.0000 0.72500  0.02480  0.17630  Biso   1.000  H
  F68      1.0000 0.77510  0.03130  0.10360  Biso   1.000  F
  C137     1.0000 0.70670  0.51620  0.85280  Biso   1.000  C
  H137     1.0000 0.71400  0.52740  0.88470  Biso   1.000  H
  C138     1.0000 0.74260  0.51520  0.81650  Biso   1.000  C
  H138     1.0000 0.77500  0.52480  0.82370  Biso   1.000  H
  F69      1.0000 0.72490  0.53130  0.89640  Biso   1.000  F
  C139     1.0000 0.70670  0.01620  0.35280  Biso   1.000  C
  H139     1.0000 0.71400  0.02740  0.38470  Biso   1.000  H
  C140     1.0000 0.74260  0.01520  0.31650  Biso   1.000  C
  H140     1.0000 0.77500  0.02480  0.32370  Biso   1.000  H
  F70      1.0000 0.72490  0.03130  0.39640  Biso   1.000  F
  C141     1.0000 0.20670  0.51620  0.35280  Biso   1.000  C
  H141     1.0000 0.21400  0.52740  0.38470  Biso   1.000  H
  C142     1.0000 0.24260  0.51520  0.31650  Biso   1.000  C
  H142     1.0000 0.27500  0.52480  0.32370  Biso   1.000  H
  F71      1.0000 0.22490  0.53130  0.39640  Biso   1.000  F
  C143     1.0000 0.20670  0.01620  0.85280  Biso   1.000  C
  H143     1.0000 0.21400  0.02740  0.88470  Biso   1.000  H
  C144     1.0000 0.24260  0.01520  0.81650  Biso   1.000  C
  H144     1.0000 0.27500  0.02480  0.82370  Biso   1.000  H
  F72      1.0000 0.22490  0.03130  0.89640  Biso   1.000  F
  C145     1.0000 0.70670  0.48380  0.14720  Biso   1.000  C
  H145     1.0000 0.71400  0.47260  0.11530  Biso   1.000  H
  C146     1.0000 0.74260  0.48480  0.18350  Biso   1.000  C
  H146     1.0000 0.77500  0.47520  0.17630  Biso   1.000  H
  F73      1.0000 0.72490  0.46870  0.10360  Biso   1.000  F
  C147     1.0000 0.70670  0.98380  0.64720  Biso   1.000  C
  H147     1.0000 0.71400  0.97260  0.61530  Biso   1.000  H
  C148     1.0000 0.74260  0.98480  0.68350  Biso   1.000  C
  H148     1.0000 0.77500  0.97520  0.67630  Biso   1.000  H
  F74      1.0000 0.72490  0.96870  0.60360  Biso   1.000  F
  C149     1.0000 0.20670  0.48380  0.64720  Biso   1.000  C
  H149     1.0000 0.21400  0.47260  0.61530  Biso   1.000  H
  C150     1.0000 0.24260  0.48480  0.68350  Biso   1.000  C
  H150     1.0000 0.27500  0.47520  0.67630  Biso   1.000  H
  F75      1.0000 0.22490  0.46870  0.60360  Biso   1.000  F
  C151     1.0000 0.20670  0.98380  0.14720  Biso   1.000  C
  H151     1.0000 0.21400  0.97260  0.11530  Biso   1.000  H
  C152     1.0000 0.24260  0.98480  0.18350  Biso   1.000  C
  H152     1.0000 0.27500  0.97520  0.17630  Biso   1.000  H
  F76      1.0000 0.22490  0.96870  0.10360  Biso   1.000  F
  C153     1.0000 0.29330  0.48380  0.85280  Biso   1.000  C
  H153     1.0000 0.28600  0.47260  0.88470  Biso   1.000  H
  C154     1.0000 0.25740  0.48480  0.81650  Biso   1.000  C
  H154     1.0000 0.22500  0.47520  0.82370  Biso   1.000  H
  F77      1.0000 0.27510  0.46870  0.89640  Biso   1.000  F
  C155     1.0000 0.29330  0.98380  0.35280  Biso   1.000  C
  H155     1.0000 0.28600  0.97260  0.38470  Biso   1.000  H
  C156     1.0000 0.25740  0.98480  0.31650  Biso   1.000  C
  H156     1.0000 0.22500  0.97520  0.32370  Biso   1.000  H
  F78      1.0000 0.27510  0.96870  0.39640  Biso   1.000  F
  C157     1.0000 0.79330  0.48380  0.35280  Biso   1.000  C
  H157     1.0000 0.78600  0.47260  0.38470  Biso   1.000  H
  C158     1.0000 0.75740  0.48480  0.31650  Biso   1.000  C
  H158     1.0000 0.72500  0.47520  0.32370  Biso   1.000  H
  F79      1.0000 0.77510  0.46870  0.39640  Biso   1.000  F
  C159     1.0000 0.79330  0.98380  0.85280  Biso   1.000  C
  H159     1.0000 0.78600  0.97260  0.88470  Biso   1.000  H
  C160     1.0000 0.75740  0.98480  0.81650  Biso   1.000  C
  H160     1.0000 0.72500  0.97520  0.82370  Biso   1.000  H
  F80      1.0000 0.77510  0.96870  0.89640  Biso   1.000  F
  C161     1.0000 0.51620  0.85280  0.70670  Biso   1.000  C
  H161     1.0000 0.52740  0.88470  0.71400  Biso   1.000  H
  C162     1.0000 0.51520  0.81650  0.74260  Biso   1.000  C
  H162     1.0000 0.52480  0.82370  0.77500  Biso   1.000  H
  F81      1.0000 0.53130  0.89640  0.72490  Biso   1.000  F
  C163     1.0000 0.51620  0.35280  0.20670  Biso   1.000  C
  H163     1.0000 0.52740  0.38470  0.21400  Biso   1.000  H
  C164     1.0000 0.51520  0.31650  0.24260  Biso   1.000  C
  H164     1.0000 0.52480  0.32370  0.27500  Biso   1.000  H
  F82      1.0000 0.53130  0.39640  0.22490  Biso   1.000  F
  C165     1.0000 0.01620  0.85280  0.20670  Biso   1.000  C
  H165     1.0000 0.02740  0.88470  0.21400  Biso   1.000  H
  C166     1.0000 0.01520  0.81650  0.24260  Biso   1.000  C
  H166     1.0000 0.02480  0.82370  0.27500  Biso   1.000  H
  F83      1.0000 0.03130  0.89640  0.22490  Biso   1.000  F
  C167     1.0000 0.01620  0.35280  0.70670  Biso   1.000  C
  H167     1.0000 0.02740  0.38470  0.71400  Biso   1.000  H
  C168     1.0000 0.01520  0.31650  0.74260  Biso   1.000  C
  H168     1.0000 0.02480  0.32370  0.77500  Biso   1.000  H
  F84      1.0000 0.03130  0.39640  0.72490  Biso   1.000  F
  C169     1.0000 0.51620  0.14720  0.29330  Biso   1.000  C
  H169     1.0000 0.52740  0.11530  0.28600  Biso   1.000  H
  C170     1.0000 0.51520  0.18350  0.25740  Biso   1.000  C
  H170     1.0000 0.52480  0.17630  0.22500  Biso   1.000  H
  F85      1.0000 0.53130  0.10360  0.27510  Biso   1.000  F
  C171     1.0000 0.51620  0.64720  0.79330  Biso   1.000  C
  H171     1.0000 0.52740  0.61530  0.78600  Biso   1.000  H
  C172     1.0000 0.51520  0.68350  0.75740  Biso   1.000  C
  H172     1.0000 0.52480  0.67630  0.72500  Biso   1.000  H
  F86      1.0000 0.53130  0.60360  0.77510  Biso   1.000  F
  C173     1.0000 0.01620  0.14720  0.79330  Biso   1.000  C
  H173     1.0000 0.02740  0.11530  0.78600  Biso   1.000  H
  C174     1.0000 0.01520  0.18350  0.75740  Biso   1.000  C
  H174     1.0000 0.02480  0.17630  0.72500  Biso   1.000  H
  F87      1.0000 0.03130  0.10360  0.77510  Biso   1.000  F
  C175     1.0000 0.01620  0.64720  0.29330  Biso   1.000  C
  H175     1.0000 0.02740  0.61530  0.28600  Biso   1.000  H
  C176     1.0000 0.01520  0.68350  0.25740  Biso   1.000  C
  H176     1.0000 0.02480  0.67630  0.22500  Biso   1.000  H
  F88      1.0000 0.03130  0.60360  0.27510  Biso   1.000  F
  C177     1.0000 0.48380  0.85280  0.29330  Biso   1.000  C
  H177     1.0000 0.47260  0.88470  0.28600  Biso   1.000  H
  C178     1.0000 0.48480  0.81650  0.25740  Biso   1.000  C
  H178     1.0000 0.47520  0.82370  0.22500  Biso   1.000  H
  F89      1.0000 0.46870  0.89640  0.27510  Biso   1.000  F
  C179     1.0000 0.48380  0.35280  0.79330  Biso   1.000  C
  H179     1.0000 0.47260  0.38470  0.78600  Biso   1.000  H
  C180     1.0000 0.48480  0.31650  0.75740  Biso   1.000  C
  H180     1.0000 0.47520  0.32370  0.72500  Biso   1.000  H
  F90      1.0000 0.46870  0.39640  0.77510  Biso   1.000  F
  C181     1.0000 0.98380  0.85280  0.79330  Biso   1.000  C
  H181     1.0000 0.97260  0.88470  0.78600  Biso   1.000  H
  C182     1.0000 0.98480  0.81650  0.75740  Biso   1.000  C
  H182     1.0000 0.97520  0.82370  0.72500  Biso   1.000  H
  F91      1.0000 0.96870  0.89640  0.77510  Biso   1.000  F
  C183     1.0000 0.98380  0.35280  0.29330  Biso   1.000  C
  H183     1.0000 0.97260  0.38470  0.28600  Biso   1.000  H
  C184     1.0000 0.98480  0.31650  0.25740  Biso   1.000  C
  H184     1.0000 0.97520  0.32370  0.22500  Biso   1.000  H
  F92      1.0000 0.96870  0.39640  0.27510  Biso   1.000  F
  C185     1.0000 0.48380  0.14720  0.70670  Biso   1.000  C
  H185     1.0000 0.47260  0.11530  0.71400  Biso   1.000  H
  C186     1.0000 0.48480  0.18350  0.74260  Biso   1.000  C
  H186     1.0000 0.47520  0.17630  0.77500  Biso   1.000  H
  F93      1.0000 0.46870  0.10360  0.72490  Biso   1.000  F
  C187     1.0000 0.48380  0.64720  0.20670  Biso   1.000  C
  H187     1.0000 0.47260  0.61530  0.21400  Biso   1.000  H
  C188     1.0000 0.48480  0.68350  0.24260  Biso   1.000  C
  H188     1.0000 0.47520  0.67630  0.27500  Biso   1.000  H
  F94      1.0000 0.46870  0.60360  0.22490  Biso   1.000  F
  C189     1.0000 0.98380  0.14720  0.20670  Biso   1.000  C
  H189     1.0000 0.97260  0.11530  0.21400  Biso   1.000  H
  C190     1.0000 0.98480  0.18350  0.24260  Biso   1.000  C
  H190     1.0000 0.97520  0.17630  0.27500  Biso   1.000  H
  F95      1.0000 0.96870  0.10360  0.22490  Biso   1.000  F
  C191     1.0000 0.98380  0.64720  0.70670  Biso   1.000  C
  H191     1.0000 0.97260  0.61530  0.71400  Biso   1.000  H
  C192     1.0000 0.98480  0.68350  0.74260  Biso   1.000  C
  H192     1.0000 0.97520  0.67630  0.77500  Biso   1.000  H
  F96      1.0000 0.96870  0.60360  0.72490  Biso   1.000  F
  C193     1.0000 0.70670  0.14720  0.48380  Biso   1.000  C
  H193     1.0000 0.71400  0.11530  0.47260  Biso   1.000  H
  C194     1.0000 0.74260  0.18350  0.48480  Biso   1.000  C
  H194     1.0000 0.77500  0.17630  0.47520  Biso   1.000  H
  F97      1.0000 0.72490  0.10360  0.46870  Biso   1.000  F
  C195     1.0000 0.70670  0.64720  0.98380  Biso   1.000  C
  H195     1.0000 0.71400  0.61530  0.97260  Biso   1.000  H
  C196     1.0000 0.74260  0.68350  0.98480  Biso   1.000  C
  H196     1.0000 0.77500  0.67630  0.97520  Biso   1.000  H
  F98      1.0000 0.72490  0.60360  0.96870  Biso   1.000  F
  C197     1.0000 0.20670  0.14720  0.98380  Biso   1.000  C
  H197     1.0000 0.21400  0.11530  0.97260  Biso   1.000  H
  C198     1.0000 0.24260  0.18350  0.98480  Biso   1.000  C
  H198     1.0000 0.27500  0.17630  0.97520  Biso   1.000  H
  F99      1.0000 0.22490  0.10360  0.96870  Biso   1.000  F
  C199     1.0000 0.20670  0.64720  0.48380  Biso   1.000  C
  H199     1.0000 0.21400  0.61530  0.47260  Biso   1.000  H
  C200     1.0000 0.24260  0.68350  0.48480  Biso   1.000  C
  H200     1.0000 0.27500  0.67630  0.47520  Biso   1.000  H
  F100     1.0000 0.22490  0.60360  0.46870  Biso   1.000  F
  C201     1.0000 0.29330  0.85280  0.48380  Biso   1.000  C
  H201     1.0000 0.28600  0.88470  0.47260  Biso   1.000  H
  C202     1.0000 0.25740  0.81650  0.48480  Biso   1.000  C
  H202     1.0000 0.22500  0.82370  0.47520  Biso   1.000  H
  F101     1.0000 0.27510  0.89640  0.46870  Biso   1.000  F
  C203     1.0000 0.29330  0.35280  0.98380  Biso   1.000  C
  H203     1.0000 0.28600  0.38470  0.97260  Biso   1.000  H
  C204     1.0000 0.25740  0.31650  0.98480  Biso   1.000  C
  H204     1.0000 0.22500  0.32370  0.97520  Biso   1.000  H
  F102     1.0000 0.27510  0.39640  0.96870  Biso   1.000  F
  C205     1.0000 0.79330  0.85280  0.98380  Biso   1.000  C
  H205     1.0000 0.78600  0.88470  0.97260  Biso   1.000  H
  C206     1.0000 0.75740  0.81650  0.98480  Biso   1.000  C
  H206     1.0000 0.72500  0.82370  0.97520  Biso   1.000  H
  F103     1.0000 0.77510  0.89640  0.96870  Biso   1.000  F
  C207     1.0000 0.79330  0.35280  0.48380  Biso   1.000  C
  H207     1.0000 0.78600  0.38470  0.47260  Biso   1.000  H
  C208     1.0000 0.75740  0.31650  0.48480  Biso   1.000  C
  H208     1.0000 0.72500  0.32370  0.47520  Biso   1.000  H
  F104     1.0000 0.77510  0.39640  0.46870  Biso   1.000  F
  C209     1.0000 0.29330  0.14720  0.51620  Biso   1.000  C
  H209     1.0000 0.28600  0.11530  0.52740  Biso   1.000  H
  C210     1.0000 0.25740  0.18350  0.51520  Biso   1.000  C
  H210     1.0000 0.22500  0.17630  0.52480  Biso   1.000  H
  F105     1.0000 0.27510  0.10360  0.53130  Biso   1.000  F
  C211     1.0000 0.29330  0.64720  0.01620  Biso   1.000  C
  H211     1.0000 0.28600  0.61530  0.02740  Biso   1.000  H
  C212     1.0000 0.25740  0.68350  0.01520  Biso   1.000  C
  H212     1.0000 0.22500  0.67630  0.02480  Biso   1.000  H
  F106     1.0000 0.27510  0.60360  0.03130  Biso   1.000  F
  C213     1.0000 0.79330  0.14720  0.01620  Biso   1.000  C
  H213     1.0000 0.78600  0.11530  0.02740  Biso   1.000  H
  C214     1.0000 0.75740  0.18350  0.01520  Biso   1.000  C
  H214     1.0000 0.72500  0.17630  0.02480  Biso   1.000  H
  F107     1.0000 0.77510  0.10360  0.03130  Biso   1.000  F
  C215     1.0000 0.79330  0.64720  0.51620  Biso   1.000  C
  H215     1.0000 0.78600  0.61530  0.52740  Biso   1.000  H
  C216     1.0000 0.75740  0.68350  0.51520  Biso   1.000  C
  H216     1.0000 0.72500  0.67630  0.52480  Biso   1.000  H
  F108     1.0000 0.77510  0.60360  0.53130  Biso   1.000  F
  C217     1.0000 0.70670  0.85280  0.51620  Biso   1.000  C
  H217     1.0000 0.71400  0.88470  0.52740  Biso   1.000  H
  C218     1.0000 0.74260  0.81650  0.51520  Biso   1.000  C
  H218     1.0000 0.77500  0.82370  0.52480  Biso   1.000  H
  F109     1.0000 0.72490  0.89640  0.53130  Biso   1.000  F
  C219     1.0000 0.70670  0.35280  0.01620  Biso   1.000  C
  H219     1.0000 0.71400  0.38470  0.02740  Biso   1.000  H
  C220     1.0000 0.74260  0.31650  0.01520  Biso   1.000  C
  H220     1.0000 0.77500  0.32370  0.02480  Biso   1.000  H
  F110     1.0000 0.72490  0.39640  0.03130  Biso   1.000  F
  C221     1.0000 0.20670  0.85280  0.01620  Biso   1.000  C
  H221     1.0000 0.21400  0.88470  0.02740  Biso   1.000  H
  C222     1.0000 0.24260  0.81650  0.01520  Biso   1.000  C
  H222     1.0000 0.27500  0.82370  0.02480  Biso   1.000  H
  F111     1.0000 0.22490  0.89640  0.03130  Biso   1.000  F
  C223     1.0000 0.20670  0.35280  0.51620  Biso   1.000  C
  H223     1.0000 0.21400  0.38470  0.52740  Biso   1.000  H
  C224     1.0000 0.24260  0.31650  0.51520  Biso   1.000  C
  H224     1.0000 0.27500  0.32370  0.52480  Biso   1.000  H
  F112     1.0000 0.22490  0.39640  0.53130  Biso   1.000  F
  C225     1.0000 0.48380  0.70670  0.14720  Biso   1.000  C
  H225     1.0000 0.47260  0.71400  0.11530  Biso   1.000  H
  C226     1.0000 0.48480  0.74260  0.18350  Biso   1.000  C
  H226     1.0000 0.47520  0.77500  0.17630  Biso   1.000  H
  F113     1.0000 0.46870  0.72490  0.10360  Biso   1.000  F
  C227     1.0000 0.48380  0.20670  0.64720  Biso   1.000  C
  H227     1.0000 0.47260  0.21400  0.61530  Biso   1.000  H
  C228     1.0000 0.48480  0.24260  0.68350  Biso   1.000  C
  H228     1.0000 0.47520  0.27500  0.67630  Biso   1.000  H
  F114     1.0000 0.46870  0.22490  0.60360  Biso   1.000  F
  C229     1.0000 0.98380  0.70670  0.64720  Biso   1.000  C
  H229     1.0000 0.97260  0.71400  0.61530  Biso   1.000  H
  C230     1.0000 0.98480  0.74260  0.68350  Biso   1.000  C
  H230     1.0000 0.97520  0.77500  0.67630  Biso   1.000  H
  F115     1.0000 0.96870  0.72490  0.60360  Biso   1.000  F
  C231     1.0000 0.98380  0.20670  0.14720  Biso   1.000  C
  H231     1.0000 0.97260  0.21400  0.11530  Biso   1.000  H
  C232     1.0000 0.98480  0.24260  0.18350  Biso   1.000  C
  H232     1.0000 0.97520  0.27500  0.17630  Biso   1.000  H
  F116     1.0000 0.96870  0.22490  0.10360  Biso   1.000  F
  C233     1.0000 0.48380  0.29330  0.85280  Biso   1.000  C
  H233     1.0000 0.47260  0.28600  0.88470  Biso   1.000  H
  C234     1.0000 0.48480  0.25740  0.81650  Biso   1.000  C
  H234     1.0000 0.47520  0.22500  0.82370  Biso   1.000  H
  F117     1.0000 0.46870  0.27510  0.89640  Biso   1.000  F
  C235     1.0000 0.48380  0.79330  0.35280  Biso   1.000  C
  H235     1.0000 0.47260  0.78600  0.38470  Biso   1.000  H
  C236     1.0000 0.48480  0.75740  0.31650  Biso   1.000  C
  H236     1.0000 0.47520  0.72500  0.32370  Biso   1.000  H
  F118     1.0000 0.46870  0.77510  0.39640  Biso   1.000  F
  C237     1.0000 0.98380  0.29330  0.35280  Biso   1.000  C
  H237     1.0000 0.97260  0.28600  0.38470  Biso   1.000  H
  C238     1.0000 0.98480  0.25740  0.31650  Biso   1.000  C
  H238     1.0000 0.97520  0.22500  0.32370  Biso   1.000  H
  F119     1.0000 0.96870  0.27510  0.39640  Biso   1.000  F
  C239     1.0000 0.98380  0.79330  0.85280  Biso   1.000  C
  H239     1.0000 0.97260  0.78600  0.88470  Biso   1.000  H
  C240     1.0000 0.98480  0.75740  0.81650  Biso   1.000  C
  H240     1.0000 0.97520  0.72500  0.82370  Biso   1.000  H
  F120     1.0000 0.96870  0.77510  0.89640  Biso   1.000  F
  C241     1.0000 0.51620  0.29330  0.14720  Biso   1.000  C
  H241     1.0000 0.52740  0.28600  0.11530  Biso   1.000  H
  C242     1.0000 0.51520  0.25740  0.18350  Biso   1.000  C
  H242     1.0000 0.52480  0.22500  0.17630  Biso   1.000  H
  F121     1.0000 0.53130  0.27510  0.10360  Biso   1.000  F
  C243     1.0000 0.51620  0.79330  0.64720  Biso   1.000  C
  H243     1.0000 0.52740  0.78600  0.61530  Biso   1.000  H
  C244     1.0000 0.51520  0.75740  0.68350  Biso   1.000  C
  H244     1.0000 0.52480  0.72500  0.67630  Biso   1.000  H
  F122     1.0000 0.53130  0.77510  0.60360  Biso   1.000  F
  C245     1.0000 0.01620  0.29330  0.64720  Biso   1.000  C
  H245     1.0000 0.02740  0.28600  0.61530  Biso   1.000  H
  C246     1.0000 0.01520  0.25740  0.68350  Biso   1.000  C
  H246     1.0000 0.02480  0.22500  0.67630  Biso   1.000  H
  F123     1.0000 0.03130  0.27510  0.60360  Biso   1.000  F
  C247     1.0000 0.01620  0.79330  0.14720  Biso   1.000  C
  H247     1.0000 0.02740  0.78600  0.11530  Biso   1.000  H
  C248     1.0000 0.01520  0.75740  0.18350  Biso   1.000  C
  H248     1.0000 0.02480  0.72500  0.17630  Biso   1.000  H
  F124     1.0000 0.03130  0.77510  0.10360  Biso   1.000  F
  C249     1.0000 0.51620  0.70670  0.85280  Biso   1.000  C
  H249     1.0000 0.52740  0.71400  0.88470  Biso   1.000  H
  C250     1.0000 0.51520  0.74260  0.81650  Biso   1.000  C
  H250     1.0000 0.52480  0.77500  0.82370  Biso   1.000  H
  F125     1.0000 0.53130  0.72490  0.89640  Biso   1.000  F
  C251     1.0000 0.51620  0.20670  0.35280  Biso   1.000  C
  H251     1.0000 0.52740  0.21400  0.38470  Biso   1.000  H
  C252     1.0000 0.51520  0.24260  0.31650  Biso   1.000  C
  H252     1.0000 0.52480  0.27500  0.32370  Biso   1.000  H
  F126     1.0000 0.53130  0.22490  0.39640  Biso   1.000  F
  C253     1.0000 0.01620  0.70670  0.35280  Biso   1.000  C
  H253     1.0000 0.02740  0.71400  0.38470  Biso   1.000  H
  C254     1.0000 0.01520  0.74260  0.31650  Biso   1.000  C
  H254     1.0000 0.02480  0.77500  0.32370  Biso   1.000  H
  F127     1.0000 0.03130  0.72490  0.39640  Biso   1.000  F
  C255     1.0000 0.01620  0.20670  0.85280  Biso   1.000  C
  H255     1.0000 0.02740  0.21400  0.88470  Biso   1.000  H
  C256     1.0000 0.01520  0.24260  0.81650  Biso   1.000  C
  H256     1.0000 0.02480  0.27500  0.82370  Biso   1.000  H
  F128     1.0000 0.03130  0.22490  0.89640  Biso   1.000  F
  C257     1.0000 0.14720  0.48380  0.70670  Biso   1.000  C
  H257     1.0000 0.11530  0.47260  0.71400  Biso   1.000  H
  C258     1.0000 0.18350  0.48480  0.74260  Biso   1.000  C
  H258     1.0000 0.17630  0.47520  0.77500  Biso   1.000  H
  F129     1.0000 0.10360  0.46870  0.72490  Biso   1.000  F
  C259     1.0000 0.14720  0.98380  0.20670  Biso   1.000  C
  H259     1.0000 0.11530  0.97260  0.21400  Biso   1.000  H
  C260     1.0000 0.18350  0.98480  0.24260  Biso   1.000  C
  H260     1.0000 0.17630  0.97520  0.27500  Biso   1.000  H
  F130     1.0000 0.10360  0.96870  0.22490  Biso   1.000  F
  C261     1.0000 0.64720  0.48380  0.20670  Biso   1.000  C
  H261     1.0000 0.61530  0.47260  0.21400  Biso   1.000  H
  C262     1.0000 0.68350  0.48480  0.24260  Biso   1.000  C
  H262     1.0000 0.67630  0.47520  0.27500  Biso   1.000  H
  F131     1.0000 0.60360  0.46870  0.22490  Biso   1.000  F
  C263     1.0000 0.64720  0.98380  0.70670  Biso   1.000  C
  H263     1.0000 0.61530  0.97260  0.71400  Biso   1.000  H
  C264     1.0000 0.68350  0.98480  0.74260  Biso   1.000  C
  H264     1.0000 0.67630  0.97520  0.77500  Biso   1.000  H
  F132     1.0000 0.60360  0.96870  0.72490  Biso   1.000  F
  C265     1.0000 0.85280  0.48380  0.29330  Biso   1.000  C
  H265     1.0000 0.88470  0.47260  0.28600  Biso   1.000  H
  C266     1.0000 0.81650  0.48480  0.25740  Biso   1.000  C
  H266     1.0000 0.82370  0.47520  0.22500  Biso   1.000  H
  F133     1.0000 0.89640  0.46870  0.27510  Biso   1.000  F
  C267     1.0000 0.85280  0.98380  0.79330  Biso   1.000  C
  H267     1.0000 0.88470  0.97260  0.78600  Biso   1.000  H
  C268     1.0000 0.81650  0.98480  0.75740  Biso   1.000  C
  H268     1.0000 0.82370  0.97520  0.72500  Biso   1.000  H
  F134     1.0000 0.89640  0.96870  0.77510  Biso   1.000  F
  C269     1.0000 0.35280  0.48380  0.79330  Biso   1.000  C
  H269     1.0000 0.38470  0.47260  0.78600  Biso   1.000  H
  C270     1.0000 0.31650  0.48480  0.75740  Biso   1.000  C
  H270     1.0000 0.32370  0.47520  0.72500  Biso   1.000  H
  F135     1.0000 0.39640  0.46870  0.77510  Biso   1.000  F
  C271     1.0000 0.35280  0.98380  0.29330  Biso   1.000  C
  H271     1.0000 0.38470  0.97260  0.28600  Biso   1.000  H
  C272     1.0000 0.31650  0.98480  0.25740  Biso   1.000  C
  H272     1.0000 0.32370  0.97520  0.22500  Biso   1.000  H
  F136     1.0000 0.39640  0.96870  0.27510  Biso   1.000  F
  C273     1.0000 0.14720  0.51620  0.29330  Biso   1.000  C
  H273     1.0000 0.11530  0.52740  0.28600  Biso   1.000  H
  C274     1.0000 0.18350  0.51520  0.25740  Biso   1.000  C
  H274     1.0000 0.17630  0.52480  0.22500  Biso   1.000  H
  F137     1.0000 0.10360  0.53130  0.27510  Biso   1.000  F
  C275     1.0000 0.14720  0.01620  0.79330  Biso   1.000  C
  H275     1.0000 0.11530  0.02740  0.78600  Biso   1.000  H
  C276     1.0000 0.18350  0.01520  0.75740  Biso   1.000  C
  H276     1.0000 0.17630  0.02480  0.72500  Biso   1.000  H
  F138     1.0000 0.10360  0.03130  0.77510  Biso   1.000  F
  C277     1.0000 0.64720  0.51620  0.79330  Biso   1.000  C
  H277     1.0000 0.61530  0.52740  0.78600  Biso   1.000  H
  C278     1.0000 0.68350  0.51520  0.75740  Biso   1.000  C
  H278     1.0000 0.67630  0.52480  0.72500  Biso   1.000  H
  F139     1.0000 0.60360  0.53130  0.77510  Biso   1.000  F
  C279     1.0000 0.64720  0.01620  0.29330  Biso   1.000  C
  H279     1.0000 0.61530  0.02740  0.28600  Biso   1.000  H
  C280     1.0000 0.68350  0.01520  0.25740  Biso   1.000  C
  H280     1.0000 0.67630  0.02480  0.22500  Biso   1.000  H
  F140     1.0000 0.60360  0.03130  0.27510  Biso   1.000  F
  C281     1.0000 0.85280  0.51620  0.70670  Biso   1.000  C
  H281     1.0000 0.88470  0.52740  0.71400  Biso   1.000  H
  C282     1.0000 0.81650  0.51520  0.74260  Biso   1.000  C
  H282     1.0000 0.82370  0.52480  0.77500  Biso   1.000  H
  F141     1.0000 0.89640  0.53130  0.72490  Biso   1.000  F
  C283     1.0000 0.85280  0.01620  0.20670  Biso   1.000  C
  H283     1.0000 0.88470  0.02740  0.21400  Biso   1.000  H
  C284     1.0000 0.81650  0.01520  0.24260  Biso   1.000  C
  H284     1.0000 0.82370  0.02480  0.27500  Biso   1.000  H
  F142     1.0000 0.89640  0.03130  0.22490  Biso   1.000  F
  C285     1.0000 0.35280  0.51620  0.20670  Biso   1.000  C
  H285     1.0000 0.38470  0.52740  0.21400  Biso   1.000  H
  C286     1.0000 0.31650  0.51520  0.24260  Biso   1.000  C
  H286     1.0000 0.32370  0.52480  0.27500  Biso   1.000  H
  F143     1.0000 0.39640  0.53130  0.22490  Biso   1.000  F
  C287     1.0000 0.35280  0.01620  0.70670  Biso   1.000  C
  H287     1.0000 0.38470  0.02740  0.71400  Biso   1.000  H
  C288     1.0000 0.31650  0.01520  0.74260  Biso   1.000  C
  H288     1.0000 0.32370  0.02480  0.77500  Biso   1.000  H
  F144     1.0000 0.39640  0.03130  0.72490  Biso   1.000  F
  C289     1.0000 0.14720  0.70670  0.51620  Biso   1.000  C
  H289     1.0000 0.11530  0.71400  0.52740  Biso   1.000  H
  C290     1.0000 0.18350  0.74260  0.51520  Biso   1.000  C
  H290     1.0000 0.17630  0.77500  0.52480  Biso   1.000  H
  F145     1.0000 0.10360  0.72490  0.53130  Biso   1.000  F
  C291     1.0000 0.14720  0.20670  0.01620  Biso   1.000  C
  H291     1.0000 0.11530  0.21400  0.02740  Biso   1.000  H
  C292     1.0000 0.18350  0.24260  0.01520  Biso   1.000  C
  H292     1.0000 0.17630  0.27500  0.02480  Biso   1.000  H
  F146     1.0000 0.10360  0.22490  0.03130  Biso   1.000  F
  C293     1.0000 0.64720  0.70670  0.01620  Biso   1.000  C
  H293     1.0000 0.61530  0.71400  0.02740  Biso   1.000  H
  C294     1.0000 0.68350  0.74260  0.01520  Biso   1.000  C
  H294     1.0000 0.67630  0.77500  0.02480  Biso   1.000  H
  F147     1.0000 0.60360  0.72490  0.03130  Biso   1.000  F
  C295     1.0000 0.64720  0.20670  0.51620  Biso   1.000  C
  H295     1.0000 0.61530  0.21400  0.52740  Biso   1.000  H
  C296     1.0000 0.68350  0.24260  0.51520  Biso   1.000  C
  H296     1.0000 0.67630  0.27500  0.52480  Biso   1.000  H
  F148     1.0000 0.60360  0.22490  0.53130  Biso   1.000  F
  C297     1.0000 0.85280  0.29330  0.51620  Biso   1.000  C
  H297     1.0000 0.88470  0.28600  0.52740  Biso   1.000  H
  C298     1.0000 0.81650  0.25740  0.51520  Biso   1.000  C
  H298     1.0000 0.82370  0.22500  0.52480  Biso   1.000  H
  F149     1.0000 0.89640  0.27510  0.53130  Biso   1.000  F
  C299     1.0000 0.85280  0.79330  0.01620  Biso   1.000  C
  H299     1.0000 0.88470  0.78600  0.02740  Biso   1.000  H
  C300     1.0000 0.81650  0.75740  0.01520  Biso   1.000  C
  H300     1.0000 0.82370  0.72500  0.02480  Biso   1.000  H
  F150     1.0000 0.89640  0.77510  0.03130  Biso   1.000  F
  C301     1.0000 0.35280  0.29330  0.01620  Biso   1.000  C
  H301     1.0000 0.38470  0.28600  0.02740  Biso   1.000  H
  C302     1.0000 0.31650  0.25740  0.01520  Biso   1.000  C
  H302     1.0000 0.32370  0.22500  0.02480  Biso   1.000  H
  F151     1.0000 0.39640  0.27510  0.03130  Biso   1.000  F
  C303     1.0000 0.35280  0.79330  0.51620  Biso   1.000  C
  H303     1.0000 0.38470  0.78600  0.52740  Biso   1.000  H
  C304     1.0000 0.31650  0.75740  0.51520  Biso   1.000  C
  H304     1.0000 0.32370  0.72500  0.52480  Biso   1.000  H
  F152     1.0000 0.39640  0.77510  0.53130  Biso   1.000  F
  C305     1.0000 0.14720  0.29330  0.48380  Biso   1.000  C
  H305     1.0000 0.11530  0.28600  0.47260  Biso   1.000  H
  C306     1.0000 0.18350  0.25740  0.48480  Biso   1.000  C
  H306     1.0000 0.17630  0.22500  0.47520  Biso   1.000  H
  F153     1.0000 0.10360  0.27510  0.46870  Biso   1.000  F
  C307     1.0000 0.14720  0.79330  0.98380  Biso   1.000  C
  H307     1.0000 0.11530  0.78600  0.97260  Biso   1.000  H
  C308     1.0000 0.18350  0.75740  0.98480  Biso   1.000  C
  H308     1.0000 0.17630  0.72500  0.97520  Biso   1.000  H
  F154     1.0000 0.10360  0.77510  0.96870  Biso   1.000  F
  C309     1.0000 0.64720  0.29330  0.98380  Biso   1.000  C
  H309     1.0000 0.61530  0.28600  0.97260  Biso   1.000  H
  C310     1.0000 0.68350  0.25740  0.98480  Biso   1.000  C
  H310     1.0000 0.67630  0.22500  0.97520  Biso   1.000  H
  F155     1.0000 0.60360  0.27510  0.96870  Biso   1.000  F
  C311     1.0000 0.64720  0.79330  0.48380  Biso   1.000  C
  H311     1.0000 0.61530  0.78600  0.47260  Biso   1.000  H
  C312     1.0000 0.68350  0.75740  0.48480  Biso   1.000  C
  H312     1.0000 0.67630  0.72500  0.47520  Biso   1.000  H
  F156     1.0000 0.60360  0.77510  0.46870  Biso   1.000  F
  C313     1.0000 0.85280  0.70670  0.48380  Biso   1.000  C
  H313     1.0000 0.88470  0.71400  0.47260  Biso   1.000  H
  C314     1.0000 0.81650  0.74260  0.48480  Biso   1.000  C
  H314     1.0000 0.82370  0.77500  0.47520  Biso   1.000  H
  F157     1.0000 0.89640  0.72490  0.46870  Biso   1.000  F
  C315     1.0000 0.85280  0.20670  0.98380  Biso   1.000  C
  H315     1.0000 0.88470  0.21400  0.97260  Biso   1.000  H
  C316     1.0000 0.81650  0.24260  0.98480  Biso   1.000  C
  H316     1.0000 0.82370  0.27500  0.97520  Biso   1.000  H
  F158     1.0000 0.89640  0.22490  0.96870  Biso   1.000  F
  C317     1.0000 0.35280  0.70670  0.98380  Biso   1.000  C
  H317     1.0000 0.38470  0.71400  0.97260  Biso   1.000  H
  C318     1.0000 0.31650  0.74260  0.98480  Biso   1.000  C
  H318     1.0000 0.32370  0.77500  0.97520  Biso   1.000  H
  F159     1.0000 0.39640  0.72490  0.96870  Biso   1.000  F
  C319     1.0000 0.35280  0.20670  0.48380  Biso   1.000  C
  H319     1.0000 0.38470  0.21400  0.47260  Biso   1.000  H
  C320     1.0000 0.31650  0.24260  0.48480  Biso   1.000  C
  H320     1.0000 0.32370  0.27500  0.47520  Biso   1.000  H
  F160     1.0000 0.39640  0.22490  0.46870  Biso   1.000  F
  C321     1.0000 0.70670  0.48380  0.85280  Biso   1.000  C
  H321     1.0000 0.71400  0.47260  0.88470  Biso   1.000  H
  C322     1.0000 0.74260  0.48480  0.81650  Biso   1.000  C
  H322     1.0000 0.77500  0.47520  0.82370  Biso   1.000  H
  F161     1.0000 0.72490  0.46870  0.89640  Biso   1.000  F
  C323     1.0000 0.70670  0.98380  0.35280  Biso   1.000  C
  H323     1.0000 0.71400  0.97260  0.38470  Biso   1.000  H
  C324     1.0000 0.74260  0.98480  0.31650  Biso   1.000  C
  H324     1.0000 0.77500  0.97520  0.32370  Biso   1.000  H
  F162     1.0000 0.72490  0.96870  0.39640  Biso   1.000  F
  C325     1.0000 0.20670  0.48380  0.35280  Biso   1.000  C
  H325     1.0000 0.21400  0.47260  0.38470  Biso   1.000  H
  C326     1.0000 0.24260  0.48480  0.31650  Biso   1.000  C
  H326     1.0000 0.27500  0.47520  0.32370  Biso   1.000  H
  F163     1.0000 0.22490  0.46870  0.39640  Biso   1.000  F
  C327     1.0000 0.20670  0.98380  0.85280  Biso   1.000  C
  H327     1.0000 0.21400  0.97260  0.88470  Biso   1.000  H
  C328     1.0000 0.24260  0.98480  0.81650  Biso   1.000  C
  H328     1.0000 0.27500  0.97520  0.82370  Biso   1.000  H
  F164     1.0000 0.22490  0.96870  0.89640  Biso   1.000  F
  C329     1.0000 0.29330  0.48380  0.14720  Biso   1.000  C
  H329     1.0000 0.28600  0.47260  0.11530  Biso   1.000  H
  C330     1.0000 0.25740  0.48480  0.18350  Biso   1.000  C
  H330     1.0000 0.22500  0.47520  0.17630  Biso   1.000  H
  F165     1.0000 0.27510  0.46870  0.10360  Biso   1.000  F
  C331     1.0000 0.29330  0.98380  0.64720  Biso   1.000  C
  H331     1.0000 0.28600  0.97260  0.61530  Biso   1.000  H
  C332     1.0000 0.25740  0.98480  0.68350  Biso   1.000  C
  H332     1.0000 0.22500  0.97520  0.67630  Biso   1.000  H
  F166     1.0000 0.27510  0.96870  0.60360  Biso   1.000  F
  C333     1.0000 0.79330  0.48380  0.64720  Biso   1.000  C
  H333     1.0000 0.78600  0.47260  0.61530  Biso   1.000  H
  C334     1.0000 0.75740  0.48480  0.68350  Biso   1.000  C
  H334     1.0000 0.72500  0.47520  0.67630  Biso   1.000  H
  F167     1.0000 0.77510  0.46870  0.60360  Biso   1.000  F
  C335     1.0000 0.79330  0.98380  0.14720  Biso   1.000  C
  H335     1.0000 0.78600  0.97260  0.11530  Biso   1.000  H
  C336     1.0000 0.75740  0.98480  0.18350  Biso   1.000  C
  H336     1.0000 0.72500  0.97520  0.17630  Biso   1.000  H
  F168     1.0000 0.77510  0.96870  0.10360  Biso   1.000  F
  C337     1.0000 0.29330  0.51620  0.85280  Biso   1.000  C
  H337     1.0000 0.28600  0.52740  0.88470  Biso   1.000  H
  C338     1.0000 0.25740  0.51520  0.81650  Biso   1.000  C
  H338     1.0000 0.22500  0.52480  0.82370  Biso   1.000  H
  F169     1.0000 0.27510  0.53130  0.89640  Biso   1.000  F
  C339     1.0000 0.29330  0.01620  0.35280  Biso   1.000  C
  H339     1.0000 0.28600  0.02740  0.38470  Biso   1.000  H
  C340     1.0000 0.25740  0.01520  0.31650  Biso   1.000  C
  H340     1.0000 0.22500  0.02480  0.32370  Biso   1.000  H
  F170     1.0000 0.27510  0.03130  0.39640  Biso   1.000  F
  C341     1.0000 0.79330  0.51620  0.35280  Biso   1.000  C
  H341     1.0000 0.78600  0.52740  0.38470  Biso   1.000  H
  C342     1.0000 0.75740  0.51520  0.31650  Biso   1.000  C
  H342     1.0000 0.72500  0.52480  0.32370  Biso   1.000  H
  F171     1.0000 0.77510  0.53130  0.39640  Biso   1.000  F
  C343     1.0000 0.79330  0.01620  0.85280  Biso   1.000  C
  H343     1.0000 0.78600  0.02740  0.88470  Biso   1.000  H
  C344     1.0000 0.75740  0.01520  0.81650  Biso   1.000  C
  H344     1.0000 0.72500  0.02480  0.82370  Biso   1.000  H
  F172     1.0000 0.77510  0.03130  0.89640  Biso   1.000  F
  C345     1.0000 0.70670  0.51620  0.14720  Biso   1.000  C
  H345     1.0000 0.71400  0.52740  0.11530  Biso   1.000  H
  C346     1.0000 0.74260  0.51520  0.18350  Biso   1.000  C
  H346     1.0000 0.77500  0.52480  0.17630  Biso   1.000  H
  F173     1.0000 0.72490  0.53130  0.10360  Biso   1.000  F
  C347     1.0000 0.70670  0.01620  0.64720  Biso   1.000  C
  H347     1.0000 0.71400  0.02740  0.61530  Biso   1.000  H
  C348     1.0000 0.74260  0.01520  0.68350  Biso   1.000  C
  H348     1.0000 0.77500  0.02480  0.67630  Biso   1.000  H
  F174     1.0000 0.72490  0.03130  0.60360  Biso   1.000  F
  C349     1.0000 0.20670  0.51620  0.64720  Biso   1.000  C
  H349     1.0000 0.21400  0.52740  0.61530  Biso   1.000  H
  C350     1.0000 0.24260  0.51520  0.68350  Biso   1.000  C
  H350     1.0000 0.27500  0.52480  0.67630  Biso   1.000  H
  F175     1.0000 0.22490  0.53130  0.60360  Biso   1.000  F
  C351     1.0000 0.20670  0.01620  0.14720  Biso   1.000  C
  H351     1.0000 0.21400  0.02740  0.11530  Biso   1.000  H
  C352     1.0000 0.24260  0.01520  0.18350  Biso   1.000  C
  H352     1.0000 0.27500  0.02480  0.17630  Biso   1.000  H
  F176     1.0000 0.22490  0.03130  0.10360  Biso   1.000  F
  C353     1.0000 0.48380  0.14720  0.29330  Biso   1.000  C
  H353     1.0000 0.47260  0.11530  0.28600  Biso   1.000  H
  C354     1.0000 0.48480  0.18350  0.25740  Biso   1.000  C
  H354     1.0000 0.47520  0.17630  0.22500  Biso   1.000  H
  F177     1.0000 0.46870  0.10360  0.27510  Biso   1.000  F
  C355     1.0000 0.48380  0.64720  0.79330  Biso   1.000  C
  H355     1.0000 0.47260  0.61530  0.78600  Biso   1.000  H
  C356     1.0000 0.48480  0.68350  0.75740  Biso   1.000  C
  H356     1.0000 0.47520  0.67630  0.72500  Biso   1.000  H
  F178     1.0000 0.46870  0.60360  0.77510  Biso   1.000  F
  C357     1.0000 0.98380  0.14720  0.79330  Biso   1.000  C
  H357     1.0000 0.97260  0.11530  0.78600  Biso   1.000  H
  C358     1.0000 0.98480  0.18350  0.75740  Biso   1.000  C
  H358     1.0000 0.97520  0.17630  0.72500  Biso   1.000  H
  F179     1.0000 0.96870  0.10360  0.77510  Biso   1.000  F
  C359     1.0000 0.98380  0.64720  0.29330  Biso   1.000  C
  H359     1.0000 0.97260  0.61530  0.28600  Biso   1.000  H
  C360     1.0000 0.98480  0.68350  0.25740  Biso   1.000  C
  H360     1.0000 0.97520  0.67630  0.22500  Biso   1.000  H
  F180     1.0000 0.96870  0.60360  0.27510  Biso   1.000  F
  C361     1.0000 0.48380  0.85280  0.70670  Biso   1.000  C
  H361     1.0000 0.47260  0.88470  0.71400  Biso   1.000  H
  C362     1.0000 0.48480  0.81650  0.74260  Biso   1.000  C
  H362     1.0000 0.47520  0.82370  0.77500  Biso   1.000  H
  F181     1.0000 0.46870  0.89640  0.72490  Biso   1.000  F
  C363     1.0000 0.48380  0.35280  0.20670  Biso   1.000  C
  H363     1.0000 0.47260  0.38470  0.21400  Biso   1.000  H
  C364     1.0000 0.48480  0.31650  0.24260  Biso   1.000  C
  H364     1.0000 0.47520  0.32370  0.27500  Biso   1.000  H
  F182     1.0000 0.46870  0.39640  0.22490  Biso   1.000  F
  C365     1.0000 0.98380  0.85280  0.20670  Biso   1.000  C
  H365     1.0000 0.97260  0.88470  0.21400  Biso   1.000  H
  C366     1.0000 0.98480  0.81650  0.24260  Biso   1.000  C
  H366     1.0000 0.97520  0.82370  0.27500  Biso   1.000  H
  F183     1.0000 0.96870  0.89640  0.22490  Biso   1.000  F
  C367     1.0000 0.98380  0.35280  0.70670  Biso   1.000  C
  H367     1.0000 0.97260  0.38470  0.71400  Biso   1.000  H
  C368     1.0000 0.98480  0.31650  0.74260  Biso   1.000  C
  H368     1.0000 0.97520  0.32370  0.77500  Biso   1.000  H
  F184     1.0000 0.96870  0.39640  0.72490  Biso   1.000  F
  C369     1.0000 0.51620  0.14720  0.70670  Biso   1.000  C
  H369     1.0000 0.52740  0.11530  0.71400  Biso   1.000  H
  C370     1.0000 0.51520  0.18350  0.74260  Biso   1.000  C
  H370     1.0000 0.52480  0.17630  0.77500  Biso   1.000  H
  F185     1.0000 0.53130  0.10360  0.72490  Biso   1.000  F
  C371     1.0000 0.51620  0.64720  0.20670  Biso   1.000  C
  H371     1.0000 0.52740  0.61530  0.21400  Biso   1.000  H
  C372     1.0000 0.51520  0.68350  0.24260  Biso   1.000  C
  H372     1.0000 0.52480  0.67630  0.27500  Biso   1.000  H
  F186     1.0000 0.53130  0.60360  0.22490  Biso   1.000  F
  C373     1.0000 0.01620  0.14720  0.20670  Biso   1.000  C
  H373     1.0000 0.02740  0.11530  0.21400  Biso   1.000  H
  C374     1.0000 0.01520  0.18350  0.24260  Biso   1.000  C
  H374     1.0000 0.02480  0.17630  0.27500  Biso   1.000  H
  F187     1.0000 0.03130  0.10360  0.22490  Biso   1.000  F
  C375     1.0000 0.01620  0.64720  0.70670  Biso   1.000  C
  H375     1.0000 0.02740  0.61530  0.71400  Biso   1.000  H
  C376     1.0000 0.01520  0.68350  0.74260  Biso   1.000  C
  H376     1.0000 0.02480  0.67630  0.77500  Biso   1.000  H
  F188     1.0000 0.03130  0.60360  0.72490  Biso   1.000  F
  C377     1.0000 0.51620  0.85280  0.29330  Biso   1.000  C
  H377     1.0000 0.52740  0.88470  0.28600  Biso   1.000  H
  C378     1.0000 0.51520  0.81650  0.25740  Biso   1.000  C
  H378     1.0000 0.52480  0.82370  0.22500  Biso   1.000  H
  F189     1.0000 0.53130  0.89640  0.27510  Biso   1.000  F
  C379     1.0000 0.51620  0.35280  0.79330  Biso   1.000  C
  H379     1.0000 0.52740  0.38470  0.78600  Biso   1.000  H
  C380     1.0000 0.51520  0.31650  0.75740  Biso   1.000  C
  H380     1.0000 0.52480  0.32370  0.72500  Biso   1.000  H
  F190     1.0000 0.53130  0.39640  0.77510  Biso   1.000  F
  C381     1.0000 0.01620  0.85280  0.79330  Biso   1.000  C
  H381     1.0000 0.02740  0.88470  0.78600  Biso   1.000  H
  C382     1.0000 0.01520  0.81650  0.75740  Biso   1.000  C
  H382     1.0000 0.02480  0.82370  0.72500  Biso   1.000  H
  F191     1.0000 0.03130  0.89640  0.77510  Biso   1.000  F
  C383     1.0000 0.01620  0.35280  0.29330  Biso   1.000  C
  H383     1.0000 0.02740  0.38470  0.28600  Biso   1.000  H
  C384     1.0000 0.01520  0.31650  0.25740  Biso   1.000  C
  H384     1.0000 0.02480  0.32370  0.22500  Biso   1.000  H
  F192     1.0000 0.03130  0.39640  0.27510  Biso   1.000  F
  Tb1      1.0000 0.50000  0.90003  0.50000  Biso   1.000  Tb
  Tb2      1.0000 0.50000  0.40003  0.00000  Biso   1.000  Tb
  Tb3      1.0000 0.00000  0.90003  0.00000  Biso   1.000  Tb
  Tb4      1.0000 0.00000  0.40003  0.50000  Biso   1.000  Tb
  Tb5      1.0000 0.50000  0.09997  0.50000  Biso   1.000  Tb
  Tb6      1.0000 0.50000  0.59997  0.00000  Biso   1.000  Tb
  Tb7      1.0000 0.00000  0.09997  0.00000  Biso   1.000  Tb
  Tb8      1.0000 0.00000  0.59997  0.50000  Biso   1.000  Tb
  Tb9      1.0000 0.50000  0.50000  0.90003  Biso   1.000  Tb
  Tb10     1.0000 0.50000  0.00000  0.40003  Biso   1.000  Tb
  Tb11     1.0000 0.00000  0.50000  0.40003  Biso   1.000  Tb
  Tb12     1.0000 0.00000  0.00000  0.90003  Biso   1.000  Tb
  Tb13     1.0000 0.50000  0.50000  0.09997  Biso   1.000  Tb
  Tb14     1.0000 0.50000  0.00000  0.59997  Biso   1.000  Tb
  Tb15     1.0000 0.00000  0.50000  0.59997  Biso   1.000  Tb
  Tb16     1.0000 0.00000  0.00000  0.09997  Biso   1.000  Tb
  Tb17     1.0000 0.90003  0.50000  0.50000  Biso   1.000  Tb
  Tb18     1.0000 0.90003  0.00000  0.00000  Biso   1.000  Tb
  Tb19     1.0000 0.40003  0.50000  0.00000  Biso   1.000  Tb
  Tb20     1.0000 0.40003  0.00000  0.50000  Biso   1.000  Tb
  Tb21     1.0000 0.09997  0.50000  0.50000  Biso   1.000  Tb
  Tb22     1.0000 0.09997  0.00000  0.00000  Biso   1.000  Tb
  Tb23     1.0000 0.59997  0.50000  0.00000  Biso   1.000  Tb
  Tb24     1.0000 0.59997  0.00000  0.50000  Biso   1.000  Tb
  O1       1.0000 0.54594  0.95406  0.45406  Biso   1.000  O
  O2       1.0000 0.45406  0.04594  0.45406  Biso   1.000  O
  O3       1.0000 0.45406  0.95406  0.54594  Biso   1.000  O
  O4       1.0000 0.54594  0.04594  0.54594  Biso   1.000  O
  O5       1.0000 0.45406  0.54594  0.95406  Biso   1.000  O
  O6       1.0000 0.45406  0.45406  0.04594  Biso   1.000  O
  O7       1.0000 0.54594  0.45406  0.95406  Biso   1.000  O
  O8       1.0000 0.54594  0.54594  0.04594  Biso   1.000  O
  O9       1.0000 0.95406  0.45406  0.54594  Biso   1.000  O
  O10      1.0000 0.95406  0.95406  0.04594  Biso   1.000  O
  O11      1.0000 0.04594  0.45406  0.45406  Biso   1.000  O
  O12      1.0000 0.04594  0.95406  0.95406  Biso   1.000  O
  O13      1.0000 0.95406  0.54594  0.45406  Biso   1.000  O
  O14      1.0000 0.95406  0.04594  0.95406  Biso   1.000  O
  O15      1.0000 0.04594  0.54594  0.54594  Biso   1.000  O
  O16      1.0000 0.04594  0.04594  0.04594  Biso   1.000  O
  O17      1.0000 0.95406  0.54594  0.54594  Biso   1.000  O
  O18      1.0000 0.95406  0.04594  0.04594  Biso   1.000  O
  O19      1.0000 0.04594  0.45406  0.54594  Biso   1.000  O
  O20      1.0000 0.04594  0.95406  0.04594  Biso   1.000  O
  O21      1.0000 0.95406  0.45406  0.45406  Biso   1.000  O
  O22      1.0000 0.95406  0.95406  0.95406  Biso   1.000  O
  O23      1.0000 0.04594  0.54594  0.45406  Biso   1.000  O
  O24      1.0000 0.04594  0.04594  0.95406  Biso   1.000  O
  O25      1.0000 0.54594  0.45406  0.04594  Biso   1.000  O
  O26      1.0000 0.45406  0.45406  0.95406  Biso   1.000  O
  O27      1.0000 0.45406  0.54594  0.04594  Biso   1.000  O
  O28      1.0000 0.54594  0.54594  0.95406  Biso   1.000  O
  O29      1.0000 0.45406  0.95406  0.45406  Biso   1.000  O
  O30      1.0000 0.45406  0.04594  0.54594  Biso   1.000  O
  O31      1.0000 0.54594  0.95406  0.54594  Biso   1.000  O
  O32      1.0000 0.54594  0.04594  0.45406  Biso   1.000  O
  O33      1.0000 0.42340  0.86437  0.50000  Biso   1.000  O
  O34      1.0000 0.42340  0.36437  0.00000  Biso   1.000  O
  O35      1.0000 0.92340  0.86437  0.00000  Biso   1.000  O
  O36      1.0000 0.92340  0.36437  0.50000  Biso   1.000  O
  O37      1.0000 0.57660  0.13563  0.50000  Biso   1.000  O
  O38      1.0000 0.57660  0.63563  0.00000  Biso   1.000  O
  O39      1.0000 0.07660  0.13563  0.00000  Biso   1.000  O
  O40      1.0000 0.07660  0.63563  0.50000  Biso   1.000  O
  O41      1.0000 0.57660  0.86437  0.50000  Biso   1.000  O
  O42      1.0000 0.57660  0.36437  0.00000  Biso   1.000  O
  O43      1.0000 0.07660  0.86437  0.00000  Biso   1.000  O
  O44      1.0000 0.07660  0.36437  0.50000  Biso   1.000  O
  O45      1.0000 0.42340  0.13563  0.50000  Biso   1.000  O
  O46      1.0000 0.42340  0.63563  0.00000  Biso   1.000  O
  O47      1.0000 0.92340  0.13563  0.00000  Biso   1.000  O
  O48      1.0000 0.92340  0.63563  0.50000  Biso   1.000  O
  O49      1.0000 0.50000  0.42340  0.86437  Biso   1.000  O
  O50      1.0000 0.50000  0.92340  0.36437  Biso   1.000  O
  O51      1.0000 0.00000  0.42340  0.36437  Biso   1.000  O
  O52      1.0000 0.00000  0.92340  0.86437  Biso   1.000  O
  O53      1.0000 0.50000  0.57660  0.13563  Biso   1.000  O
  O54      1.0000 0.50000  0.07660  0.63563  Biso   1.000  O
  O55      1.0000 0.00000  0.57660  0.63563  Biso   1.000  O
  O56      1.0000 0.00000  0.07660  0.13563  Biso   1.000  O
  O57      1.0000 0.50000  0.57660  0.86437  Biso   1.000  O
  O58      1.0000 0.50000  0.07660  0.36437  Biso   1.000  O
  O59      1.0000 0.00000  0.57660  0.36437  Biso   1.000  O
  O60      1.0000 0.00000  0.07660  0.86437  Biso   1.000  O
  O61      1.0000 0.50000  0.42340  0.13563  Biso   1.000  O
  O62      1.0000 0.50000  0.92340  0.63563  Biso   1.000  O
  O63      1.0000 0.00000  0.42340  0.63563  Biso   1.000  O
  O64      1.0000 0.00000  0.92340  0.13563  Biso   1.000  O
  O65      1.0000 0.86437  0.50000  0.42340  Biso   1.000  O
  O66      1.0000 0.86437  0.00000  0.92340  Biso   1.000  O
  O67      1.0000 0.36437  0.50000  0.92340  Biso   1.000  O
  O68      1.0000 0.36437  0.00000  0.42340  Biso   1.000  O
  O69      1.0000 0.13563  0.50000  0.57660  Biso   1.000  O
  O70      1.0000 0.13563  0.00000  0.07660  Biso   1.000  O
  O71      1.0000 0.63563  0.50000  0.07660  Biso   1.000  O
  O72      1.0000 0.63563  0.00000  0.57660  Biso   1.000  O
  O73      1.0000 0.86437  0.50000  0.57660  Biso   1.000  O
  O74      1.0000 0.86437  0.00000  0.07660  Biso   1.000  O
  O75      1.0000 0.36437  0.50000  0.07660  Biso   1.000  O
  O76      1.0000 0.36437  0.00000  0.57660  Biso   1.000  O
  O77      1.0000 0.13563  0.50000  0.42340  Biso   1.000  O
  O78      1.0000 0.13563  0.00000  0.92340  Biso   1.000  O
  O79      1.0000 0.63563  0.50000  0.92340  Biso   1.000  O
  O80      1.0000 0.63563  0.00000  0.42340  Biso   1.000  O
  O81      1.0000 0.86437  0.42340  0.50000  Biso   1.000  O
  O82      1.0000 0.86437  0.92340  0.00000  Biso   1.000  O
  O83      1.0000 0.36437  0.42340  0.00000  Biso   1.000  O
  O84      1.0000 0.36437  0.92340  0.50000  Biso   1.000  O
  O85      1.0000 0.13563  0.57660  0.50000  Biso   1.000  O
  O86      1.0000 0.13563  0.07660  0.00000  Biso   1.000  O
  O87      1.0000 0.63563  0.57660  0.00000  Biso   1.000  O
  O88      1.0000 0.63563  0.07660  0.50000  Biso   1.000  O
  O89      1.0000 0.86437  0.57660  0.50000  Biso   1.000  O
  O90      1.0000 0.86437  0.07660  0.00000  Biso   1.000  O
  O91      1.0000 0.36437  0.57660  0.00000  Biso   1.000  O
  O92      1.0000 0.36437  0.07660  0.50000  Biso   1.000  O
  O93      1.0000 0.13563  0.42340  0.50000  Biso   1.000  O
  O94      1.0000 0.13563  0.92340  0.00000  Biso   1.000  O
  O95      1.0000 0.63563  0.42340  0.00000  Biso   1.000  O
  O96      1.0000 0.63563  0.92340  0.50000  Biso   1.000  O
  O97      1.0000 0.42340  0.50000  0.13563  Biso   1.000  O
  O98      1.0000 0.42340  0.00000  0.63563  Biso   1.000  O
  O99      1.0000 0.92340  0.50000  0.63563  Biso   1.000  O
  O100     1.0000 0.92340  0.00000  0.13563  Biso   1.000  O
  O101     1.0000 0.57660  0.50000  0.86437  Biso   1.000  O
  O102     1.0000 0.57660  0.00000  0.36437  Biso   1.000  O
  O103     1.0000 0.07660  0.50000  0.36437  Biso   1.000  O
  O104     1.0000 0.07660  0.00000  0.86437  Biso   1.000  O
  O105     1.0000 0.57660  0.50000  0.13563  Biso   1.000  O
  O106     1.0000 0.57660  0.00000  0.63563  Biso   1.000  O
  O107     1.0000 0.07660  0.50000  0.63563  Biso   1.000  O
  O108     1.0000 0.07660  0.00000  0.13563  Biso   1.000  O
  O109     1.0000 0.42340  0.50000  0.86437  Biso   1.000  O
  O110     1.0000 0.42340  0.00000  0.36437  Biso   1.000  O
  O111     1.0000 0.92340  0.50000  0.36437  Biso   1.000  O
  O112     1.0000 0.92340  0.00000  0.86437  Biso   1.000  O
  O113     1.0000 0.50000  0.86437  0.57660  Biso   1.000  O
  O114     1.0000 0.50000  0.36437  0.07660  Biso   1.000  O
  O115     1.0000 0.00000  0.86437  0.07660  Biso   1.000  O
  O116     1.0000 0.00000  0.36437  0.57660  Biso   1.000  O
  O117     1.0000 0.50000  0.13563  0.42340  Biso   1.000  O
  O118     1.0000 0.50000  0.63563  0.92340  Biso   1.000  O
  O119     1.0000 0.00000  0.13563  0.92340  Biso   1.000  O
  O120     1.0000 0.00000  0.63563  0.42340  Biso   1.000  O
  O121     1.0000 0.50000  0.86437  0.42340  Biso   1.000  O
  O122     1.0000 0.50000  0.36437  0.92340  Biso   1.000  O
  O123     1.0000 0.00000  0.86437  0.92340  Biso   1.000  O
  O124     1.0000 0.00000  0.36437  0.42340  Biso   1.000  O
  O125     1.0000 0.50000  0.13563  0.57660  Biso   1.000  O
  O126     1.0000 0.50000  0.63563  0.07660  Biso   1.000  O
  O127     1.0000 0.00000  0.13563  0.07660  Biso   1.000  O
  O128     1.0000 0.00000  0.63563  0.57660  Biso   1.000  O
  C385     1.0000 0.34050  0.84050  0.50000  Biso   1.000  C
  C386     1.0000 0.38080  0.88080  0.50000  Biso   1.000  C
  C387     1.0000 0.26980  0.76980  0.50000  Biso   1.000  C
  C388     1.0000 0.34050  0.34050  0.00000  Biso   1.000  C
  C389     1.0000 0.38080  0.38080  0.00000  Biso   1.000  C
  C390     1.0000 0.26980  0.26980  0.00000  Biso   1.000  C
  C391     1.0000 0.65950  0.15950  0.50000  Biso   1.000  C
  C392     1.0000 0.61920  0.11920  0.50000  Biso   1.000  C
  C393     1.0000 0.73020  0.23020  0.50000  Biso   1.000  C
  C394     1.0000 0.65950  0.65950  0.00000  Biso   1.000  C
  C395     1.0000 0.61920  0.61920  0.00000  Biso   1.000  C
  C396     1.0000 0.73020  0.73020  0.00000  Biso   1.000  C
  C397     1.0000 0.65950  0.84050  0.50000  Biso   1.000  C
  C398     1.0000 0.61920  0.88080  0.50000  Biso   1.000  C
  C399     1.0000 0.73020  0.76980  0.50000  Biso   1.000  C
  C400     1.0000 0.65950  0.34050  0.00000  Biso   1.000  C
  C401     1.0000 0.61920  0.38080  0.00000  Biso   1.000  C
  C402     1.0000 0.73020  0.26980  0.00000  Biso   1.000  C
  C403     1.0000 0.34050  0.15950  0.50000  Biso   1.000  C
  C404     1.0000 0.38080  0.11920  0.50000  Biso   1.000  C
  C405     1.0000 0.26980  0.23020  0.50000  Biso   1.000  C
  C406     1.0000 0.34050  0.65950  0.00000  Biso   1.000  C
  C407     1.0000 0.38080  0.61920  0.00000  Biso   1.000  C
  C408     1.0000 0.26980  0.73020  0.00000  Biso   1.000  C
  C409     1.0000 0.50000  0.34050  0.84050  Biso   1.000  C
  C410     1.0000 0.50000  0.38080  0.88080  Biso   1.000  C
  C411     1.0000 0.50000  0.26980  0.76980  Biso   1.000  C
  C412     1.0000 0.00000  0.34050  0.34050  Biso   1.000  C
  C413     1.0000 0.00000  0.38080  0.38080  Biso   1.000  C
  C414     1.0000 0.00000  0.26980  0.26980  Biso   1.000  C
  C415     1.0000 0.50000  0.65950  0.15950  Biso   1.000  C
  C416     1.0000 0.50000  0.61920  0.11920  Biso   1.000  C
  C417     1.0000 0.50000  0.73020  0.23020  Biso   1.000  C
  C418     1.0000 0.00000  0.65950  0.65950  Biso   1.000  C
  C419     1.0000 0.00000  0.61920  0.61920  Biso   1.000  C
  C420     1.0000 0.00000  0.73020  0.73020  Biso   1.000  C
  C421     1.0000 0.50000  0.65950  0.84050  Biso   1.000  C
  C422     1.0000 0.50000  0.61920  0.88080  Biso   1.000  C
  C423     1.0000 0.50000  0.73020  0.76980  Biso   1.000  C
  C424     1.0000 0.00000  0.65950  0.34050  Biso   1.000  C
  C425     1.0000 0.00000  0.61920  0.38080  Biso   1.000  C
  C426     1.0000 0.00000  0.73020  0.26980  Biso   1.000  C
  C427     1.0000 0.50000  0.34050  0.15950  Biso   1.000  C
  C428     1.0000 0.50000  0.38080  0.11920  Biso   1.000  C
  C429     1.0000 0.50000  0.26980  0.23020  Biso   1.000  C
  C430     1.0000 0.00000  0.34050  0.65950  Biso   1.000  C
  C431     1.0000 0.00000  0.38080  0.61920  Biso   1.000  C
  C432     1.0000 0.00000  0.26980  0.73020  Biso   1.000  C
  C433     1.0000 0.84050  0.50000  0.34050  Biso   1.000  C
  C434     1.0000 0.88080  0.50000  0.38080  Biso   1.000  C
  C435     1.0000 0.76980  0.50000  0.26980  Biso   1.000  C
  C436     1.0000 0.84050  0.00000  0.84050  Biso   1.000  C
  C437     1.0000 0.88080  0.00000  0.88080  Biso   1.000  C
  C438     1.0000 0.76980  0.00000  0.76980  Biso   1.000  C
  C439     1.0000 0.15950  0.50000  0.65950  Biso   1.000  C
  C440     1.0000 0.11920  0.50000  0.61920  Biso   1.000  C
  C441     1.0000 0.23020  0.50000  0.73020  Biso   1.000  C
  C442     1.0000 0.15950  0.00000  0.15950  Biso   1.000  C
  C443     1.0000 0.11920  0.00000  0.11920  Biso   1.000  C
  C444     1.0000 0.23020  0.00000  0.23020  Biso   1.000  C
  C445     1.0000 0.84050  0.50000  0.65950  Biso   1.000  C
  C446     1.0000 0.88080  0.50000  0.61920  Biso   1.000  C
  C447     1.0000 0.76980  0.50000  0.73020  Biso   1.000  C
  C448     1.0000 0.84050  0.00000  0.15950  Biso   1.000  C
  C449     1.0000 0.88080  0.00000  0.11920  Biso   1.000  C
  C450     1.0000 0.76980  0.00000  0.23020  Biso   1.000  C
  C451     1.0000 0.15950  0.50000  0.34050  Biso   1.000  C
  C452     1.0000 0.11920  0.50000  0.38080  Biso   1.000  C
  C453     1.0000 0.23020  0.50000  0.26980  Biso   1.000  C
  C454     1.0000 0.15950  0.00000  0.84050  Biso   1.000  C
  C455     1.0000 0.11920  0.00000  0.88080  Biso   1.000  C
  C456     1.0000 0.23020  0.00000  0.76980  Biso   1.000  C
  C457     1.0000 0.84050  0.34050  0.50000  Biso   1.000  C
  C458     1.0000 0.88080  0.38080  0.50000  Biso   1.000  C
  C459     1.0000 0.76980  0.26980  0.50000  Biso   1.000  C
  C460     1.0000 0.84050  0.84050  0.00000  Biso   1.000  C
  C461     1.0000 0.88080  0.88080  0.00000  Biso   1.000  C
  C462     1.0000 0.76980  0.76980  0.00000  Biso   1.000  C
  C463     1.0000 0.15950  0.65950  0.50000  Biso   1.000  C
  C464     1.0000 0.11920  0.61920  0.50000  Biso   1.000  C
  C465     1.0000 0.23020  0.73020  0.50000  Biso   1.000  C
  C466     1.0000 0.15950  0.15950  0.00000  Biso   1.000  C
  C467     1.0000 0.11920  0.11920  0.00000  Biso   1.000  C
  C468     1.0000 0.23020  0.23020  0.00000  Biso   1.000  C
  C469     1.0000 0.84050  0.65950  0.50000  Biso   1.000  C
  C470     1.0000 0.88080  0.61920  0.50000  Biso   1.000  C
  C471     1.0000 0.76980  0.73020  0.50000  Biso   1.000  C
  C472     1.0000 0.84050  0.15950  0.00000  Biso   1.000  C
  C473     1.0000 0.88080  0.11920  0.00000  Biso   1.000  C
  C474     1.0000 0.76980  0.23020  0.00000  Biso   1.000  C
  C475     1.0000 0.15950  0.34050  0.50000  Biso   1.000  C
  C476     1.0000 0.11920  0.38080  0.50000  Biso   1.000  C
  C477     1.0000 0.23020  0.26980  0.50000  Biso   1.000  C
  C478     1.0000 0.15950  0.84050  0.00000  Biso   1.000  C
  C479     1.0000 0.11920  0.88080  0.00000  Biso   1.000  C
  C480     1.0000 0.23020  0.76980  0.00000  Biso   1.000  C
  C481     1.0000 0.34050  0.50000  0.15950  Biso   1.000  C
  C482     1.0000 0.38080  0.50000  0.11920  Biso   1.000  C
  C483     1.0000 0.26980  0.50000  0.23020  Biso   1.000  C
  C484     1.0000 0.34050  0.00000  0.65950  Biso   1.000  C
  C485     1.0000 0.38080  0.00000  0.61920  Biso   1.000  C
  C486     1.0000 0.26980  0.00000  0.73020  Biso   1.000  C
  C487     1.0000 0.65950  0.50000  0.84050  Biso   1.000  C
  C488     1.0000 0.61920  0.50000  0.88080  Biso   1.000  C
  C489     1.0000 0.73020  0.50000  0.76980  Biso   1.000  C
  C490     1.0000 0.65950  0.00000  0.34050  Biso   1.000  C
  C491     1.0000 0.61920  0.00000  0.38080  Biso   1.000  C
  C492     1.0000 0.73020  0.00000  0.26980  Biso   1.000  C
  C493     1.0000 0.65950  0.50000  0.15950  Biso   1.000  C
  C494     1.0000 0.61920  0.50000  0.11920  Biso   1.000  C
  C495     1.0000 0.73020  0.50000  0.23020  Biso   1.000  C
  C496     1.0000 0.65950  0.00000  0.65950  Biso   1.000  C
  C497     1.0000 0.61920  0.00000  0.61920  Biso   1.000  C
  C498     1.0000 0.73020  0.00000  0.73020  Biso   1.000  C
  C499     1.0000 0.34050  0.50000  0.84050  Biso   1.000  C
  C500     1.0000 0.38080  0.50000  0.88080  Biso   1.000  C
  C501     1.0000 0.26980  0.50000  0.76980  Biso   1.000  C
  C502     1.0000 0.34050  0.00000  0.34050  Biso   1.000  C
  C503     1.0000 0.38080  0.00000  0.38080  Biso   1.000  C
  C504     1.0000 0.26980  0.00000  0.26980  Biso   1.000  C
  C505     1.0000 0.50000  0.84050  0.65950  Biso   1.000  C
  C506     1.0000 0.50000  0.88080  0.61920  Biso   1.000  C
  C507     1.0000 0.50000  0.76980  0.73020  Biso   1.000  C
  C508     1.0000 0.00000  0.84050  0.15950  Biso   1.000  C
  C509     1.0000 0.00000  0.88080  0.11920  Biso   1.000  C
  C510     1.0000 0.00000  0.76980  0.23020  Biso   1.000  C
  C511     1.0000 0.50000  0.15950  0.34050  Biso   1.000  C
  C512     1.0000 0.50000  0.11920  0.38080  Biso   1.000  C
  C513     1.0000 0.50000  0.23020  0.26980  Biso   1.000  C
  C514     1.0000 0.00000  0.15950  0.84050  Biso   1.000  C
  C515     1.0000 0.00000  0.11920  0.88080  Biso   1.000  C
  C516     1.0000 0.00000  0.23020  0.76980  Biso   1.000  C
  C517     1.0000 0.50000  0.84050  0.34050  Biso   1.000  C
  C518     1.0000 0.50000  0.88080  0.38080  Biso   1.000  C
  C519     1.0000 0.50000  0.76980  0.26980  Biso   1.000  C
  C520     1.0000 0.00000  0.84050  0.84050  Biso   1.000  C
  C521     1.0000 0.00000  0.88080  0.88080  Biso   1.000  C
  C522     1.0000 0.00000  0.76980  0.76980  Biso   1.000  C
  C523     1.0000 0.50000  0.15950  0.65950  Biso   1.000  C
  C524     1.0000 0.50000  0.11920  0.61920  Biso   1.000  C
  C525     1.0000 0.50000  0.23020  0.73020  Biso   1.000  C
  C526     1.0000 0.00000  0.15950  0.15950  Biso   1.000  C
  C527     1.0000 0.00000  0.11920  0.11920  Biso   1.000  C
  C528     1.0000 0.00000  0.23020  0.23020  Biso   1.000  C
