data_image0
_cell_length_a       27.5127
_cell_length_b       27.5127
_cell_length_c       27.5127
_cell_angle_alpha    90
_cell_angle_beta     90
_cell_angle_gamma    90

_symmetry_space_group_name_H-M    "P 1"
_symmetry_int_tables_number       1

loop_
  _symmetry_equiv_pos_as_xyz
  'x, y, z'

loop_
  _atom_site_label
  _atom_site_occupancy
  _atom_site_fract_x
  _atom_site_fract_y
  _atom_site_fract_z
  _atom_site_thermal_displace_type
  _atom_site_B_iso_or_equiv
  _atom_site_type_symbol
  C1       1.0000 0.20780  0.85320  0.01260  Biso   1.000  C
  H1       1.0000 0.21700  0.88650  0.01210  Biso   1.000  H
  F1       1.0000 0.22300  0.90020  0.01210  Biso   1.000  F
  C2       1.0000 0.24490  0.81800  0.01420  Biso   1.000  C
  H2       1.0000 0.27820  0.82700  0.01490  Biso   1.000  H
  C3       1.0000 0.20780  0.35320  0.51260  Biso   1.000  C
  H3       1.0000 0.21700  0.38650  0.51210  Biso   1.000  H
  F2       1.0000 0.22300  0.40020  0.51210  Biso   1.000  F
  C4       1.0000 0.24490  0.31800  0.51420  Biso   1.000  C
  H4       1.0000 0.27820  0.32700  0.51490  Biso   1.000  H
  C5       1.0000 0.70780  0.85320  0.51260  Biso   1.000  C
  H5       1.0000 0.71700  0.88650  0.51210  Biso   1.000  H
  F3       1.0000 0.72300  0.90020  0.51210  Biso   1.000  F
  C6       1.0000 0.74490  0.81800  0.51420  Biso   1.000  C
  H6       1.0000 0.77820  0.82700  0.51490  Biso   1.000  H
  C7       1.0000 0.70780  0.35320  0.01260  Biso   1.000  C
  H7       1.0000 0.71700  0.38650  0.01210  Biso   1.000  H
  F4       1.0000 0.72300  0.40020  0.01210  Biso   1.000  F
  C8       1.0000 0.74490  0.31800  0.01420  Biso   1.000  C
  H8       1.0000 0.77820  0.32700  0.01490  Biso   1.000  H
  C9       1.0000 0.79220  0.14680  0.01260  Biso   1.000  C
  H9       1.0000 0.78300  0.11350  0.01210  Biso   1.000  H
  F5       1.0000 0.77700  0.09980  0.01210  Biso   1.000  F
  C10      1.0000 0.75510  0.18200  0.01420  Biso   1.000  C
  H10      1.0000 0.72180  0.17300  0.01490  Biso   1.000  H
  C11      1.0000 0.79220  0.64680  0.51260  Biso   1.000  C
  H11      1.0000 0.78300  0.61350  0.51210  Biso   1.000  H
  F6       1.0000 0.77700  0.59980  0.51210  Biso   1.000  F
  C12      1.0000 0.75510  0.68200  0.51420  Biso   1.000  C
  H12      1.0000 0.72180  0.67300  0.51490  Biso   1.000  H
  C13      1.0000 0.29220  0.14680  0.51260  Biso   1.000  C
  H13      1.0000 0.28300  0.11350  0.51210  Biso   1.000  H
  F7       1.0000 0.27700  0.09980  0.51210  Biso   1.000  F
  C14      1.0000 0.25510  0.18200  0.51420  Biso   1.000  C
  H14      1.0000 0.22180  0.17300  0.51490  Biso   1.000  H
  C15      1.0000 0.29220  0.64680  0.01260  Biso   1.000  C
  H15      1.0000 0.28300  0.61350  0.01210  Biso   1.000  H
  F8       1.0000 0.27700  0.59980  0.01210  Biso   1.000  F
  C16      1.0000 0.25510  0.68200  0.01420  Biso   1.000  C
  H16      1.0000 0.22180  0.67300  0.01490  Biso   1.000  H
  C17      1.0000 0.79220  0.85320  0.98740  Biso   1.000  C
  H17      1.0000 0.78300  0.88650  0.98790  Biso   1.000  H
  F9       1.0000 0.77700  0.90020  0.98790  Biso   1.000  F
  C18      1.0000 0.75510  0.81800  0.98580  Biso   1.000  C
  H18      1.0000 0.72180  0.82700  0.98510  Biso   1.000  H
  C19      1.0000 0.79220  0.35320  0.48740  Biso   1.000  C
  H19      1.0000 0.78300  0.38650  0.48790  Biso   1.000  H
  F10      1.0000 0.77700  0.40020  0.48790  Biso   1.000  F
  C20      1.0000 0.75510  0.31800  0.48580  Biso   1.000  C
  H20      1.0000 0.72180  0.32700  0.48510  Biso   1.000  H
  C21      1.0000 0.29220  0.85320  0.48740  Biso   1.000  C
  H21      1.0000 0.28300  0.88650  0.48790  Biso   1.000  H
  F11      1.0000 0.27700  0.90020  0.48790  Biso   1.000  F
  C22      1.0000 0.25510  0.81800  0.48580  Biso   1.000  C
  H22      1.0000 0.22180  0.82700  0.48510  Biso   1.000  H
  C23      1.0000 0.29220  0.35320  0.98740  Biso   1.000  C
  H23      1.0000 0.28300  0.38650  0.98790  Biso   1.000  H
  F12      1.0000 0.27700  0.40020  0.98790  Biso   1.000  F
  C24      1.0000 0.25510  0.31800  0.98580  Biso   1.000  C
  H24      1.0000 0.22180  0.32700  0.98510  Biso   1.000  H
  C25      1.0000 0.20780  0.14680  0.98740  Biso   1.000  C
  H25      1.0000 0.21700  0.11350  0.98790  Biso   1.000  H
  F13      1.0000 0.22300  0.09980  0.98790  Biso   1.000  F
  C26      1.0000 0.24490  0.18200  0.98580  Biso   1.000  C
  H26      1.0000 0.27820  0.17300  0.98510  Biso   1.000  H
  C27      1.0000 0.20780  0.64680  0.48740  Biso   1.000  C
  H27      1.0000 0.21700  0.61350  0.48790  Biso   1.000  H
  F14      1.0000 0.22300  0.59980  0.48790  Biso   1.000  F
  C28      1.0000 0.24490  0.68200  0.48580  Biso   1.000  C
  H28      1.0000 0.27820  0.67300  0.48510  Biso   1.000  H
  C29      1.0000 0.70780  0.14680  0.48740  Biso   1.000  C
  H29      1.0000 0.71700  0.11350  0.48790  Biso   1.000  H
  F15      1.0000 0.72300  0.09980  0.48790  Biso   1.000  F
  C30      1.0000 0.74490  0.18200  0.48580  Biso   1.000  C
  H30      1.0000 0.77820  0.17300  0.48510  Biso   1.000  H
  C31      1.0000 0.70780  0.64680  0.98740  Biso   1.000  C
  H31      1.0000 0.71700  0.61350  0.98790  Biso   1.000  H
  F16      1.0000 0.72300  0.59980  0.98790  Biso   1.000  F
  C32      1.0000 0.74490  0.68200  0.98580  Biso   1.000  C
  H32      1.0000 0.77820  0.67300  0.98510  Biso   1.000  H
  C33      1.0000 0.01260  0.20780  0.85320  Biso   1.000  C
  H33      1.0000 0.01210  0.21700  0.88650  Biso   1.000  H
  F17      1.0000 0.01210  0.22300  0.90020  Biso   1.000  F
  C34      1.0000 0.01420  0.24490  0.81800  Biso   1.000  C
  H34      1.0000 0.01490  0.27820  0.82700  Biso   1.000  H
  C35      1.0000 0.01260  0.70780  0.35320  Biso   1.000  C
  H35      1.0000 0.01210  0.71700  0.38650  Biso   1.000  H
  F18      1.0000 0.01210  0.72300  0.40020  Biso   1.000  F
  C36      1.0000 0.01420  0.74490  0.31800  Biso   1.000  C
  H36      1.0000 0.01490  0.77820  0.32700  Biso   1.000  H
  C37      1.0000 0.51260  0.20780  0.35320  Biso   1.000  C
  H37      1.0000 0.51210  0.21700  0.38650  Biso   1.000  H
  F19      1.0000 0.51210  0.22300  0.40020  Biso   1.000  F
  C38      1.0000 0.51420  0.24490  0.31800  Biso   1.000  C
  H38      1.0000 0.51490  0.27820  0.32700  Biso   1.000  H
  C39      1.0000 0.51260  0.70780  0.85320  Biso   1.000  C
  H39      1.0000 0.51210  0.71700  0.88650  Biso   1.000  H
  F20      1.0000 0.51210  0.72300  0.90020  Biso   1.000  F
  C40      1.0000 0.51420  0.74490  0.81800  Biso   1.000  C
  H40      1.0000 0.51490  0.77820  0.82700  Biso   1.000  H
  C41      1.0000 0.01260  0.79220  0.14680  Biso   1.000  C
  H41      1.0000 0.01210  0.78300  0.11350  Biso   1.000  H
  F21      1.0000 0.01210  0.77700  0.09980  Biso   1.000  F
  C42      1.0000 0.01420  0.75510  0.18200  Biso   1.000  C
  H42      1.0000 0.01490  0.72180  0.17300  Biso   1.000  H
  C43      1.0000 0.01260  0.29220  0.64680  Biso   1.000  C
  H43      1.0000 0.01210  0.28300  0.61350  Biso   1.000  H
  F22      1.0000 0.01210  0.27700  0.59980  Biso   1.000  F
  C44      1.0000 0.01420  0.25510  0.68200  Biso   1.000  C
  H44      1.0000 0.01490  0.22180  0.67300  Biso   1.000  H
  C45      1.0000 0.51260  0.79220  0.64680  Biso   1.000  C
  H45      1.0000 0.51210  0.78300  0.61350  Biso   1.000  H
  F23      1.0000 0.51210  0.77700  0.59980  Biso   1.000  F
  C46      1.0000 0.51420  0.75510  0.68200  Biso   1.000  C
  H46      1.0000 0.51490  0.72180  0.67300  Biso   1.000  H
  C47      1.0000 0.51260  0.29220  0.14680  Biso   1.000  C
  H47      1.0000 0.51210  0.28300  0.11350  Biso   1.000  H
  F24      1.0000 0.51210  0.27700  0.09980  Biso   1.000  F
  C48      1.0000 0.51420  0.25510  0.18200  Biso   1.000  C
  H48      1.0000 0.51490  0.22180  0.17300  Biso   1.000  H
  C49      1.0000 0.98740  0.79220  0.85320  Biso   1.000  C
  H49      1.0000 0.98790  0.78300  0.88650  Biso   1.000  H
  F25      1.0000 0.98790  0.77700  0.90020  Biso   1.000  F
  C50      1.0000 0.98580  0.75510  0.81800  Biso   1.000  C
  H50      1.0000 0.98510  0.72180  0.82700  Biso   1.000  H
  C51      1.0000 0.98740  0.29220  0.35320  Biso   1.000  C
  H51      1.0000 0.98790  0.28300  0.38650  Biso   1.000  H
  F26      1.0000 0.98790  0.27700  0.40020  Biso   1.000  F
  C52      1.0000 0.98580  0.25510  0.31800  Biso   1.000  C
  H52      1.0000 0.98510  0.22180  0.32700  Biso   1.000  H
  C53      1.0000 0.48740  0.79220  0.35320  Biso   1.000  C
  H53      1.0000 0.48790  0.78300  0.38650  Biso   1.000  H
  F27      1.0000 0.48790  0.77700  0.40020  Biso   1.000  F
  C54      1.0000 0.48580  0.75510  0.31800  Biso   1.000  C
  H54      1.0000 0.48510  0.72180  0.32700  Biso   1.000  H
  C55      1.0000 0.48740  0.29220  0.85320  Biso   1.000  C
  H55      1.0000 0.48790  0.28300  0.88650  Biso   1.000  H
  F28      1.0000 0.48790  0.27700  0.90020  Biso   1.000  F
  C56      1.0000 0.48580  0.25510  0.81800  Biso   1.000  C
  H56      1.0000 0.48510  0.22180  0.82700  Biso   1.000  H
  C57      1.0000 0.98740  0.20780  0.14680  Biso   1.000  C
  H57      1.0000 0.98790  0.21700  0.11350  Biso   1.000  H
  F29      1.0000 0.98790  0.22300  0.09980  Biso   1.000  F
  C58      1.0000 0.98580  0.24490  0.18200  Biso   1.000  C
  H58      1.0000 0.98510  0.27820  0.17300  Biso   1.000  H
  C59      1.0000 0.98740  0.70780  0.64680  Biso   1.000  C
  H59      1.0000 0.98790  0.71700  0.61350  Biso   1.000  H
  F30      1.0000 0.98790  0.72300  0.59980  Biso   1.000  F
  C60      1.0000 0.98580  0.74490  0.68200  Biso   1.000  C
  H60      1.0000 0.98510  0.77820  0.67300  Biso   1.000  H
  C61      1.0000 0.48740  0.20780  0.64680  Biso   1.000  C
  H61      1.0000 0.48790  0.21700  0.61350  Biso   1.000  H
  F31      1.0000 0.48790  0.22300  0.59980  Biso   1.000  F
  C62      1.0000 0.48580  0.24490  0.68200  Biso   1.000  C
  H62      1.0000 0.48510  0.27820  0.67300  Biso   1.000  H
  C63      1.0000 0.48740  0.70780  0.14680  Biso   1.000  C
  H63      1.0000 0.48790  0.71700  0.11350  Biso   1.000  H
  F32      1.0000 0.48790  0.72300  0.09980  Biso   1.000  F
  C64      1.0000 0.48580  0.74490  0.18200  Biso   1.000  C
  H64      1.0000 0.48510  0.77820  0.17300  Biso   1.000  H
  C65      1.0000 0.85320  0.01260  0.20780  Biso   1.000  C
  H65      1.0000 0.88650  0.01210  0.21700  Biso   1.000  H
  F33      1.0000 0.90020  0.01210  0.22300  Biso   1.000  F
  C66      1.0000 0.81800  0.01420  0.24490  Biso   1.000  C
  H66      1.0000 0.82700  0.01490  0.27820  Biso   1.000  H
  C67      1.0000 0.85320  0.51260  0.70780  Biso   1.000  C
  H67      1.0000 0.88650  0.51210  0.71700  Biso   1.000  H
  F34      1.0000 0.90020  0.51210  0.72300  Biso   1.000  F
  C68      1.0000 0.81800  0.51420  0.74490  Biso   1.000  C
  H68      1.0000 0.82700  0.51490  0.77820  Biso   1.000  H
  C69      1.0000 0.35320  0.01260  0.70780  Biso   1.000  C
  H69      1.0000 0.38650  0.01210  0.71700  Biso   1.000  H
  F35      1.0000 0.40020  0.01210  0.72300  Biso   1.000  F
  C70      1.0000 0.31800  0.01420  0.74490  Biso   1.000  C
  H70      1.0000 0.32700  0.01490  0.77820  Biso   1.000  H
  C71      1.0000 0.35320  0.51260  0.20780  Biso   1.000  C
  H71      1.0000 0.38650  0.51210  0.21700  Biso   1.000  H
  F36      1.0000 0.40020  0.51210  0.22300  Biso   1.000  F
  C72      1.0000 0.31800  0.51420  0.24490  Biso   1.000  C
  H72      1.0000 0.32700  0.51490  0.27820  Biso   1.000  H
  C73      1.0000 0.14680  0.01260  0.79220  Biso   1.000  C
  H73      1.0000 0.11350  0.01210  0.78300  Biso   1.000  H
  F37      1.0000 0.09980  0.01210  0.77700  Biso   1.000  F
  C74      1.0000 0.18200  0.01420  0.75510  Biso   1.000  C
  H74      1.0000 0.17300  0.01490  0.72180  Biso   1.000  H
  C75      1.0000 0.14680  0.51260  0.29220  Biso   1.000  C
  H75      1.0000 0.11350  0.51210  0.28300  Biso   1.000  H
  F38      1.0000 0.09980  0.51210  0.27700  Biso   1.000  F
  C76      1.0000 0.18200  0.51420  0.25510  Biso   1.000  C
  H76      1.0000 0.17300  0.51490  0.22180  Biso   1.000  H
  C77      1.0000 0.64680  0.01260  0.29220  Biso   1.000  C
  H77      1.0000 0.61350  0.01210  0.28300  Biso   1.000  H
  F39      1.0000 0.59980  0.01210  0.27700  Biso   1.000  F
  C78      1.0000 0.68200  0.01420  0.25510  Biso   1.000  C
  H78      1.0000 0.67300  0.01490  0.22180  Biso   1.000  H
  C79      1.0000 0.64680  0.51260  0.79220  Biso   1.000  C
  H79      1.0000 0.61350  0.51210  0.78300  Biso   1.000  H
  F40      1.0000 0.59980  0.51210  0.77700  Biso   1.000  F
  C80      1.0000 0.68200  0.51420  0.75510  Biso   1.000  C
  H80      1.0000 0.67300  0.51490  0.72180  Biso   1.000  H
  C81      1.0000 0.85320  0.98740  0.79220  Biso   1.000  C
  H81      1.0000 0.88650  0.98790  0.78300  Biso   1.000  H
  F41      1.0000 0.90020  0.98790  0.77700  Biso   1.000  F
  C82      1.0000 0.81800  0.98580  0.75510  Biso   1.000  C
  H82      1.0000 0.82700  0.98510  0.72180  Biso   1.000  H
  C83      1.0000 0.85320  0.48740  0.29220  Biso   1.000  C
  H83      1.0000 0.88650  0.48790  0.28300  Biso   1.000  H
  F42      1.0000 0.90020  0.48790  0.27700  Biso   1.000  F
  C84      1.0000 0.81800  0.48580  0.25510  Biso   1.000  C
  H84      1.0000 0.82700  0.48510  0.22180  Biso   1.000  H
  C85      1.0000 0.35320  0.98740  0.29220  Biso   1.000  C
  H85      1.0000 0.38650  0.98790  0.28300  Biso   1.000  H
  F43      1.0000 0.40020  0.98790  0.27700  Biso   1.000  F
  C86      1.0000 0.31800  0.98580  0.25510  Biso   1.000  C
  H86      1.0000 0.32700  0.98510  0.22180  Biso   1.000  H
  C87      1.0000 0.35320  0.48740  0.79220  Biso   1.000  C
  H87      1.0000 0.38650  0.48790  0.78300  Biso   1.000  H
  F44      1.0000 0.40020  0.48790  0.77700  Biso   1.000  F
  C88      1.0000 0.31800  0.48580  0.75510  Biso   1.000  C
  H88      1.0000 0.32700  0.48510  0.72180  Biso   1.000  H
  C89      1.0000 0.14680  0.98740  0.20780  Biso   1.000  C
  H89      1.0000 0.11350  0.98790  0.21700  Biso   1.000  H
  F45      1.0000 0.09980  0.98790  0.22300  Biso   1.000  F
  C90      1.0000 0.18200  0.98580  0.24490  Biso   1.000  C
  H90      1.0000 0.17300  0.98510  0.27820  Biso   1.000  H
  C91      1.0000 0.14680  0.48740  0.70780  Biso   1.000  C
  H91      1.0000 0.11350  0.48790  0.71700  Biso   1.000  H
  F46      1.0000 0.09980  0.48790  0.72300  Biso   1.000  F
  C92      1.0000 0.18200  0.48580  0.74490  Biso   1.000  C
  H92      1.0000 0.17300  0.48510  0.77820  Biso   1.000  H
  C93      1.0000 0.64680  0.98740  0.70780  Biso   1.000  C
  H93      1.0000 0.61350  0.98790  0.71700  Biso   1.000  H
  F47      1.0000 0.59980  0.98790  0.72300  Biso   1.000  F
  C94      1.0000 0.68200  0.98580  0.74490  Biso   1.000  C
  H94      1.0000 0.67300  0.98510  0.77820  Biso   1.000  H
  C95      1.0000 0.64680  0.48740  0.20780  Biso   1.000  C
  H95      1.0000 0.61350  0.48790  0.21700  Biso   1.000  H
  F48      1.0000 0.59980  0.48790  0.22300  Biso   1.000  F
  C96      1.0000 0.68200  0.48580  0.24490  Biso   1.000  C
  H96      1.0000 0.67300  0.48510  0.27820  Biso   1.000  H
  C97      1.0000 0.85320  0.20780  0.98740  Biso   1.000  C
  H97      1.0000 0.88650  0.21700  0.98790  Biso   1.000  H
  F49      1.0000 0.90020  0.22300  0.98790  Biso   1.000  F
  C98      1.0000 0.81800  0.24490  0.98580  Biso   1.000  C
  H98      1.0000 0.82700  0.27820  0.98510  Biso   1.000  H
  C99      1.0000 0.85320  0.70780  0.48740  Biso   1.000  C
  H99      1.0000 0.88650  0.71700  0.48790  Biso   1.000  H
  F50      1.0000 0.90020  0.72300  0.48790  Biso   1.000  F
  C100     1.0000 0.81800  0.74490  0.48580  Biso   1.000  C
  H100     1.0000 0.82700  0.77820  0.48510  Biso   1.000  H
  C101     1.0000 0.35320  0.20780  0.48740  Biso   1.000  C
  H101     1.0000 0.38650  0.21700  0.48790  Biso   1.000  H
  F51      1.0000 0.40020  0.22300  0.48790  Biso   1.000  F
  C102     1.0000 0.31800  0.24490  0.48580  Biso   1.000  C
  H102     1.0000 0.32700  0.27820  0.48510  Biso   1.000  H
  C103     1.0000 0.35320  0.70780  0.98740  Biso   1.000  C
  H103     1.0000 0.38650  0.71700  0.98790  Biso   1.000  H
  F52      1.0000 0.40020  0.72300  0.98790  Biso   1.000  F
  C104     1.0000 0.31800  0.74490  0.98580  Biso   1.000  C
  H104     1.0000 0.32700  0.77820  0.98510  Biso   1.000  H
  C105     1.0000 0.14680  0.79220  0.98740  Biso   1.000  C
  H105     1.0000 0.11350  0.78300  0.98790  Biso   1.000  H
  F53      1.0000 0.09980  0.77700  0.98790  Biso   1.000  F
  C106     1.0000 0.18200  0.75510  0.98580  Biso   1.000  C
  H106     1.0000 0.17300  0.72180  0.98510  Biso   1.000  H
  C107     1.0000 0.14680  0.29220  0.48740  Biso   1.000  C
  H107     1.0000 0.11350  0.28300  0.48790  Biso   1.000  H
  F54      1.0000 0.09980  0.27700  0.48790  Biso   1.000  F
  C108     1.0000 0.18200  0.25510  0.48580  Biso   1.000  C
  H108     1.0000 0.17300  0.22180  0.48510  Biso   1.000  H
  C109     1.0000 0.64680  0.79220  0.48740  Biso   1.000  C
  H109     1.0000 0.61350  0.78300  0.48790  Biso   1.000  H
  F55      1.0000 0.59980  0.77700  0.48790  Biso   1.000  F
  C110     1.0000 0.68200  0.75510  0.48580  Biso   1.000  C
  H110     1.0000 0.67300  0.72180  0.48510  Biso   1.000  H
  C111     1.0000 0.64680  0.29220  0.98740  Biso   1.000  C
  H111     1.0000 0.61350  0.28300  0.98790  Biso   1.000  H
  F56      1.0000 0.59980  0.27700  0.98790  Biso   1.000  F
  C112     1.0000 0.68200  0.25510  0.98580  Biso   1.000  C
  H112     1.0000 0.67300  0.22180  0.98510  Biso   1.000  H
  C113     1.0000 0.85320  0.79220  0.01260  Biso   1.000  C
  H113     1.0000 0.88650  0.78300  0.01210  Biso   1.000  H
  F57      1.0000 0.90020  0.77700  0.01210  Biso   1.000  F
  C114     1.0000 0.81800  0.75510  0.01420  Biso   1.000  C
  H114     1.0000 0.82700  0.72180  0.01490  Biso   1.000  H
  C115     1.0000 0.85320  0.29220  0.51260  Biso   1.000  C
  H115     1.0000 0.88650  0.28300  0.51210  Biso   1.000  H
  F58      1.0000 0.90020  0.27700  0.51210  Biso   1.000  F
  C116     1.0000 0.81800  0.25510  0.51420  Biso   1.000  C
  H116     1.0000 0.82700  0.22180  0.51490  Biso   1.000  H
  C117     1.0000 0.35320  0.79220  0.51260  Biso   1.000  C
  H117     1.0000 0.38650  0.78300  0.51210  Biso   1.000  H
  F59      1.0000 0.40020  0.77700  0.51210  Biso   1.000  F
  C118     1.0000 0.31800  0.75510  0.51420  Biso   1.000  C
  H118     1.0000 0.32700  0.72180  0.51490  Biso   1.000  H
  C119     1.0000 0.35320  0.29220  0.01260  Biso   1.000  C
  H119     1.0000 0.38650  0.28300  0.01210  Biso   1.000  H
  F60      1.0000 0.40020  0.27700  0.01210  Biso   1.000  F
  C120     1.0000 0.31800  0.25510  0.01420  Biso   1.000  C
  H120     1.0000 0.32700  0.22180  0.01490  Biso   1.000  H
  C121     1.0000 0.14680  0.20780  0.01260  Biso   1.000  C
  H121     1.0000 0.11350  0.21700  0.01210  Biso   1.000  H
  F61      1.0000 0.09980  0.22300  0.01210  Biso   1.000  F
  C122     1.0000 0.18200  0.24490  0.01420  Biso   1.000  C
  H122     1.0000 0.17300  0.27820  0.01490  Biso   1.000  H
  C123     1.0000 0.14680  0.70780  0.51260  Biso   1.000  C
  H123     1.0000 0.11350  0.71700  0.51210  Biso   1.000  H
  F62      1.0000 0.09980  0.72300  0.51210  Biso   1.000  F
  C124     1.0000 0.18200  0.74490  0.51420  Biso   1.000  C
  H124     1.0000 0.17300  0.77820  0.51490  Biso   1.000  H
  C125     1.0000 0.64680  0.20780  0.51260  Biso   1.000  C
  H125     1.0000 0.61350  0.21700  0.51210  Biso   1.000  H
  F63      1.0000 0.59980  0.22300  0.51210  Biso   1.000  F
  C126     1.0000 0.68200  0.24490  0.51420  Biso   1.000  C
  H126     1.0000 0.67300  0.27820  0.51490  Biso   1.000  H
  C127     1.0000 0.64680  0.70780  0.01260  Biso   1.000  C
  H127     1.0000 0.61350  0.71700  0.01210  Biso   1.000  H
  F64      1.0000 0.59980  0.72300  0.01210  Biso   1.000  F
  C128     1.0000 0.68200  0.74490  0.01420  Biso   1.000  C
  H128     1.0000 0.67300  0.77820  0.01490  Biso   1.000  H
  C129     1.0000 0.20780  0.01260  0.14680  Biso   1.000  C
  H129     1.0000 0.21700  0.01210  0.11350  Biso   1.000  H
  F65      1.0000 0.22300  0.01210  0.09980  Biso   1.000  F
  C130     1.0000 0.24490  0.01420  0.18200  Biso   1.000  C
  H130     1.0000 0.27820  0.01490  0.17300  Biso   1.000  H
  C131     1.0000 0.20780  0.51260  0.64680  Biso   1.000  C
  H131     1.0000 0.21700  0.51210  0.61350  Biso   1.000  H
  F66      1.0000 0.22300  0.51210  0.59980  Biso   1.000  F
  C132     1.0000 0.24490  0.51420  0.68200  Biso   1.000  C
  H132     1.0000 0.27820  0.51490  0.67300  Biso   1.000  H
  C133     1.0000 0.70780  0.01260  0.64680  Biso   1.000  C
  H133     1.0000 0.71700  0.01210  0.61350  Biso   1.000  H
  F67      1.0000 0.72300  0.01210  0.59980  Biso   1.000  F
  C134     1.0000 0.74490  0.01420  0.68200  Biso   1.000  C
  H134     1.0000 0.77820  0.01490  0.67300  Biso   1.000  H
  C135     1.0000 0.70780  0.51260  0.14680  Biso   1.000  C
  H135     1.0000 0.71700  0.51210  0.11350  Biso   1.000  H
  F68      1.0000 0.72300  0.51210  0.09980  Biso   1.000  F
  C136     1.0000 0.74490  0.51420  0.18200  Biso   1.000  C
  H136     1.0000 0.77820  0.51490  0.17300  Biso   1.000  H
  C137     1.0000 0.79220  0.01260  0.85320  Biso   1.000  C
  H137     1.0000 0.78300  0.01210  0.88650  Biso   1.000  H
  F69      1.0000 0.77700  0.01210  0.90020  Biso   1.000  F
  C138     1.0000 0.75510  0.01420  0.81800  Biso   1.000  C
  H138     1.0000 0.72180  0.01490  0.82700  Biso   1.000  H
  C139     1.0000 0.79220  0.51260  0.35320  Biso   1.000  C
  H139     1.0000 0.78300  0.51210  0.38650  Biso   1.000  H
  F70      1.0000 0.77700  0.51210  0.40020  Biso   1.000  F
  C140     1.0000 0.75510  0.51420  0.31800  Biso   1.000  C
  H140     1.0000 0.72180  0.51490  0.32700  Biso   1.000  H
  C141     1.0000 0.29220  0.01260  0.35320  Biso   1.000  C
  H141     1.0000 0.28300  0.01210  0.38650  Biso   1.000  H
  F71      1.0000 0.27700  0.01210  0.40020  Biso   1.000  F
  C142     1.0000 0.25510  0.01420  0.31800  Biso   1.000  C
  H142     1.0000 0.22180  0.01490  0.32700  Biso   1.000  H
  C143     1.0000 0.29220  0.51260  0.85320  Biso   1.000  C
  H143     1.0000 0.28300  0.51210  0.88650  Biso   1.000  H
  F72      1.0000 0.27700  0.51210  0.90020  Biso   1.000  F
  C144     1.0000 0.25510  0.51420  0.81800  Biso   1.000  C
  H144     1.0000 0.22180  0.51490  0.82700  Biso   1.000  H
  C145     1.0000 0.79220  0.98740  0.14680  Biso   1.000  C
  H145     1.0000 0.78300  0.98790  0.11350  Biso   1.000  H
  F73      1.0000 0.77700  0.98790  0.09980  Biso   1.000  F
  C146     1.0000 0.75510  0.98580  0.18200  Biso   1.000  C
  H146     1.0000 0.72180  0.98510  0.17300  Biso   1.000  H
  C147     1.0000 0.79220  0.48740  0.64680  Biso   1.000  C
  H147     1.0000 0.78300  0.48790  0.61350  Biso   1.000  H
  F74      1.0000 0.77700  0.48790  0.59980  Biso   1.000  F
  C148     1.0000 0.75510  0.48580  0.68200  Biso   1.000  C
  H148     1.0000 0.72180  0.48510  0.67300  Biso   1.000  H
  C149     1.0000 0.29220  0.98740  0.64680  Biso   1.000  C
  H149     1.0000 0.28300  0.98790  0.61350  Biso   1.000  H
  F75      1.0000 0.27700  0.98790  0.59980  Biso   1.000  F
  C150     1.0000 0.25510  0.98580  0.68200  Biso   1.000  C
  H150     1.0000 0.22180  0.98510  0.67300  Biso   1.000  H
  C151     1.0000 0.29220  0.48740  0.14680  Biso   1.000  C
  H151     1.0000 0.28300  0.48790  0.11350  Biso   1.000  H
  F76      1.0000 0.27700  0.48790  0.09980  Biso   1.000  F
  C152     1.0000 0.25510  0.48580  0.18200  Biso   1.000  C
  H152     1.0000 0.22180  0.48510  0.17300  Biso   1.000  H
  C153     1.0000 0.20780  0.98740  0.85320  Biso   1.000  C
  H153     1.0000 0.21700  0.98790  0.88650  Biso   1.000  H
  F77      1.0000 0.22300  0.98790  0.90020  Biso   1.000  F
  C154     1.0000 0.24490  0.98580  0.81800  Biso   1.000  C
  H154     1.0000 0.27820  0.98510  0.82700  Biso   1.000  H
  C155     1.0000 0.20780  0.48740  0.35320  Biso   1.000  C
  H155     1.0000 0.21700  0.48790  0.38650  Biso   1.000  H
  F78      1.0000 0.22300  0.48790  0.40020  Biso   1.000  F
  C156     1.0000 0.24490  0.48580  0.31800  Biso   1.000  C
  H156     1.0000 0.27820  0.48510  0.32700  Biso   1.000  H
  C157     1.0000 0.70780  0.98740  0.35320  Biso   1.000  C
  H157     1.0000 0.71700  0.98790  0.38650  Biso   1.000  H
  F79      1.0000 0.72300  0.98790  0.40020  Biso   1.000  F
  C158     1.0000 0.74490  0.98580  0.31800  Biso   1.000  C
  H158     1.0000 0.77820  0.98510  0.32700  Biso   1.000  H
  C159     1.0000 0.70780  0.48740  0.85320  Biso   1.000  C
  H159     1.0000 0.71700  0.48790  0.88650  Biso   1.000  H
  F80      1.0000 0.72300  0.48790  0.90020  Biso   1.000  F
  C160     1.0000 0.74490  0.48580  0.81800  Biso   1.000  C
  H160     1.0000 0.77820  0.48510  0.82700  Biso   1.000  H
  C161     1.0000 0.01260  0.85320  0.79220  Biso   1.000  C
  H161     1.0000 0.01210  0.88650  0.78300  Biso   1.000  H
  F81      1.0000 0.01210  0.90020  0.77700  Biso   1.000  F
  C162     1.0000 0.01420  0.81800  0.75510  Biso   1.000  C
  H162     1.0000 0.01490  0.82700  0.72180  Biso   1.000  H
  C163     1.0000 0.01260  0.35320  0.29220  Biso   1.000  C
  H163     1.0000 0.01210  0.38650  0.28300  Biso   1.000  H
  F82      1.0000 0.01210  0.40020  0.27700  Biso   1.000  F
  C164     1.0000 0.01420  0.31800  0.25510  Biso   1.000  C
  H164     1.0000 0.01490  0.32700  0.22180  Biso   1.000  H
  C165     1.0000 0.51260  0.85320  0.29220  Biso   1.000  C
  H165     1.0000 0.51210  0.88650  0.28300  Biso   1.000  H
  F83      1.0000 0.51210  0.90020  0.27700  Biso   1.000  F
  C166     1.0000 0.51420  0.81800  0.25510  Biso   1.000  C
  H166     1.0000 0.51490  0.82700  0.22180  Biso   1.000  H
  C167     1.0000 0.51260  0.35320  0.79220  Biso   1.000  C
  H167     1.0000 0.51210  0.38650  0.78300  Biso   1.000  H
  F84      1.0000 0.51210  0.40020  0.77700  Biso   1.000  F
  C168     1.0000 0.51420  0.31800  0.75510  Biso   1.000  C
  H168     1.0000 0.51490  0.32700  0.72180  Biso   1.000  H
  C169     1.0000 0.01260  0.14680  0.20780  Biso   1.000  C
  H169     1.0000 0.01210  0.11350  0.21700  Biso   1.000  H
  F85      1.0000 0.01210  0.09980  0.22300  Biso   1.000  F
  C170     1.0000 0.01420  0.18200  0.24490  Biso   1.000  C
  H170     1.0000 0.01490  0.17300  0.27820  Biso   1.000  H
  C171     1.0000 0.01260  0.64680  0.70780  Biso   1.000  C
  H171     1.0000 0.01210  0.61350  0.71700  Biso   1.000  H
  F86      1.0000 0.01210  0.59980  0.72300  Biso   1.000  F
  C172     1.0000 0.01420  0.68200  0.74490  Biso   1.000  C
  H172     1.0000 0.01490  0.67300  0.77820  Biso   1.000  H
  C173     1.0000 0.51260  0.14680  0.70780  Biso   1.000  C
  H173     1.0000 0.51210  0.11350  0.71700  Biso   1.000  H
  F87      1.0000 0.51210  0.09980  0.72300  Biso   1.000  F
  C174     1.0000 0.51420  0.18200  0.74490  Biso   1.000  C
  H174     1.0000 0.51490  0.17300  0.77820  Biso   1.000  H
  C175     1.0000 0.51260  0.64680  0.20780  Biso   1.000  C
  H175     1.0000 0.51210  0.61350  0.21700  Biso   1.000  H
  F88      1.0000 0.51210  0.59980  0.22300  Biso   1.000  F
  C176     1.0000 0.51420  0.68200  0.24490  Biso   1.000  C
  H176     1.0000 0.51490  0.67300  0.27820  Biso   1.000  H
  C177     1.0000 0.98740  0.85320  0.20780  Biso   1.000  C
  H177     1.0000 0.98790  0.88650  0.21700  Biso   1.000  H
  F89      1.0000 0.98790  0.90020  0.22300  Biso   1.000  F
  C178     1.0000 0.98580  0.81800  0.24490  Biso   1.000  C
  H178     1.0000 0.98510  0.82700  0.27820  Biso   1.000  H
  C179     1.0000 0.98740  0.35320  0.70780  Biso   1.000  C
  H179     1.0000 0.98790  0.38650  0.71700  Biso   1.000  H
  F90      1.0000 0.98790  0.40020  0.72300  Biso   1.000  F
  C180     1.0000 0.98580  0.31800  0.74490  Biso   1.000  C
  H180     1.0000 0.98510  0.32700  0.77820  Biso   1.000  H
  C181     1.0000 0.48740  0.85320  0.70780  Biso   1.000  C
  H181     1.0000 0.48790  0.88650  0.71700  Biso   1.000  H
  F91      1.0000 0.48790  0.90020  0.72300  Biso   1.000  F
  C182     1.0000 0.48580  0.81800  0.74490  Biso   1.000  C
  H182     1.0000 0.48510  0.82700  0.77820  Biso   1.000  H
  C183     1.0000 0.48740  0.35320  0.20780  Biso   1.000  C
  H183     1.0000 0.48790  0.38650  0.21700  Biso   1.000  H
  F92      1.0000 0.48790  0.40020  0.22300  Biso   1.000  F
  C184     1.0000 0.48580  0.31800  0.24490  Biso   1.000  C
  H184     1.0000 0.48510  0.32700  0.27820  Biso   1.000  H
  C185     1.0000 0.98740  0.14680  0.79220  Biso   1.000  C
  H185     1.0000 0.98790  0.11350  0.78300  Biso   1.000  H
  F93      1.0000 0.98790  0.09980  0.77700  Biso   1.000  F
  C186     1.0000 0.98580  0.18200  0.75510  Biso   1.000  C
  H186     1.0000 0.98510  0.17300  0.72180  Biso   1.000  H
  C187     1.0000 0.98740  0.64680  0.29220  Biso   1.000  C
  H187     1.0000 0.98790  0.61350  0.28300  Biso   1.000  H
  F94      1.0000 0.98790  0.59980  0.27700  Biso   1.000  F
  C188     1.0000 0.98580  0.68200  0.25510  Biso   1.000  C
  H188     1.0000 0.98510  0.67300  0.22180  Biso   1.000  H
  C189     1.0000 0.48740  0.14680  0.29220  Biso   1.000  C
  H189     1.0000 0.48790  0.11350  0.28300  Biso   1.000  H
  F95      1.0000 0.48790  0.09980  0.27700  Biso   1.000  F
  C190     1.0000 0.48580  0.18200  0.25510  Biso   1.000  C
  H190     1.0000 0.48510  0.17300  0.22180  Biso   1.000  H
  C191     1.0000 0.48740  0.64680  0.79220  Biso   1.000  C
  H191     1.0000 0.48790  0.61350  0.78300  Biso   1.000  H
  F96      1.0000 0.48790  0.59980  0.77700  Biso   1.000  F
  C192     1.0000 0.48580  0.68200  0.75510  Biso   1.000  C
  H192     1.0000 0.48510  0.67300  0.72180  Biso   1.000  H
  C193     1.0000 0.79220  0.14680  0.98740  Biso   1.000  C
  H193     1.0000 0.78300  0.11350  0.98790  Biso   1.000  H
  F97      1.0000 0.77700  0.09980  0.98790  Biso   1.000  F
  C194     1.0000 0.75510  0.18200  0.98580  Biso   1.000  C
  H194     1.0000 0.72180  0.17300  0.98510  Biso   1.000  H
  C195     1.0000 0.79220  0.64680  0.48740  Biso   1.000  C
  H195     1.0000 0.78300  0.61350  0.48790  Biso   1.000  H
  F98      1.0000 0.77700  0.59980  0.48790  Biso   1.000  F
  C196     1.0000 0.75510  0.68200  0.48580  Biso   1.000  C
  H196     1.0000 0.72180  0.67300  0.48510  Biso   1.000  H
  C197     1.0000 0.29220  0.14680  0.48740  Biso   1.000  C
  H197     1.0000 0.28300  0.11350  0.48790  Biso   1.000  H
  F99      1.0000 0.27700  0.09980  0.48790  Biso   1.000  F
  C198     1.0000 0.25510  0.18200  0.48580  Biso   1.000  C
  H198     1.0000 0.22180  0.17300  0.48510  Biso   1.000  H
  C199     1.0000 0.29220  0.64680  0.98740  Biso   1.000  C
  H199     1.0000 0.28300  0.61350  0.98790  Biso   1.000  H
  F100     1.0000 0.27700  0.59980  0.98790  Biso   1.000  F
  C200     1.0000 0.25510  0.68200  0.98580  Biso   1.000  C
  H200     1.0000 0.22180  0.67300  0.98510  Biso   1.000  H
  C201     1.0000 0.20780  0.85320  0.98740  Biso   1.000  C
  H201     1.0000 0.21700  0.88650  0.98790  Biso   1.000  H
  F101     1.0000 0.22300  0.90020  0.98790  Biso   1.000  F
  C202     1.0000 0.24490  0.81800  0.98580  Biso   1.000  C
  H202     1.0000 0.27820  0.82700  0.98510  Biso   1.000  H
  C203     1.0000 0.20780  0.35320  0.48740  Biso   1.000  C
  H203     1.0000 0.21700  0.38650  0.48790  Biso   1.000  H
  F102     1.0000 0.22300  0.40020  0.48790  Biso   1.000  F
  C204     1.0000 0.24490  0.31800  0.48580  Biso   1.000  C
  H204     1.0000 0.27820  0.32700  0.48510  Biso   1.000  H
  C205     1.0000 0.70780  0.85320  0.48740  Biso   1.000  C
  H205     1.0000 0.71700  0.88650  0.48790  Biso   1.000  H
  F103     1.0000 0.72300  0.90020  0.48790  Biso   1.000  F
  C206     1.0000 0.74490  0.81800  0.48580  Biso   1.000  C
  H206     1.0000 0.77820  0.82700  0.48510  Biso   1.000  H
  C207     1.0000 0.70780  0.35320  0.98740  Biso   1.000  C
  H207     1.0000 0.71700  0.38650  0.98790  Biso   1.000  H
  F104     1.0000 0.72300  0.40020  0.98790  Biso   1.000  F
  C208     1.0000 0.74490  0.31800  0.98580  Biso   1.000  C
  H208     1.0000 0.77820  0.32700  0.98510  Biso   1.000  H
  C209     1.0000 0.20780  0.14680  0.01260  Biso   1.000  C
  H209     1.0000 0.21700  0.11350  0.01210  Biso   1.000  H
  F105     1.0000 0.22300  0.09980  0.01210  Biso   1.000  F
  C210     1.0000 0.24490  0.18200  0.01420  Biso   1.000  C
  H210     1.0000 0.27820  0.17300  0.01490  Biso   1.000  H
  C211     1.0000 0.20780  0.64680  0.51260  Biso   1.000  C
  H211     1.0000 0.21700  0.61350  0.51210  Biso   1.000  H
  F106     1.0000 0.22300  0.59980  0.51210  Biso   1.000  F
  C212     1.0000 0.24490  0.68200  0.51420  Biso   1.000  C
  H212     1.0000 0.27820  0.67300  0.51490  Biso   1.000  H
  C213     1.0000 0.70780  0.14680  0.51260  Biso   1.000  C
  H213     1.0000 0.71700  0.11350  0.51210  Biso   1.000  H
  F107     1.0000 0.72300  0.09980  0.51210  Biso   1.000  F
  C214     1.0000 0.74490  0.18200  0.51420  Biso   1.000  C
  H214     1.0000 0.77820  0.17300  0.51490  Biso   1.000  H
  C215     1.0000 0.70780  0.64680  0.01260  Biso   1.000  C
  H215     1.0000 0.71700  0.61350  0.01210  Biso   1.000  H
  F108     1.0000 0.72300  0.59980  0.01210  Biso   1.000  F
  C216     1.0000 0.74490  0.68200  0.01420  Biso   1.000  C
  H216     1.0000 0.77820  0.67300  0.01490  Biso   1.000  H
  C217     1.0000 0.79220  0.85320  0.01260  Biso   1.000  C
  H217     1.0000 0.78300  0.88650  0.01210  Biso   1.000  H
  F109     1.0000 0.77700  0.90020  0.01210  Biso   1.000  F
  C218     1.0000 0.75510  0.81800  0.01420  Biso   1.000  C
  H218     1.0000 0.72180  0.82700  0.01490  Biso   1.000  H
  C219     1.0000 0.79220  0.35320  0.51260  Biso   1.000  C
  H219     1.0000 0.78300  0.38650  0.51210  Biso   1.000  H
  F110     1.0000 0.77700  0.40020  0.51210  Biso   1.000  F
  C220     1.0000 0.75510  0.31800  0.51420  Biso   1.000  C
  H220     1.0000 0.72180  0.32700  0.51490  Biso   1.000  H
  C221     1.0000 0.29220  0.85320  0.51260  Biso   1.000  C
  H221     1.0000 0.28300  0.88650  0.51210  Biso   1.000  H
  F111     1.0000 0.27700  0.90020  0.51210  Biso   1.000  F
  C222     1.0000 0.25510  0.81800  0.51420  Biso   1.000  C
  H222     1.0000 0.22180  0.82700  0.51490  Biso   1.000  H
  C223     1.0000 0.29220  0.35320  0.01260  Biso   1.000  C
  H223     1.0000 0.28300  0.38650  0.01210  Biso   1.000  H
  F112     1.0000 0.27700  0.40020  0.01210  Biso   1.000  F
  C224     1.0000 0.25510  0.31800  0.01420  Biso   1.000  C
  H224     1.0000 0.22180  0.32700  0.01490  Biso   1.000  H
  C225     1.0000 0.98740  0.79220  0.14680  Biso   1.000  C
  H225     1.0000 0.98790  0.78300  0.11350  Biso   1.000  H
  F113     1.0000 0.98790  0.77700  0.09980  Biso   1.000  F
  C226     1.0000 0.98580  0.75510  0.18200  Biso   1.000  C
  H226     1.0000 0.98510  0.72180  0.17300  Biso   1.000  H
  C227     1.0000 0.98740  0.29220  0.64680  Biso   1.000  C
  H227     1.0000 0.98790  0.28300  0.61350  Biso   1.000  H
  F114     1.0000 0.98790  0.27700  0.59980  Biso   1.000  F
  C228     1.0000 0.98580  0.25510  0.68200  Biso   1.000  C
  H228     1.0000 0.98510  0.22180  0.67300  Biso   1.000  H
  C229     1.0000 0.48740  0.79220  0.64680  Biso   1.000  C
  H229     1.0000 0.48790  0.78300  0.61350  Biso   1.000  H
  F115     1.0000 0.48790  0.77700  0.59980  Biso   1.000  F
  C230     1.0000 0.48580  0.75510  0.68200  Biso   1.000  C
  H230     1.0000 0.48510  0.72180  0.67300  Biso   1.000  H
  C231     1.0000 0.48740  0.29220  0.14680  Biso   1.000  C
  H231     1.0000 0.48790  0.28300  0.11350  Biso   1.000  H
  F116     1.0000 0.48790  0.27700  0.09980  Biso   1.000  F
  C232     1.0000 0.48580  0.25510  0.18200  Biso   1.000  C
  H232     1.0000 0.48510  0.22180  0.17300  Biso   1.000  H
  C233     1.0000 0.98740  0.20780  0.85320  Biso   1.000  C
  H233     1.0000 0.98790  0.21700  0.88650  Biso   1.000  H
  F117     1.0000 0.98790  0.22300  0.90020  Biso   1.000  F
  C234     1.0000 0.98580  0.24490  0.81800  Biso   1.000  C
  H234     1.0000 0.98510  0.27820  0.82700  Biso   1.000  H
  C235     1.0000 0.98740  0.70780  0.35320  Biso   1.000  C
  H235     1.0000 0.98790  0.71700  0.38650  Biso   1.000  H
  F118     1.0000 0.98790  0.72300  0.40020  Biso   1.000  F
  C236     1.0000 0.98580  0.74490  0.31800  Biso   1.000  C
  H236     1.0000 0.98510  0.77820  0.32700  Biso   1.000  H
  C237     1.0000 0.48740  0.20780  0.35320  Biso   1.000  C
  H237     1.0000 0.48790  0.21700  0.38650  Biso   1.000  H
  F119     1.0000 0.48790  0.22300  0.40020  Biso   1.000  F
  C238     1.0000 0.48580  0.24490  0.31800  Biso   1.000  C
  H238     1.0000 0.48510  0.27820  0.32700  Biso   1.000  H
  C239     1.0000 0.48740  0.70780  0.85320  Biso   1.000  C
  H239     1.0000 0.48790  0.71700  0.88650  Biso   1.000  H
  F120     1.0000 0.48790  0.72300  0.90020  Biso   1.000  F
  C240     1.0000 0.48580  0.74490  0.81800  Biso   1.000  C
  H240     1.0000 0.48510  0.77820  0.82700  Biso   1.000  H
  C241     1.0000 0.01260  0.20780  0.14680  Biso   1.000  C
  H241     1.0000 0.01210  0.21700  0.11350  Biso   1.000  H
  F121     1.0000 0.01210  0.22300  0.09980  Biso   1.000  F
  C242     1.0000 0.01420  0.24490  0.18200  Biso   1.000  C
  H242     1.0000 0.01490  0.27820  0.17300  Biso   1.000  H
  C243     1.0000 0.01260  0.70780  0.64680  Biso   1.000  C
  H243     1.0000 0.01210  0.71700  0.61350  Biso   1.000  H
  F122     1.0000 0.01210  0.72300  0.59980  Biso   1.000  F
  C244     1.0000 0.01420  0.74490  0.68200  Biso   1.000  C
  H244     1.0000 0.01490  0.77820  0.67300  Biso   1.000  H
  C245     1.0000 0.51260  0.20780  0.64680  Biso   1.000  C
  H245     1.0000 0.51210  0.21700  0.61350  Biso   1.000  H
  F123     1.0000 0.51210  0.22300  0.59980  Biso   1.000  F
  C246     1.0000 0.51420  0.24490  0.68200  Biso   1.000  C
  H246     1.0000 0.51490  0.27820  0.67300  Biso   1.000  H
  C247     1.0000 0.51260  0.70780  0.14680  Biso   1.000  C
  H247     1.0000 0.51210  0.71700  0.11350  Biso   1.000  H
  F124     1.0000 0.51210  0.72300  0.09980  Biso   1.000  F
  C248     1.0000 0.51420  0.74490  0.18200  Biso   1.000  C
  H248     1.0000 0.51490  0.77820  0.17300  Biso   1.000  H
  C249     1.0000 0.01260  0.79220  0.85320  Biso   1.000  C
  H249     1.0000 0.01210  0.78300  0.88650  Biso   1.000  H
  F125     1.0000 0.01210  0.77700  0.90020  Biso   1.000  F
  C250     1.0000 0.01420  0.75510  0.81800  Biso   1.000  C
  H250     1.0000 0.01490  0.72180  0.82700  Biso   1.000  H
  C251     1.0000 0.01260  0.29220  0.35320  Biso   1.000  C
  H251     1.0000 0.01210  0.28300  0.38650  Biso   1.000  H
  F126     1.0000 0.01210  0.27700  0.40020  Biso   1.000  F
  C252     1.0000 0.01420  0.25510  0.31800  Biso   1.000  C
  H252     1.0000 0.01490  0.22180  0.32700  Biso   1.000  H
  C253     1.0000 0.51260  0.79220  0.35320  Biso   1.000  C
  H253     1.0000 0.51210  0.78300  0.38650  Biso   1.000  H
  F127     1.0000 0.51210  0.77700  0.40020  Biso   1.000  F
  C254     1.0000 0.51420  0.75510  0.31800  Biso   1.000  C
  H254     1.0000 0.51490  0.72180  0.32700  Biso   1.000  H
  C255     1.0000 0.51260  0.29220  0.85320  Biso   1.000  C
  H255     1.0000 0.51210  0.28300  0.88650  Biso   1.000  H
  F128     1.0000 0.51210  0.27700  0.90020  Biso   1.000  F
  C256     1.0000 0.51420  0.25510  0.81800  Biso   1.000  C
  H256     1.0000 0.51490  0.22180  0.82700  Biso   1.000  H
  C257     1.0000 0.14680  0.98740  0.79220  Biso   1.000  C
  H257     1.0000 0.11350  0.98790  0.78300  Biso   1.000  H
  F129     1.0000 0.09980  0.98790  0.77700  Biso   1.000  F
  C258     1.0000 0.18200  0.98580  0.75510  Biso   1.000  C
  H258     1.0000 0.17300  0.98510  0.72180  Biso   1.000  H
  C259     1.0000 0.14680  0.48740  0.29220  Biso   1.000  C
  H259     1.0000 0.11350  0.48790  0.28300  Biso   1.000  H
  F130     1.0000 0.09980  0.48790  0.27700  Biso   1.000  F
  C260     1.0000 0.18200  0.48580  0.25510  Biso   1.000  C
  H260     1.0000 0.17300  0.48510  0.22180  Biso   1.000  H
  C261     1.0000 0.64680  0.98740  0.29220  Biso   1.000  C
  H261     1.0000 0.61350  0.98790  0.28300  Biso   1.000  H
  F131     1.0000 0.59980  0.98790  0.27700  Biso   1.000  F
  C262     1.0000 0.68200  0.98580  0.25510  Biso   1.000  C
  H262     1.0000 0.67300  0.98510  0.22180  Biso   1.000  H
  C263     1.0000 0.64680  0.48740  0.79220  Biso   1.000  C
  H263     1.0000 0.61350  0.48790  0.78300  Biso   1.000  H
  F132     1.0000 0.59980  0.48790  0.77700  Biso   1.000  F
  C264     1.0000 0.68200  0.48580  0.75510  Biso   1.000  C
  H264     1.0000 0.67300  0.48510  0.72180  Biso   1.000  H
  C265     1.0000 0.85320  0.98740  0.20780  Biso   1.000  C
  H265     1.0000 0.88650  0.98790  0.21700  Biso   1.000  H
  F133     1.0000 0.90020  0.98790  0.22300  Biso   1.000  F
  C266     1.0000 0.81800  0.98580  0.24490  Biso   1.000  C
  H266     1.0000 0.82700  0.98510  0.27820  Biso   1.000  H
  C267     1.0000 0.85320  0.48740  0.70780  Biso   1.000  C
  H267     1.0000 0.88650  0.48790  0.71700  Biso   1.000  H
  F134     1.0000 0.90020  0.48790  0.72300  Biso   1.000  F
  C268     1.0000 0.81800  0.48580  0.74490  Biso   1.000  C
  H268     1.0000 0.82700  0.48510  0.77820  Biso   1.000  H
  C269     1.0000 0.35320  0.98740  0.70780  Biso   1.000  C
  H269     1.0000 0.38650  0.98790  0.71700  Biso   1.000  H
  F135     1.0000 0.40020  0.98790  0.72300  Biso   1.000  F
  C270     1.0000 0.31800  0.98580  0.74490  Biso   1.000  C
  H270     1.0000 0.32700  0.98510  0.77820  Biso   1.000  H
  C271     1.0000 0.35320  0.48740  0.20780  Biso   1.000  C
  H271     1.0000 0.38650  0.48790  0.21700  Biso   1.000  H
  F136     1.0000 0.40020  0.48790  0.22300  Biso   1.000  F
  C272     1.0000 0.31800  0.48580  0.24490  Biso   1.000  C
  H272     1.0000 0.32700  0.48510  0.27820  Biso   1.000  H
  C273     1.0000 0.14680  0.01260  0.20780  Biso   1.000  C
  H273     1.0000 0.11350  0.01210  0.21700  Biso   1.000  H
  F137     1.0000 0.09980  0.01210  0.22300  Biso   1.000  F
  C274     1.0000 0.18200  0.01420  0.24490  Biso   1.000  C
  H274     1.0000 0.17300  0.01490  0.27820  Biso   1.000  H
  C275     1.0000 0.14680  0.51260  0.70780  Biso   1.000  C
  H275     1.0000 0.11350  0.51210  0.71700  Biso   1.000  H
  F138     1.0000 0.09980  0.51210  0.72300  Biso   1.000  F
  C276     1.0000 0.18200  0.51420  0.74490  Biso   1.000  C
  H276     1.0000 0.17300  0.51490  0.77820  Biso   1.000  H
  C277     1.0000 0.64680  0.01260  0.70780  Biso   1.000  C
  H277     1.0000 0.61350  0.01210  0.71700  Biso   1.000  H
  F139     1.0000 0.59980  0.01210  0.72300  Biso   1.000  F
  C278     1.0000 0.68200  0.01420  0.74490  Biso   1.000  C
  H278     1.0000 0.67300  0.01490  0.77820  Biso   1.000  H
  C279     1.0000 0.64680  0.51260  0.20780  Biso   1.000  C
  H279     1.0000 0.61350  0.51210  0.21700  Biso   1.000  H
  F140     1.0000 0.59980  0.51210  0.22300  Biso   1.000  F
  C280     1.0000 0.68200  0.51420  0.24490  Biso   1.000  C
  H280     1.0000 0.67300  0.51490  0.27820  Biso   1.000  H
  C281     1.0000 0.85320  0.01260  0.79220  Biso   1.000  C
  H281     1.0000 0.88650  0.01210  0.78300  Biso   1.000  H
  F141     1.0000 0.90020  0.01210  0.77700  Biso   1.000  F
  C282     1.0000 0.81800  0.01420  0.75510  Biso   1.000  C
  H282     1.0000 0.82700  0.01490  0.72180  Biso   1.000  H
  C283     1.0000 0.85320  0.51260  0.29220  Biso   1.000  C
  H283     1.0000 0.88650  0.51210  0.28300  Biso   1.000  H
  F142     1.0000 0.90020  0.51210  0.27700  Biso   1.000  F
  C284     1.0000 0.81800  0.51420  0.25510  Biso   1.000  C
  H284     1.0000 0.82700  0.51490  0.22180  Biso   1.000  H
  C285     1.0000 0.35320  0.01260  0.29220  Biso   1.000  C
  H285     1.0000 0.38650  0.01210  0.28300  Biso   1.000  H
  F143     1.0000 0.40020  0.01210  0.27700  Biso   1.000  F
  C286     1.0000 0.31800  0.01420  0.25510  Biso   1.000  C
  H286     1.0000 0.32700  0.01490  0.22180  Biso   1.000  H
  C287     1.0000 0.35320  0.51260  0.79220  Biso   1.000  C
  H287     1.0000 0.38650  0.51210  0.78300  Biso   1.000  H
  F144     1.0000 0.40020  0.51210  0.77700  Biso   1.000  F
  C288     1.0000 0.31800  0.51420  0.75510  Biso   1.000  C
  H288     1.0000 0.32700  0.51490  0.72180  Biso   1.000  H
  C289     1.0000 0.14680  0.79220  0.01260  Biso   1.000  C
  H289     1.0000 0.11350  0.78300  0.01210  Biso   1.000  H
  F145     1.0000 0.09980  0.77700  0.01210  Biso   1.000  F
  C290     1.0000 0.18200  0.75510  0.01420  Biso   1.000  C
  H290     1.0000 0.17300  0.72180  0.01490  Biso   1.000  H
  C291     1.0000 0.14680  0.29220  0.51260  Biso   1.000  C
  H291     1.0000 0.11350  0.28300  0.51210  Biso   1.000  H
  F146     1.0000 0.09980  0.27700  0.51210  Biso   1.000  F
  C292     1.0000 0.18200  0.25510  0.51420  Biso   1.000  C
  H292     1.0000 0.17300  0.22180  0.51490  Biso   1.000  H
  C293     1.0000 0.64680  0.79220  0.51260  Biso   1.000  C
  H293     1.0000 0.61350  0.78300  0.51210  Biso   1.000  H
  F147     1.0000 0.59980  0.77700  0.51210  Biso   1.000  F
  C294     1.0000 0.68200  0.75510  0.51420  Biso   1.000  C
  H294     1.0000 0.67300  0.72180  0.51490  Biso   1.000  H
  C295     1.0000 0.64680  0.29220  0.01260  Biso   1.000  C
  H295     1.0000 0.61350  0.28300  0.01210  Biso   1.000  H
  F148     1.0000 0.59980  0.27700  0.01210  Biso   1.000  F
  C296     1.0000 0.68200  0.25510  0.01420  Biso   1.000  C
  H296     1.0000 0.67300  0.22180  0.01490  Biso   1.000  H
  C297     1.0000 0.85320  0.20780  0.01260  Biso   1.000  C
  H297     1.0000 0.88650  0.21700  0.01210  Biso   1.000  H
  F149     1.0000 0.90020  0.22300  0.01210  Biso   1.000  F
  C298     1.0000 0.81800  0.24490  0.01420  Biso   1.000  C
  H298     1.0000 0.82700  0.27820  0.01490  Biso   1.000  H
  C299     1.0000 0.85320  0.70780  0.51260  Biso   1.000  C
  H299     1.0000 0.88650  0.71700  0.51210  Biso   1.000  H
  F150     1.0000 0.90020  0.72300  0.51210  Biso   1.000  F
  C300     1.0000 0.81800  0.74490  0.51420  Biso   1.000  C
  H300     1.0000 0.82700  0.77820  0.51490  Biso   1.000  H
  C301     1.0000 0.35320  0.20780  0.51260  Biso   1.000  C
  H301     1.0000 0.38650  0.21700  0.51210  Biso   1.000  H
  F151     1.0000 0.40020  0.22300  0.51210  Biso   1.000  F
  C302     1.0000 0.31800  0.24490  0.51420  Biso   1.000  C
  H302     1.0000 0.32700  0.27820  0.51490  Biso   1.000  H
  C303     1.0000 0.35320  0.70780  0.01260  Biso   1.000  C
  H303     1.0000 0.38650  0.71700  0.01210  Biso   1.000  H
  F152     1.0000 0.40020  0.72300  0.01210  Biso   1.000  F
  C304     1.0000 0.31800  0.74490  0.01420  Biso   1.000  C
  H304     1.0000 0.32700  0.77820  0.01490  Biso   1.000  H
  C305     1.0000 0.14680  0.20780  0.98740  Biso   1.000  C
  H305     1.0000 0.11350  0.21700  0.98790  Biso   1.000  H
  F153     1.0000 0.09980  0.22300  0.98790  Biso   1.000  F
  C306     1.0000 0.18200  0.24490  0.98580  Biso   1.000  C
  H306     1.0000 0.17300  0.27820  0.98510  Biso   1.000  H
  C307     1.0000 0.14680  0.70780  0.48740  Biso   1.000  C
  H307     1.0000 0.11350  0.71700  0.48790  Biso   1.000  H
  F154     1.0000 0.09980  0.72300  0.48790  Biso   1.000  F
  C308     1.0000 0.18200  0.74490  0.48580  Biso   1.000  C
  H308     1.0000 0.17300  0.77820  0.48510  Biso   1.000  H
  C309     1.0000 0.64680  0.20780  0.48740  Biso   1.000  C
  H309     1.0000 0.61350  0.21700  0.48790  Biso   1.000  H
  F155     1.0000 0.59980  0.22300  0.48790  Biso   1.000  F
  C310     1.0000 0.68200  0.24490  0.48580  Biso   1.000  C
  H310     1.0000 0.67300  0.27820  0.48510  Biso   1.000  H
  C311     1.0000 0.64680  0.70780  0.98740  Biso   1.000  C
  H311     1.0000 0.61350  0.71700  0.98790  Biso   1.000  H
  F156     1.0000 0.59980  0.72300  0.98790  Biso   1.000  F
  C312     1.0000 0.68200  0.74490  0.98580  Biso   1.000  C
  H312     1.0000 0.67300  0.77820  0.98510  Biso   1.000  H
  C313     1.0000 0.85320  0.79220  0.98740  Biso   1.000  C
  H313     1.0000 0.88650  0.78300  0.98790  Biso   1.000  H
  F157     1.0000 0.90020  0.77700  0.98790  Biso   1.000  F
  C314     1.0000 0.81800  0.75510  0.98580  Biso   1.000  C
  H314     1.0000 0.82700  0.72180  0.98510  Biso   1.000  H
  C315     1.0000 0.85320  0.29220  0.48740  Biso   1.000  C
  H315     1.0000 0.88650  0.28300  0.48790  Biso   1.000  H
  F158     1.0000 0.90020  0.27700  0.48790  Biso   1.000  F
  C316     1.0000 0.81800  0.25510  0.48580  Biso   1.000  C
  H316     1.0000 0.82700  0.22180  0.48510  Biso   1.000  H
  C317     1.0000 0.35320  0.79220  0.48740  Biso   1.000  C
  H317     1.0000 0.38650  0.78300  0.48790  Biso   1.000  H
  F159     1.0000 0.40020  0.77700  0.48790  Biso   1.000  F
  C318     1.0000 0.31800  0.75510  0.48580  Biso   1.000  C
  H318     1.0000 0.32700  0.72180  0.48510  Biso   1.000  H
  C319     1.0000 0.35320  0.29220  0.98740  Biso   1.000  C
  H319     1.0000 0.38650  0.28300  0.98790  Biso   1.000  H
  F160     1.0000 0.40020  0.27700  0.98790  Biso   1.000  F
  C320     1.0000 0.31800  0.25510  0.98580  Biso   1.000  C
  H320     1.0000 0.32700  0.22180  0.98510  Biso   1.000  H
  C321     1.0000 0.79220  0.98740  0.85320  Biso   1.000  C
  H321     1.0000 0.78300  0.98790  0.88650  Biso   1.000  H
  F161     1.0000 0.77700  0.98790  0.90020  Biso   1.000  F
  C322     1.0000 0.75510  0.98580  0.81800  Biso   1.000  C
  H322     1.0000 0.72180  0.98510  0.82700  Biso   1.000  H
  C323     1.0000 0.79220  0.48740  0.35320  Biso   1.000  C
  H323     1.0000 0.78300  0.48790  0.38650  Biso   1.000  H
  F162     1.0000 0.77700  0.48790  0.40020  Biso   1.000  F
  C324     1.0000 0.75510  0.48580  0.31800  Biso   1.000  C
  H324     1.0000 0.72180  0.48510  0.32700  Biso   1.000  H
  C325     1.0000 0.29220  0.98740  0.35320  Biso   1.000  C
  H325     1.0000 0.28300  0.98790  0.38650  Biso   1.000  H
  F163     1.0000 0.27700  0.98790  0.40020  Biso   1.000  F
  C326     1.0000 0.25510  0.98580  0.31800  Biso   1.000  C
  H326     1.0000 0.22180  0.98510  0.32700  Biso   1.000  H
  C327     1.0000 0.29220  0.48740  0.85320  Biso   1.000  C
  H327     1.0000 0.28300  0.48790  0.88650  Biso   1.000  H
  F164     1.0000 0.27700  0.48790  0.90020  Biso   1.000  F
  C328     1.0000 0.25510  0.48580  0.81800  Biso   1.000  C
  H328     1.0000 0.22180  0.48510  0.82700  Biso   1.000  H
  C329     1.0000 0.20780  0.98740  0.14680  Biso   1.000  C
  H329     1.0000 0.21700  0.98790  0.11350  Biso   1.000  H
  F165     1.0000 0.22300  0.98790  0.09980  Biso   1.000  F
  C330     1.0000 0.24490  0.98580  0.18200  Biso   1.000  C
  H330     1.0000 0.27820  0.98510  0.17300  Biso   1.000  H
  C331     1.0000 0.20780  0.48740  0.64680  Biso   1.000  C
  H331     1.0000 0.21700  0.48790  0.61350  Biso   1.000  H
  F166     1.0000 0.22300  0.48790  0.59980  Biso   1.000  F
  C332     1.0000 0.24490  0.48580  0.68200  Biso   1.000  C
  H332     1.0000 0.27820  0.48510  0.67300  Biso   1.000  H
  C333     1.0000 0.70780  0.98740  0.64680  Biso   1.000  C
  H333     1.0000 0.71700  0.98790  0.61350  Biso   1.000  H
  F167     1.0000 0.72300  0.98790  0.59980  Biso   1.000  F
  C334     1.0000 0.74490  0.98580  0.68200  Biso   1.000  C
  H334     1.0000 0.77820  0.98510  0.67300  Biso   1.000  H
  C335     1.0000 0.70780  0.48740  0.14680  Biso   1.000  C
  H335     1.0000 0.71700  0.48790  0.11350  Biso   1.000  H
  F168     1.0000 0.72300  0.48790  0.09980  Biso   1.000  F
  C336     1.0000 0.74490  0.48580  0.18200  Biso   1.000  C
  H336     1.0000 0.77820  0.48510  0.17300  Biso   1.000  H
  C337     1.0000 0.20780  0.01260  0.85320  Biso   1.000  C
  H337     1.0000 0.21700  0.01210  0.88650  Biso   1.000  H
  F169     1.0000 0.22300  0.01210  0.90020  Biso   1.000  F
  C338     1.0000 0.24490  0.01420  0.81800  Biso   1.000  C
  H338     1.0000 0.27820  0.01490  0.82700  Biso   1.000  H
  C339     1.0000 0.20780  0.51260  0.35320  Biso   1.000  C
  H339     1.0000 0.21700  0.51210  0.38650  Biso   1.000  H
  F170     1.0000 0.22300  0.51210  0.40020  Biso   1.000  F
  C340     1.0000 0.24490  0.51420  0.31800  Biso   1.000  C
  H340     1.0000 0.27820  0.51490  0.32700  Biso   1.000  H
  C341     1.0000 0.70780  0.01260  0.35320  Biso   1.000  C
  H341     1.0000 0.71700  0.01210  0.38650  Biso   1.000  H
  F171     1.0000 0.72300  0.01210  0.40020  Biso   1.000  F
  C342     1.0000 0.74490  0.01420  0.31800  Biso   1.000  C
  H342     1.0000 0.77820  0.01490  0.32700  Biso   1.000  H
  C343     1.0000 0.70780  0.51260  0.85320  Biso   1.000  C
  H343     1.0000 0.71700  0.51210  0.88650  Biso   1.000  H
  F172     1.0000 0.72300  0.51210  0.90020  Biso   1.000  F
  C344     1.0000 0.74490  0.51420  0.81800  Biso   1.000  C
  H344     1.0000 0.77820  0.51490  0.82700  Biso   1.000  H
  C345     1.0000 0.79220  0.01260  0.14680  Biso   1.000  C
  H345     1.0000 0.78300  0.01210  0.11350  Biso   1.000  H
  F173     1.0000 0.77700  0.01210  0.09980  Biso   1.000  F
  C346     1.0000 0.75510  0.01420  0.18200  Biso   1.000  C
  H346     1.0000 0.72180  0.01490  0.17300  Biso   1.000  H
  C347     1.0000 0.79220  0.51260  0.64680  Biso   1.000  C
  H347     1.0000 0.78300  0.51210  0.61350  Biso   1.000  H
  F174     1.0000 0.77700  0.51210  0.59980  Biso   1.000  F
  C348     1.0000 0.75510  0.51420  0.68200  Biso   1.000  C
  H348     1.0000 0.72180  0.51490  0.67300  Biso   1.000  H
  C349     1.0000 0.29220  0.01260  0.64680  Biso   1.000  C
  H349     1.0000 0.28300  0.01210  0.61350  Biso   1.000  H
  F175     1.0000 0.27700  0.01210  0.59980  Biso   1.000  F
  C350     1.0000 0.25510  0.01420  0.68200  Biso   1.000  C
  H350     1.0000 0.22180  0.01490  0.67300  Biso   1.000  H
  C351     1.0000 0.29220  0.51260  0.14680  Biso   1.000  C
  H351     1.0000 0.28300  0.51210  0.11350  Biso   1.000  H
  F176     1.0000 0.27700  0.51210  0.09980  Biso   1.000  F
  C352     1.0000 0.25510  0.51420  0.18200  Biso   1.000  C
  H352     1.0000 0.22180  0.51490  0.17300  Biso   1.000  H
  C353     1.0000 0.98740  0.14680  0.20780  Biso   1.000  C
  H353     1.0000 0.98790  0.11350  0.21700  Biso   1.000  H
  F177     1.0000 0.98790  0.09980  0.22300  Biso   1.000  F
  C354     1.0000 0.98580  0.18200  0.24490  Biso   1.000  C
  H354     1.0000 0.98510  0.17300  0.27820  Biso   1.000  H
  C355     1.0000 0.98740  0.64680  0.70780  Biso   1.000  C
  H355     1.0000 0.98790  0.61350  0.71700  Biso   1.000  H
  F178     1.0000 0.98790  0.59980  0.72300  Biso   1.000  F
  C356     1.0000 0.98580  0.68200  0.74490  Biso   1.000  C
  H356     1.0000 0.98510  0.67300  0.77820  Biso   1.000  H
  C357     1.0000 0.48740  0.14680  0.70780  Biso   1.000  C
  H357     1.0000 0.48790  0.11350  0.71700  Biso   1.000  H
  F179     1.0000 0.48790  0.09980  0.72300  Biso   1.000  F
  C358     1.0000 0.48580  0.18200  0.74490  Biso   1.000  C
  H358     1.0000 0.48510  0.17300  0.77820  Biso   1.000  H
  C359     1.0000 0.48740  0.64680  0.20780  Biso   1.000  C
  H359     1.0000 0.48790  0.61350  0.21700  Biso   1.000  H
  F180     1.0000 0.48790  0.59980  0.22300  Biso   1.000  F
  C360     1.0000 0.48580  0.68200  0.24490  Biso   1.000  C
  H360     1.0000 0.48510  0.67300  0.27820  Biso   1.000  H
  C361     1.0000 0.98740  0.85320  0.79220  Biso   1.000  C
  H361     1.0000 0.98790  0.88650  0.78300  Biso   1.000  H
  F181     1.0000 0.98790  0.90020  0.77700  Biso   1.000  F
  C362     1.0000 0.98580  0.81800  0.75510  Biso   1.000  C
  H362     1.0000 0.98510  0.82700  0.72180  Biso   1.000  H
  C363     1.0000 0.98740  0.35320  0.29220  Biso   1.000  C
  H363     1.0000 0.98790  0.38650  0.28300  Biso   1.000  H
  F182     1.0000 0.98790  0.40020  0.27700  Biso   1.000  F
  C364     1.0000 0.98580  0.31800  0.25510  Biso   1.000  C
  H364     1.0000 0.98510  0.32700  0.22180  Biso   1.000  H
  C365     1.0000 0.48740  0.85320  0.29220  Biso   1.000  C
  H365     1.0000 0.48790  0.88650  0.28300  Biso   1.000  H
  F183     1.0000 0.48790  0.90020  0.27700  Biso   1.000  F
  C366     1.0000 0.48580  0.81800  0.25510  Biso   1.000  C
  H366     1.0000 0.48510  0.82700  0.22180  Biso   1.000  H
  C367     1.0000 0.48740  0.35320  0.79220  Biso   1.000  C
  H367     1.0000 0.48790  0.38650  0.78300  Biso   1.000  H
  F184     1.0000 0.48790  0.40020  0.77700  Biso   1.000  F
  C368     1.0000 0.48580  0.31800  0.75510  Biso   1.000  C
  H368     1.0000 0.48510  0.32700  0.72180  Biso   1.000  H
  C369     1.0000 0.01260  0.14680  0.79220  Biso   1.000  C
  H369     1.0000 0.01210  0.11350  0.78300  Biso   1.000  H
  F185     1.0000 0.01210  0.09980  0.77700  Biso   1.000  F
  C370     1.0000 0.01420  0.18200  0.75510  Biso   1.000  C
  H370     1.0000 0.01490  0.17300  0.72180  Biso   1.000  H
  C371     1.0000 0.01260  0.64680  0.29220  Biso   1.000  C
  H371     1.0000 0.01210  0.61350  0.28300  Biso   1.000  H
  F186     1.0000 0.01210  0.59980  0.27700  Biso   1.000  F
  C372     1.0000 0.01420  0.68200  0.25510  Biso   1.000  C
  H372     1.0000 0.01490  0.67300  0.22180  Biso   1.000  H
  C373     1.0000 0.51260  0.14680  0.29220  Biso   1.000  C
  H373     1.0000 0.51210  0.11350  0.28300  Biso   1.000  H
  F187     1.0000 0.51210  0.09980  0.27700  Biso   1.000  F
  C374     1.0000 0.51420  0.18200  0.25510  Biso   1.000  C
  H374     1.0000 0.51490  0.17300  0.22180  Biso   1.000  H
  C375     1.0000 0.51260  0.64680  0.79220  Biso   1.000  C
  H375     1.0000 0.51210  0.61350  0.78300  Biso   1.000  H
  F188     1.0000 0.51210  0.59980  0.77700  Biso   1.000  F
  C376     1.0000 0.51420  0.68200  0.75510  Biso   1.000  C
  H376     1.0000 0.51490  0.67300  0.72180  Biso   1.000  H
  C377     1.0000 0.01260  0.85320  0.20780  Biso   1.000  C
  H377     1.0000 0.01210  0.88650  0.21700  Biso   1.000  H
  F189     1.0000 0.01210  0.90020  0.22300  Biso   1.000  F
  C378     1.0000 0.01420  0.81800  0.24490  Biso   1.000  C
  H378     1.0000 0.01490  0.82700  0.27820  Biso   1.000  H
  C379     1.0000 0.01260  0.35320  0.70780  Biso   1.000  C
  H379     1.0000 0.01210  0.38650  0.71700  Biso   1.000  H
  F190     1.0000 0.01210  0.40020  0.72300  Biso   1.000  F
  C380     1.0000 0.01420  0.31800  0.74490  Biso   1.000  C
  H380     1.0000 0.01490  0.32700  0.77820  Biso   1.000  H
  C381     1.0000 0.51260  0.85320  0.70780  Biso   1.000  C
  H381     1.0000 0.51210  0.88650  0.71700  Biso   1.000  H
  F191     1.0000 0.51210  0.90020  0.72300  Biso   1.000  F
  C382     1.0000 0.51420  0.81800  0.74490  Biso   1.000  C
  H382     1.0000 0.51490  0.82700  0.77820  Biso   1.000  H
  C383     1.0000 0.51260  0.35320  0.20780  Biso   1.000  C
  H383     1.0000 0.51210  0.38650  0.21700  Biso   1.000  H
  F192     1.0000 0.51210  0.40020  0.22300  Biso   1.000  F
  C384     1.0000 0.51420  0.31800  0.24490  Biso   1.000  C
  H384     1.0000 0.51490  0.32700  0.27820  Biso   1.000  H
  Tb1      1.0000 0.10040  0.00000  0.00000  Biso   1.000  Tb
  Tb2      1.0000 0.10040  0.50000  0.50000  Biso   1.000  Tb
  Tb3      1.0000 0.60040  0.00000  0.50000  Biso   1.000  Tb
  Tb4      1.0000 0.60040  0.50000  0.00000  Biso   1.000  Tb
  Tb5      1.0000 0.89960  0.00000  0.00000  Biso   1.000  Tb
  Tb6      1.0000 0.89960  0.50000  0.50000  Biso   1.000  Tb
  Tb7      1.0000 0.39960  0.00000  0.50000  Biso   1.000  Tb
  Tb8      1.0000 0.39960  0.50000  0.00000  Biso   1.000  Tb
  Tb9      1.0000 0.00000  0.10040  0.00000  Biso   1.000  Tb
  Tb10     1.0000 0.00000  0.60040  0.50000  Biso   1.000  Tb
  Tb11     1.0000 0.50000  0.10040  0.50000  Biso   1.000  Tb
  Tb12     1.0000 0.50000  0.60040  0.00000  Biso   1.000  Tb
  Tb13     1.0000 0.00000  0.89960  0.00000  Biso   1.000  Tb
  Tb14     1.0000 0.00000  0.39960  0.50000  Biso   1.000  Tb
  Tb15     1.0000 0.50000  0.89960  0.50000  Biso   1.000  Tb
  Tb16     1.0000 0.50000  0.39960  0.00000  Biso   1.000  Tb
  Tb17     1.0000 0.00000  0.00000  0.10040  Biso   1.000  Tb
  Tb18     1.0000 0.00000  0.50000  0.60040  Biso   1.000  Tb
  Tb19     1.0000 0.50000  0.00000  0.60040  Biso   1.000  Tb
  Tb20     1.0000 0.50000  0.50000  0.10040  Biso   1.000  Tb
  Tb21     1.0000 0.00000  0.00000  0.89960  Biso   1.000  Tb
  Tb22     1.0000 0.00000  0.50000  0.39960  Biso   1.000  Tb
  Tb23     1.0000 0.50000  0.00000  0.39960  Biso   1.000  Tb
  Tb24     1.0000 0.50000  0.50000  0.89960  Biso   1.000  Tb
  C385     1.0000 0.12030  0.87970  0.00000  Biso   1.000  C
  C386     1.0000 0.12030  0.37970  0.50000  Biso   1.000  C
  C387     1.0000 0.62030  0.87970  0.50000  Biso   1.000  C
  C388     1.0000 0.62030  0.37970  0.00000  Biso   1.000  C
  C389     1.0000 0.87970  0.12030  0.00000  Biso   1.000  C
  C390     1.0000 0.87970  0.62030  0.50000  Biso   1.000  C
  C391     1.0000 0.37970  0.12030  0.50000  Biso   1.000  C
  C392     1.0000 0.37970  0.62030  0.00000  Biso   1.000  C
  C393     1.0000 0.87970  0.87970  0.00000  Biso   1.000  C
  C394     1.0000 0.87970  0.37970  0.50000  Biso   1.000  C
  C395     1.0000 0.37970  0.87970  0.50000  Biso   1.000  C
  C396     1.0000 0.37970  0.37970  0.00000  Biso   1.000  C
  C397     1.0000 0.12030  0.12030  0.00000  Biso   1.000  C
  C398     1.0000 0.12030  0.62030  0.50000  Biso   1.000  C
  C399     1.0000 0.62030  0.12030  0.50000  Biso   1.000  C
  C400     1.0000 0.62030  0.62030  0.00000  Biso   1.000  C
  C401     1.0000 0.00000  0.12030  0.87970  Biso   1.000  C
  C402     1.0000 0.00000  0.62030  0.37970  Biso   1.000  C
  C403     1.0000 0.50000  0.12030  0.37970  Biso   1.000  C
  C404     1.0000 0.50000  0.62030  0.87970  Biso   1.000  C
  C405     1.0000 0.00000  0.87970  0.12030  Biso   1.000  C
  C406     1.0000 0.00000  0.37970  0.62030  Biso   1.000  C
  C407     1.0000 0.50000  0.87970  0.62030  Biso   1.000  C
  C408     1.0000 0.50000  0.37970  0.12030  Biso   1.000  C
  C409     1.0000 0.00000  0.87970  0.87970  Biso   1.000  C
  C410     1.0000 0.00000  0.37970  0.37970  Biso   1.000  C
  C411     1.0000 0.50000  0.87970  0.37970  Biso   1.000  C
  C412     1.0000 0.50000  0.37970  0.87970  Biso   1.000  C
  C413     1.0000 0.00000  0.12030  0.12030  Biso   1.000  C
  C414     1.0000 0.00000  0.62030  0.62030  Biso   1.000  C
  C415     1.0000 0.50000  0.12030  0.62030  Biso   1.000  C
  C416     1.0000 0.50000  0.62030  0.12030  Biso   1.000  C
  C417     1.0000 0.87970  0.00000  0.12030  Biso   1.000  C
  C418     1.0000 0.87970  0.50000  0.62030  Biso   1.000  C
  C419     1.0000 0.37970  0.00000  0.62030  Biso   1.000  C
  C420     1.0000 0.37970  0.50000  0.12030  Biso   1.000  C
  C421     1.0000 0.12030  0.00000  0.87970  Biso   1.000  C
  C422     1.0000 0.12030  0.50000  0.37970  Biso   1.000  C
  C423     1.0000 0.62030  0.00000  0.37970  Biso   1.000  C
  C424     1.0000 0.62030  0.50000  0.87970  Biso   1.000  C
  C425     1.0000 0.87970  0.00000  0.87970  Biso   1.000  C
  C426     1.0000 0.87970  0.50000  0.37970  Biso   1.000  C
  C427     1.0000 0.37970  0.00000  0.37970  Biso   1.000  C
  C428     1.0000 0.37970  0.50000  0.87970  Biso   1.000  C
  C429     1.0000 0.12030  0.00000  0.12030  Biso   1.000  C
  C430     1.0000 0.12030  0.50000  0.62030  Biso   1.000  C
  C431     1.0000 0.62030  0.00000  0.62030  Biso   1.000  C
  C432     1.0000 0.62030  0.50000  0.12030  Biso   1.000  C
  C433     1.0000 0.15815  0.84185  0.01160  Biso   1.000  C
  C434     1.0000 0.23075  0.76925  0.01470  Biso   1.000  C
  C435     1.0000 0.15815  0.34185  0.51160  Biso   1.000  C
  C436     1.0000 0.23075  0.26925  0.51470  Biso   1.000  C
  C437     1.0000 0.65815  0.84185  0.51160  Biso   1.000  C
  C438     1.0000 0.73075  0.76925  0.51470  Biso   1.000  C
  C439     1.0000 0.65815  0.34185  0.01160  Biso   1.000  C
  C440     1.0000 0.73075  0.26925  0.01470  Biso   1.000  C
  C441     1.0000 0.84185  0.15815  0.01160  Biso   1.000  C
  C442     1.0000 0.76925  0.23075  0.01470  Biso   1.000  C
  C443     1.0000 0.84185  0.65815  0.51160  Biso   1.000  C
  C444     1.0000 0.76925  0.73075  0.51470  Biso   1.000  C
  C445     1.0000 0.34185  0.15815  0.51160  Biso   1.000  C
  C446     1.0000 0.26925  0.23075  0.51470  Biso   1.000  C
  C447     1.0000 0.34185  0.65815  0.01160  Biso   1.000  C
  C448     1.0000 0.26925  0.73075  0.01470  Biso   1.000  C
  C449     1.0000 0.84185  0.84185  0.98840  Biso   1.000  C
  C450     1.0000 0.76925  0.76925  0.98530  Biso   1.000  C
  C451     1.0000 0.84185  0.34185  0.48840  Biso   1.000  C
  C452     1.0000 0.76925  0.26925  0.48530  Biso   1.000  C
  C453     1.0000 0.34185  0.84185  0.48840  Biso   1.000  C
  C454     1.0000 0.26925  0.76925  0.48530  Biso   1.000  C
  C455     1.0000 0.34185  0.34185  0.98840  Biso   1.000  C
  C456     1.0000 0.26925  0.26925  0.98530  Biso   1.000  C
  C457     1.0000 0.15815  0.15815  0.98840  Biso   1.000  C
  C458     1.0000 0.23075  0.23075  0.98530  Biso   1.000  C
  C459     1.0000 0.15815  0.65815  0.48840  Biso   1.000  C
  C460     1.0000 0.23075  0.73075  0.48530  Biso   1.000  C
  C461     1.0000 0.65815  0.15815  0.48840  Biso   1.000  C
  C462     1.0000 0.73075  0.23075  0.48530  Biso   1.000  C
  C463     1.0000 0.65815  0.65815  0.98840  Biso   1.000  C
  C464     1.0000 0.73075  0.73075  0.98530  Biso   1.000  C
  C465     1.0000 0.01160  0.15815  0.84185  Biso   1.000  C
  C466     1.0000 0.01470  0.23075  0.76925  Biso   1.000  C
  C467     1.0000 0.01160  0.65815  0.34185  Biso   1.000  C
  C468     1.0000 0.01470  0.73075  0.26925  Biso   1.000  C
  C469     1.0000 0.51160  0.15815  0.34185  Biso   1.000  C
  C470     1.0000 0.51470  0.23075  0.26925  Biso   1.000  C
  C471     1.0000 0.51160  0.65815  0.84185  Biso   1.000  C
  C472     1.0000 0.51470  0.73075  0.76925  Biso   1.000  C
  C473     1.0000 0.01160  0.84185  0.15815  Biso   1.000  C
  C474     1.0000 0.01470  0.76925  0.23075  Biso   1.000  C
  C475     1.0000 0.01160  0.34185  0.65815  Biso   1.000  C
  C476     1.0000 0.01470  0.26925  0.73075  Biso   1.000  C
  C477     1.0000 0.51160  0.84185  0.65815  Biso   1.000  C
  C478     1.0000 0.51470  0.76925  0.73075  Biso   1.000  C
  C479     1.0000 0.51160  0.34185  0.15815  Biso   1.000  C
  C480     1.0000 0.51470  0.26925  0.23075  Biso   1.000  C
  C481     1.0000 0.98840  0.84185  0.84185  Biso   1.000  C
  C482     1.0000 0.98530  0.76925  0.76925  Biso   1.000  C
  C483     1.0000 0.98840  0.34185  0.34185  Biso   1.000  C
  C484     1.0000 0.98530  0.26925  0.26925  Biso   1.000  C
  C485     1.0000 0.48840  0.84185  0.34185  Biso   1.000  C
  C486     1.0000 0.48530  0.76925  0.26925  Biso   1.000  C
  C487     1.0000 0.48840  0.34185  0.84185  Biso   1.000  C
  C488     1.0000 0.48530  0.26925  0.76925  Biso   1.000  C
  C489     1.0000 0.98840  0.15815  0.15815  Biso   1.000  C
  C490     1.0000 0.98530  0.23075  0.23075  Biso   1.000  C
  C491     1.0000 0.98840  0.65815  0.65815  Biso   1.000  C
  C492     1.0000 0.98530  0.73075  0.73075  Biso   1.000  C
  C493     1.0000 0.48840  0.15815  0.65815  Biso   1.000  C
  C494     1.0000 0.48530  0.23075  0.73075  Biso   1.000  C
  C495     1.0000 0.48840  0.65815  0.15815  Biso   1.000  C
  C496     1.0000 0.48530  0.73075  0.23075  Biso   1.000  C
  C497     1.0000 0.84185  0.01160  0.15815  Biso   1.000  C
  C498     1.0000 0.76925  0.01470  0.23075  Biso   1.000  C
  C499     1.0000 0.84185  0.51160  0.65815  Biso   1.000  C
  C500     1.0000 0.76925  0.51470  0.73075  Biso   1.000  C
  C501     1.0000 0.34185  0.01160  0.65815  Biso   1.000  C
  C502     1.0000 0.26925  0.01470  0.73075  Biso   1.000  C
  C503     1.0000 0.34185  0.51160  0.15815  Biso   1.000  C
  C504     1.0000 0.26925  0.51470  0.23075  Biso   1.000  C
  C505     1.0000 0.15815  0.01160  0.84185  Biso   1.000  C
  C506     1.0000 0.23075  0.01470  0.76925  Biso   1.000  C
  C507     1.0000 0.15815  0.51160  0.34185  Biso   1.000  C
  C508     1.0000 0.23075  0.51470  0.26925  Biso   1.000  C
  C509     1.0000 0.65815  0.01160  0.34185  Biso   1.000  C
  C510     1.0000 0.73075  0.01470  0.26925  Biso   1.000  C
  C511     1.0000 0.65815  0.51160  0.84185  Biso   1.000  C
  C512     1.0000 0.73075  0.51470  0.76925  Biso   1.000  C
  C513     1.0000 0.84185  0.98840  0.84185  Biso   1.000  C
  C514     1.0000 0.76925  0.98530  0.76925  Biso   1.000  C
  C515     1.0000 0.84185  0.48840  0.34185  Biso   1.000  C
  C516     1.0000 0.76925  0.48530  0.26925  Biso   1.000  C
  C517     1.0000 0.34185  0.98840  0.34185  Biso   1.000  C
  C518     1.0000 0.26925  0.98530  0.26925  Biso   1.000  C
  C519     1.0000 0.34185  0.48840  0.84185  Biso   1.000  C
  C520     1.0000 0.26925  0.48530  0.76925  Biso   1.000  C
  C521     1.0000 0.15815  0.98840  0.15815  Biso   1.000  C
  C522     1.0000 0.23075  0.98530  0.23075  Biso   1.000  C
  C523     1.0000 0.15815  0.48840  0.65815  Biso   1.000  C
  C524     1.0000 0.23075  0.48530  0.73075  Biso   1.000  C
  C525     1.0000 0.65815  0.98840  0.65815  Biso   1.000  C
  C526     1.0000 0.73075  0.98530  0.73075  Biso   1.000  C
  C527     1.0000 0.65815  0.48840  0.15815  Biso   1.000  C
  C528     1.0000 0.73075  0.48530  0.23075  Biso   1.000  C
  C529     1.0000 0.84185  0.15815  0.98840  Biso   1.000  C
  C530     1.0000 0.76925  0.23075  0.98530  Biso   1.000  C
  C531     1.0000 0.84185  0.65815  0.48840  Biso   1.000  C
  C532     1.0000 0.76925  0.73075  0.48530  Biso   1.000  C
  C533     1.0000 0.34185  0.15815  0.48840  Biso   1.000  C
  C534     1.0000 0.26925  0.23075  0.48530  Biso   1.000  C
  C535     1.0000 0.34185  0.65815  0.98840  Biso   1.000  C
  C536     1.0000 0.26925  0.73075  0.98530  Biso   1.000  C
  C537     1.0000 0.15815  0.84185  0.98840  Biso   1.000  C
  C538     1.0000 0.23075  0.76925  0.98530  Biso   1.000  C
  C539     1.0000 0.15815  0.34185  0.48840  Biso   1.000  C
  C540     1.0000 0.23075  0.26925  0.48530  Biso   1.000  C
  C541     1.0000 0.65815  0.84185  0.48840  Biso   1.000  C
  C542     1.0000 0.73075  0.76925  0.48530  Biso   1.000  C
  C543     1.0000 0.65815  0.34185  0.98840  Biso   1.000  C
  C544     1.0000 0.73075  0.26925  0.98530  Biso   1.000  C
  C545     1.0000 0.84185  0.84185  0.01160  Biso   1.000  C
  C546     1.0000 0.76925  0.76925  0.01470  Biso   1.000  C
  C547     1.0000 0.84185  0.34185  0.51160  Biso   1.000  C
  C548     1.0000 0.76925  0.26925  0.51470  Biso   1.000  C
  C549     1.0000 0.34185  0.84185  0.51160  Biso   1.000  C
  C550     1.0000 0.26925  0.76925  0.51470  Biso   1.000  C
  C551     1.0000 0.34185  0.34185  0.01160  Biso   1.000  C
  C552     1.0000 0.26925  0.26925  0.01470  Biso   1.000  C
  C553     1.0000 0.15815  0.15815  0.01160  Biso   1.000  C
  C554     1.0000 0.23075  0.23075  0.01470  Biso   1.000  C
  C555     1.0000 0.15815  0.65815  0.51160  Biso   1.000  C
  C556     1.0000 0.23075  0.73075  0.51470  Biso   1.000  C
  C557     1.0000 0.65815  0.15815  0.51160  Biso   1.000  C
  C558     1.0000 0.73075  0.23075  0.51470  Biso   1.000  C
  C559     1.0000 0.65815  0.65815  0.01160  Biso   1.000  C
  C560     1.0000 0.73075  0.73075  0.01470  Biso   1.000  C
  C561     1.0000 0.15815  0.01160  0.15815  Biso   1.000  C
  C562     1.0000 0.23075  0.01470  0.23075  Biso   1.000  C
  C563     1.0000 0.15815  0.51160  0.65815  Biso   1.000  C
  C564     1.0000 0.23075  0.51470  0.73075  Biso   1.000  C
  C565     1.0000 0.65815  0.01160  0.65815  Biso   1.000  C
  C566     1.0000 0.73075  0.01470  0.73075  Biso   1.000  C
  C567     1.0000 0.65815  0.51160  0.15815  Biso   1.000  C
  C568     1.0000 0.73075  0.51470  0.23075  Biso   1.000  C
  C569     1.0000 0.84185  0.01160  0.84185  Biso   1.000  C
  C570     1.0000 0.76925  0.01470  0.76925  Biso   1.000  C
  C571     1.0000 0.84185  0.51160  0.34185  Biso   1.000  C
  C572     1.0000 0.76925  0.51470  0.26925  Biso   1.000  C
  C573     1.0000 0.34185  0.01160  0.34185  Biso   1.000  C
  C574     1.0000 0.26925  0.01470  0.26925  Biso   1.000  C
  C575     1.0000 0.34185  0.51160  0.84185  Biso   1.000  C
  C576     1.0000 0.26925  0.51470  0.76925  Biso   1.000  C
  C577     1.0000 0.84185  0.98840  0.15815  Biso   1.000  C
  C578     1.0000 0.76925  0.98530  0.23075  Biso   1.000  C
  C579     1.0000 0.84185  0.48840  0.65815  Biso   1.000  C
  C580     1.0000 0.76925  0.48530  0.73075  Biso   1.000  C
  C581     1.0000 0.34185  0.98840  0.65815  Biso   1.000  C
  C582     1.0000 0.26925  0.98530  0.73075  Biso   1.000  C
  C583     1.0000 0.34185  0.48840  0.15815  Biso   1.000  C
  C584     1.0000 0.26925  0.48530  0.23075  Biso   1.000  C
  C585     1.0000 0.15815  0.98840  0.84185  Biso   1.000  C
  C586     1.0000 0.23075  0.98530  0.76925  Biso   1.000  C
  C587     1.0000 0.15815  0.48840  0.34185  Biso   1.000  C
  C588     1.0000 0.23075  0.48530  0.26925  Biso   1.000  C
  C589     1.0000 0.65815  0.98840  0.34185  Biso   1.000  C
  C590     1.0000 0.73075  0.98530  0.26925  Biso   1.000  C
  C591     1.0000 0.65815  0.48840  0.84185  Biso   1.000  C
  C592     1.0000 0.73075  0.48530  0.76925  Biso   1.000  C
  C593     1.0000 0.01160  0.84185  0.84185  Biso   1.000  C
  C594     1.0000 0.01470  0.76925  0.76925  Biso   1.000  C
  C595     1.0000 0.01160  0.34185  0.34185  Biso   1.000  C
  C596     1.0000 0.01470  0.26925  0.26925  Biso   1.000  C
  C597     1.0000 0.51160  0.84185  0.34185  Biso   1.000  C
  C598     1.0000 0.51470  0.76925  0.26925  Biso   1.000  C
  C599     1.0000 0.51160  0.34185  0.84185  Biso   1.000  C
  C600     1.0000 0.51470  0.26925  0.76925  Biso   1.000  C
  C601     1.0000 0.01160  0.15815  0.15815  Biso   1.000  C
  C602     1.0000 0.01470  0.23075  0.23075  Biso   1.000  C
  C603     1.0000 0.01160  0.65815  0.65815  Biso   1.000  C
  C604     1.0000 0.01470  0.73075  0.73075  Biso   1.000  C
  C605     1.0000 0.51160  0.15815  0.65815  Biso   1.000  C
  C606     1.0000 0.51470  0.23075  0.73075  Biso   1.000  C
  C607     1.0000 0.51160  0.65815  0.15815  Biso   1.000  C
  C608     1.0000 0.51470  0.73075  0.23075  Biso   1.000  C
  C609     1.0000 0.98840  0.84185  0.15815  Biso   1.000  C
  C610     1.0000 0.98530  0.76925  0.23075  Biso   1.000  C
  C611     1.0000 0.98840  0.34185  0.65815  Biso   1.000  C
  C612     1.0000 0.98530  0.26925  0.73075  Biso   1.000  C
  C613     1.0000 0.48840  0.84185  0.65815  Biso   1.000  C
  C614     1.0000 0.48530  0.76925  0.73075  Biso   1.000  C
  C615     1.0000 0.48840  0.34185  0.15815  Biso   1.000  C
  C616     1.0000 0.48530  0.26925  0.23075  Biso   1.000  C
  C617     1.0000 0.98840  0.15815  0.84185  Biso   1.000  C
  C618     1.0000 0.98530  0.23075  0.76925  Biso   1.000  C
  C619     1.0000 0.98840  0.65815  0.34185  Biso   1.000  C
  C620     1.0000 0.98530  0.73075  0.26925  Biso   1.000  C
  C621     1.0000 0.48840  0.15815  0.34185  Biso   1.000  C
  C622     1.0000 0.48530  0.23075  0.26925  Biso   1.000  C
  C623     1.0000 0.48840  0.65815  0.84185  Biso   1.000  C
  C624     1.0000 0.48530  0.73075  0.76925  Biso   1.000  C
  O1       1.0000 0.04628  0.04628  0.04628  Biso   1.000  O
  O2       1.0000 0.04628  0.54628  0.54628  Biso   1.000  O
  O3       1.0000 0.54628  0.04628  0.54628  Biso   1.000  O
  O4       1.0000 0.54628  0.54628  0.04628  Biso   1.000  O
  O5       1.0000 0.95372  0.95372  0.04628  Biso   1.000  O
  O6       1.0000 0.95372  0.45372  0.54628  Biso   1.000  O
  O7       1.0000 0.45372  0.95372  0.54628  Biso   1.000  O
  O8       1.0000 0.45372  0.45372  0.04628  Biso   1.000  O
  O9       1.0000 0.95372  0.04628  0.95372  Biso   1.000  O
  O10      1.0000 0.95372  0.54628  0.45372  Biso   1.000  O
  O11      1.0000 0.45372  0.04628  0.45372  Biso   1.000  O
  O12      1.0000 0.45372  0.54628  0.95372  Biso   1.000  O
  O13      1.0000 0.04628  0.95372  0.95372  Biso   1.000  O
  O14      1.0000 0.04628  0.45372  0.45372  Biso   1.000  O
  O15      1.0000 0.54628  0.95372  0.45372  Biso   1.000  O
  O16      1.0000 0.54628  0.45372  0.95372  Biso   1.000  O
  O17      1.0000 0.04628  0.04628  0.95372  Biso   1.000  O
  O18      1.0000 0.04628  0.54628  0.45372  Biso   1.000  O
  O19      1.0000 0.54628  0.04628  0.45372  Biso   1.000  O
  O20      1.0000 0.54628  0.54628  0.95372  Biso   1.000  O
  O21      1.0000 0.95372  0.95372  0.95372  Biso   1.000  O
  O22      1.0000 0.95372  0.45372  0.45372  Biso   1.000  O
  O23      1.0000 0.45372  0.95372  0.45372  Biso   1.000  O
  O24      1.0000 0.45372  0.45372  0.95372  Biso   1.000  O
  O25      1.0000 0.04628  0.95372  0.04628  Biso   1.000  O
  O26      1.0000 0.04628  0.45372  0.54628  Biso   1.000  O
  O27      1.0000 0.54628  0.95372  0.54628  Biso   1.000  O
  O28      1.0000 0.54628  0.45372  0.04628  Biso   1.000  O
  O29      1.0000 0.95372  0.04628  0.04628  Biso   1.000  O
  O30      1.0000 0.95372  0.54628  0.54628  Biso   1.000  O
  O31      1.0000 0.45372  0.04628  0.54628  Biso   1.000  O
  O32      1.0000 0.45372  0.54628  0.04628  Biso   1.000  O
  O33      1.0000 0.13637  0.92325  0.00000  Biso   1.000  O
  O34      1.0000 0.13637  0.42325  0.50000  Biso   1.000  O
  O35      1.0000 0.63637  0.92325  0.50000  Biso   1.000  O
  O36      1.0000 0.63637  0.42325  0.00000  Biso   1.000  O
  O37      1.0000 0.86363  0.07675  0.00000  Biso   1.000  O
  O38      1.0000 0.86363  0.57675  0.50000  Biso   1.000  O
  O39      1.0000 0.36363  0.07675  0.50000  Biso   1.000  O
  O40      1.0000 0.36363  0.57675  0.00000  Biso   1.000  O
  O41      1.0000 0.86363  0.92325  0.00000  Biso   1.000  O
  O42      1.0000 0.86363  0.42325  0.50000  Biso   1.000  O
  O43      1.0000 0.36363  0.92325  0.50000  Biso   1.000  O
  O44      1.0000 0.36363  0.42325  0.00000  Biso   1.000  O
  O45      1.0000 0.13637  0.07675  0.00000  Biso   1.000  O
  O46      1.0000 0.13637  0.57675  0.50000  Biso   1.000  O
  O47      1.0000 0.63637  0.07675  0.50000  Biso   1.000  O
  O48      1.0000 0.63637  0.57675  0.00000  Biso   1.000  O
  O49      1.0000 0.00000  0.13637  0.92325  Biso   1.000  O
  O50      1.0000 0.00000  0.63637  0.42325  Biso   1.000  O
  O51      1.0000 0.50000  0.13637  0.42325  Biso   1.000  O
  O52      1.0000 0.50000  0.63637  0.92325  Biso   1.000  O
  O53      1.0000 0.00000  0.86363  0.07675  Biso   1.000  O
  O54      1.0000 0.00000  0.36363  0.57675  Biso   1.000  O
  O55      1.0000 0.50000  0.86363  0.57675  Biso   1.000  O
  O56      1.0000 0.50000  0.36363  0.07675  Biso   1.000  O
  O57      1.0000 0.00000  0.86363  0.92325  Biso   1.000  O
  O58      1.0000 0.00000  0.36363  0.42325  Biso   1.000  O
  O59      1.0000 0.50000  0.86363  0.42325  Biso   1.000  O
  O60      1.0000 0.50000  0.36363  0.92325  Biso   1.000  O
  O61      1.0000 0.00000  0.13637  0.07675  Biso   1.000  O
  O62      1.0000 0.00000  0.63637  0.57675  Biso   1.000  O
  O63      1.0000 0.50000  0.13637  0.57675  Biso   1.000  O
  O64      1.0000 0.50000  0.63637  0.07675  Biso   1.000  O
  O65      1.0000 0.92325  0.00000  0.13637  Biso   1.000  O
  O66      1.0000 0.92325  0.50000  0.63637  Biso   1.000  O
  O67      1.0000 0.42325  0.00000  0.63637  Biso   1.000  O
  O68      1.0000 0.42325  0.50000  0.13637  Biso   1.000  O
  O69      1.0000 0.07675  0.00000  0.86363  Biso   1.000  O
  O70      1.0000 0.07675  0.50000  0.36363  Biso   1.000  O
  O71      1.0000 0.57675  0.00000  0.36363  Biso   1.000  O
  O72      1.0000 0.57675  0.50000  0.86363  Biso   1.000  O
  O73      1.0000 0.92325  0.00000  0.86363  Biso   1.000  O
  O74      1.0000 0.92325  0.50000  0.36363  Biso   1.000  O
  O75      1.0000 0.42325  0.00000  0.36363  Biso   1.000  O
  O76      1.0000 0.42325  0.50000  0.86363  Biso   1.000  O
  O77      1.0000 0.07675  0.00000  0.13637  Biso   1.000  O
  O78      1.0000 0.07675  0.50000  0.63637  Biso   1.000  O
  O79      1.0000 0.57675  0.00000  0.63637  Biso   1.000  O
  O80      1.0000 0.57675  0.50000  0.13637  Biso   1.000  O
  O81      1.0000 0.92325  0.13637  0.00000  Biso   1.000  O
  O82      1.0000 0.92325  0.63637  0.50000  Biso   1.000  O
  O83      1.0000 0.42325  0.13637  0.50000  Biso   1.000  O
  O84      1.0000 0.42325  0.63637  0.00000  Biso   1.000  O
  O85      1.0000 0.07675  0.86363  0.00000  Biso   1.000  O
  O86      1.0000 0.07675  0.36363  0.50000  Biso   1.000  O
  O87      1.0000 0.57675  0.86363  0.50000  Biso   1.000  O
  O88      1.0000 0.57675  0.36363  0.00000  Biso   1.000  O
  O89      1.0000 0.92325  0.86363  0.00000  Biso   1.000  O
  O90      1.0000 0.92325  0.36363  0.50000  Biso   1.000  O
  O91      1.0000 0.42325  0.86363  0.50000  Biso   1.000  O
  O92      1.0000 0.42325  0.36363  0.00000  Biso   1.000  O
  O93      1.0000 0.07675  0.13637  0.00000  Biso   1.000  O
  O94      1.0000 0.07675  0.63637  0.50000  Biso   1.000  O
  O95      1.0000 0.57675  0.13637  0.50000  Biso   1.000  O
  O96      1.0000 0.57675  0.63637  0.00000  Biso   1.000  O
  O97      1.0000 0.13637  0.00000  0.07675  Biso   1.000  O
  O98      1.0000 0.13637  0.50000  0.57675  Biso   1.000  O
  O99      1.0000 0.63637  0.00000  0.57675  Biso   1.000  O
  O100     1.0000 0.63637  0.50000  0.07675  Biso   1.000  O
  O101     1.0000 0.86363  0.00000  0.92325  Biso   1.000  O
  O102     1.0000 0.86363  0.50000  0.42325  Biso   1.000  O
  O103     1.0000 0.36363  0.00000  0.42325  Biso   1.000  O
  O104     1.0000 0.36363  0.50000  0.92325  Biso   1.000  O
  O105     1.0000 0.86363  0.00000  0.07675  Biso   1.000  O
  O106     1.0000 0.86363  0.50000  0.57675  Biso   1.000  O
  O107     1.0000 0.36363  0.00000  0.57675  Biso   1.000  O
  O108     1.0000 0.36363  0.50000  0.07675  Biso   1.000  O
  O109     1.0000 0.13637  0.00000  0.92325  Biso   1.000  O
  O110     1.0000 0.13637  0.50000  0.42325  Biso   1.000  O
  O111     1.0000 0.63637  0.00000  0.42325  Biso   1.000  O
  O112     1.0000 0.63637  0.50000  0.92325  Biso   1.000  O
  O113     1.0000 0.00000  0.92325  0.86363  Biso   1.000  O
  O114     1.0000 0.00000  0.42325  0.36363  Biso   1.000  O
  O115     1.0000 0.50000  0.92325  0.36363  Biso   1.000  O
  O116     1.0000 0.50000  0.42325  0.86363  Biso   1.000  O
  O117     1.0000 0.00000  0.07675  0.13637  Biso   1.000  O
  O118     1.0000 0.00000  0.57675  0.63637  Biso   1.000  O
  O119     1.0000 0.50000  0.07675  0.63637  Biso   1.000  O
  O120     1.0000 0.50000  0.57675  0.13637  Biso   1.000  O
  O121     1.0000 0.00000  0.92325  0.13637  Biso   1.000  O
  O122     1.0000 0.00000  0.42325  0.63637  Biso   1.000  O
  O123     1.0000 0.50000  0.92325  0.63637  Biso   1.000  O
  O124     1.0000 0.50000  0.42325  0.13637  Biso   1.000  O
  O125     1.0000 0.00000  0.07675  0.86363  Biso   1.000  O
  O126     1.0000 0.00000  0.57675  0.36363  Biso   1.000  O
  O127     1.0000 0.50000  0.07675  0.36363  Biso   1.000  O
  O128     1.0000 0.50000  0.57675  0.86363  Biso   1.000  O
