data_image0
_cell_length_a       36.6089
_cell_length_b       36.6089
_cell_length_c       15.3988
_cell_angle_alpha    90
_cell_angle_beta     90
_cell_angle_gamma    90

_symmetry_space_group_name_H-M    "P 1"
_symmetry_int_tables_number       1

loop_
  _symmetry_equiv_pos_as_xyz
  'x, y, z'

loop_
  _atom_site_label
  _atom_site_occupancy
  _atom_site_fract_x
  _atom_site_fract_y
  _atom_site_fract_z
  _atom_site_thermal_displace_type
  _atom_site_B_iso_or_equiv
  _atom_site_type_symbol
  Mn1      1.0000 0.35204  0.14686  0.24885  Biso   1.000  Mn
  N1       1.0000 0.26164  0.19985  0.15960  Biso   1.000  N
  N2       1.0000 0.45640  0.13590  0.33950  Biso   1.000  N
  N3       1.0000 0.31636  0.04420  0.34250  Biso   1.000  N
  O1       1.0000 0.31188  0.16210  0.16240  Biso   1.000  O
  O2       1.0000 0.33235  0.19500  0.31200  Biso   1.000  O
  O3       1.0000 0.28404  0.23140  0.30550  Biso   1.000  O
  O4       1.0000 0.39453  0.13940  0.33550  Biso   1.000  O
  O5       1.0000 0.39976  0.17190  0.17990  Biso   1.000  O
  O6       1.0000 0.46203  0.17140  0.19140  Biso   1.000  O
  O7       1.0000 0.36296  0.09710  0.18550  Biso   1.000  O
  O8       1.0000 0.31789  0.10720  0.32440  Biso   1.000  O
  O9       1.0000 0.35810  0.03470  0.20170  Biso   1.000  O
  C1       1.0000 0.29130  0.18770  0.19290  Biso   1.000  C
  C2       1.0000 0.30240  0.20520  0.27770  Biso   1.000  C
  C3       1.0000 0.24930  0.18480  0.07700  Biso   1.000  C
  C4       1.0000 0.22570  0.15520  0.07840  Biso   1.000  C
  C5       1.0000 0.21270  0.13850  0.16350  Biso   1.000  C
  H1       1.0000 0.23220  0.14030  0.20700  Biso   1.000  H
  H2       1.0000 0.20650  0.11270  0.15420  Biso   1.000  H
  H3       1.0000 0.19110  0.15170  0.18410  Biso   1.000  H
  C6       1.0000 0.42580  0.14520  0.30430  Biso   1.000  C
  C7       1.0000 0.42890  0.16260  0.21550  Biso   1.000  C
  C8       1.0000 0.45490  0.11470  0.42160  Biso   1.000  C
  C9       1.0000 0.45240  0.07760  0.42120  Biso   1.000  C
  C10      1.0000 0.44990  0.05760  0.33420  Biso   1.000  C
  H4       1.0000 0.42660  0.06330  0.30610  Biso   1.000  H
  H5       1.0000 0.45150  0.03120  0.34410  Biso   1.000  H
  H6       1.0000 0.47010  0.06530  0.29670  Biso   1.000  H
  C11      1.0000 0.35280  0.06750  0.22280  Biso   1.000  C
  C12      1.0000 0.32570  0.07420  0.30390  Biso   1.000  C
  C13      1.0000 0.29600  0.04630  0.42210  Biso   1.000  C
  C14      1.0000 0.25810  0.04770  0.42050  Biso   1.000  C
  C15      1.0000 0.23720  0.04970  0.33360  Biso   1.000  C
  H7       1.0000 0.24260  0.07290  0.30470  Biso   1.000  H
  H8       1.0000 0.21090  0.04800  0.34470  Biso   1.000  H
  H9       1.0000 0.24480  0.02940  0.29620  Biso   1.000  H
  H10      1.0000 0.30130  0.23130  0.94010  Biso   1.000  H
  H11      1.0000 0.31490  0.21640  0.03230  Biso   1.000  H
  H12      1.0000 0.28540  0.24860  0.02760  Biso   1.000  H
  H13      1.0000 0.45370  0.18550  0.56000  Biso   1.000  H
  H14      1.0000 0.43220  0.18530  0.46950  Biso   1.000  H
  H15      1.0000 0.47590  0.18570  0.47050  Biso   1.000  H
  H16      1.0000 0.36640  0.04750  0.56000  Biso   1.000  H
  H17      1.0000 0.36540  0.07040  0.47140  Biso   1.000  H
  H18      1.0000 0.36740  0.02670  0.46860  Biso   1.000  H
  Mn2      1.0000 0.64796  0.85314  0.24885  Biso   1.000  Mn
  N4       1.0000 0.73836  0.80015  0.15960  Biso   1.000  N
  N5       1.0000 0.54360  0.86410  0.33950  Biso   1.000  N
  N6       1.0000 0.68364  0.95580  0.34250  Biso   1.000  N
  O10      1.0000 0.68812  0.83790  0.16240  Biso   1.000  O
  O11      1.0000 0.66765  0.80500  0.31200  Biso   1.000  O
  O12      1.0000 0.71596  0.76860  0.30550  Biso   1.000  O
  O13      1.0000 0.60547  0.86060  0.33550  Biso   1.000  O
  O14      1.0000 0.60024  0.82810  0.17990  Biso   1.000  O
  O15      1.0000 0.53797  0.82860  0.19140  Biso   1.000  O
  O16      1.0000 0.63704  0.90290  0.18550  Biso   1.000  O
  O17      1.0000 0.68211  0.89280  0.32440  Biso   1.000  O
  O18      1.0000 0.64190  0.96530  0.20170  Biso   1.000  O
  C16      1.0000 0.70870  0.81230  0.19290  Biso   1.000  C
  C17      1.0000 0.69760  0.79480  0.27770  Biso   1.000  C
  C18      1.0000 0.75070  0.81520  0.07700  Biso   1.000  C
  C19      1.0000 0.77430  0.84480  0.07840  Biso   1.000  C
  C20      1.0000 0.78730  0.86150  0.16350  Biso   1.000  C
  H19      1.0000 0.76780  0.85970  0.20700  Biso   1.000  H
  H20      1.0000 0.79350  0.88730  0.15420  Biso   1.000  H
  H21      1.0000 0.80890  0.84830  0.18410  Biso   1.000  H
  C21      1.0000 0.57420  0.85480  0.30430  Biso   1.000  C
  C22      1.0000 0.57110  0.83740  0.21550  Biso   1.000  C
  C23      1.0000 0.54510  0.88530  0.42160  Biso   1.000  C
  C24      1.0000 0.54760  0.92240  0.42120  Biso   1.000  C
  C25      1.0000 0.55010  0.94240  0.33420  Biso   1.000  C
  H22      1.0000 0.57340  0.93670  0.30610  Biso   1.000  H
  H23      1.0000 0.54850  0.96880  0.34410  Biso   1.000  H
  H24      1.0000 0.52990  0.93470  0.29670  Biso   1.000  H
  C26      1.0000 0.64720  0.93250  0.22280  Biso   1.000  C
  C27      1.0000 0.67430  0.92580  0.30390  Biso   1.000  C
  C28      1.0000 0.70400  0.95370  0.42210  Biso   1.000  C
  C29      1.0000 0.74190  0.95230  0.42050  Biso   1.000  C
  C30      1.0000 0.76280  0.95030  0.33360  Biso   1.000  C
  H25      1.0000 0.75740  0.92710  0.30470  Biso   1.000  H
  H26      1.0000 0.78910  0.95200  0.34470  Biso   1.000  H
  H27      1.0000 0.75520  0.97060  0.29620  Biso   1.000  H
  H28      1.0000 0.69870  0.76870  0.94010  Biso   1.000  H
  H29      1.0000 0.68510  0.78360  0.03230  Biso   1.000  H
  H30      1.0000 0.71460  0.75140  0.02760  Biso   1.000  H
  H31      1.0000 0.54630  0.81450  0.56000  Biso   1.000  H
  H32      1.0000 0.56780  0.81470  0.46950  Biso   1.000  H
  H33      1.0000 0.52410  0.81430  0.47050  Biso   1.000  H
  H34      1.0000 0.63360  0.95250  0.56000  Biso   1.000  H
  H35      1.0000 0.63460  0.92960  0.47140  Biso   1.000  H
  H36      1.0000 0.63260  0.97330  0.46860  Biso   1.000  H
  Mn3      1.0000 0.85314  0.35204  0.24885  Biso   1.000  Mn
  N7       1.0000 0.80015  0.26164  0.15960  Biso   1.000  N
  N8       1.0000 0.86410  0.45640  0.33950  Biso   1.000  N
  N9       1.0000 0.95580  0.31636  0.34250  Biso   1.000  N
  O19      1.0000 0.83790  0.31188  0.16240  Biso   1.000  O
  O20      1.0000 0.80500  0.33235  0.31200  Biso   1.000  O
  O21      1.0000 0.76860  0.28404  0.30550  Biso   1.000  O
  O22      1.0000 0.86060  0.39453  0.33550  Biso   1.000  O
  O23      1.0000 0.82810  0.39976  0.17990  Biso   1.000  O
  O24      1.0000 0.82860  0.46203  0.19140  Biso   1.000  O
  O25      1.0000 0.90290  0.36296  0.18550  Biso   1.000  O
  O26      1.0000 0.89280  0.31789  0.32440  Biso   1.000  O
  O27      1.0000 0.96530  0.35810  0.20170  Biso   1.000  O
  C31      1.0000 0.81230  0.29130  0.19290  Biso   1.000  C
  C32      1.0000 0.79480  0.30240  0.27770  Biso   1.000  C
  C33      1.0000 0.81520  0.24930  0.07700  Biso   1.000  C
  C34      1.0000 0.84480  0.22570  0.07840  Biso   1.000  C
  C35      1.0000 0.86150  0.21270  0.16350  Biso   1.000  C
  H37      1.0000 0.85970  0.23220  0.20700  Biso   1.000  H
  H38      1.0000 0.88730  0.20650  0.15420  Biso   1.000  H
  H39      1.0000 0.84830  0.19110  0.18410  Biso   1.000  H
  C36      1.0000 0.85480  0.42580  0.30430  Biso   1.000  C
  C37      1.0000 0.83740  0.42890  0.21550  Biso   1.000  C
  C38      1.0000 0.88530  0.45490  0.42160  Biso   1.000  C
  C39      1.0000 0.92240  0.45240  0.42120  Biso   1.000  C
  C40      1.0000 0.94240  0.44990  0.33420  Biso   1.000  C
  H40      1.0000 0.93670  0.42660  0.30610  Biso   1.000  H
  H41      1.0000 0.96880  0.45150  0.34410  Biso   1.000  H
  H42      1.0000 0.93470  0.47010  0.29670  Biso   1.000  H
  C41      1.0000 0.93250  0.35280  0.22280  Biso   1.000  C
  C42      1.0000 0.92580  0.32570  0.30390  Biso   1.000  C
  C43      1.0000 0.95370  0.29600  0.42210  Biso   1.000  C
  C44      1.0000 0.95230  0.25810  0.42050  Biso   1.000  C
  C45      1.0000 0.95030  0.23720  0.33360  Biso   1.000  C
  H43      1.0000 0.92710  0.24260  0.30470  Biso   1.000  H
  H44      1.0000 0.95200  0.21090  0.34470  Biso   1.000  H
  H45      1.0000 0.97060  0.24480  0.29620  Biso   1.000  H
  H46      1.0000 0.76870  0.30130  0.94010  Biso   1.000  H
  H47      1.0000 0.78360  0.31490  0.03230  Biso   1.000  H
  H48      1.0000 0.75140  0.28540  0.02760  Biso   1.000  H
  H49      1.0000 0.81450  0.45370  0.56000  Biso   1.000  H
  H50      1.0000 0.81470  0.43220  0.46950  Biso   1.000  H
  H51      1.0000 0.81430  0.47590  0.47050  Biso   1.000  H
  H52      1.0000 0.95250  0.36640  0.56000  Biso   1.000  H
  H53      1.0000 0.92960  0.36540  0.47140  Biso   1.000  H
  H54      1.0000 0.97330  0.36740  0.46860  Biso   1.000  H
  Mn4      1.0000 0.14686  0.64796  0.24885  Biso   1.000  Mn
  N10      1.0000 0.19985  0.73836  0.15960  Biso   1.000  N
  N11      1.0000 0.13590  0.54360  0.33950  Biso   1.000  N
  N12      1.0000 0.04420  0.68364  0.34250  Biso   1.000  N
  O28      1.0000 0.16210  0.68812  0.16240  Biso   1.000  O
  O29      1.0000 0.19500  0.66765  0.31200  Biso   1.000  O
  O30      1.0000 0.23140  0.71596  0.30550  Biso   1.000  O
  O31      1.0000 0.13940  0.60547  0.33550  Biso   1.000  O
  O32      1.0000 0.17190  0.60024  0.17990  Biso   1.000  O
  O33      1.0000 0.17140  0.53797  0.19140  Biso   1.000  O
  O34      1.0000 0.09710  0.63704  0.18550  Biso   1.000  O
  O35      1.0000 0.10720  0.68211  0.32440  Biso   1.000  O
  O36      1.0000 0.03470  0.64190  0.20170  Biso   1.000  O
  C46      1.0000 0.18770  0.70870  0.19290  Biso   1.000  C
  C47      1.0000 0.20520  0.69760  0.27770  Biso   1.000  C
  C48      1.0000 0.18480  0.75070  0.07700  Biso   1.000  C
  C49      1.0000 0.15520  0.77430  0.07840  Biso   1.000  C
  C50      1.0000 0.13850  0.78730  0.16350  Biso   1.000  C
  H55      1.0000 0.14030  0.76780  0.20700  Biso   1.000  H
  H56      1.0000 0.11270  0.79350  0.15420  Biso   1.000  H
  H57      1.0000 0.15170  0.80890  0.18410  Biso   1.000  H
  C51      1.0000 0.14520  0.57420  0.30430  Biso   1.000  C
  C52      1.0000 0.16260  0.57110  0.21550  Biso   1.000  C
  C53      1.0000 0.11470  0.54510  0.42160  Biso   1.000  C
  C54      1.0000 0.07760  0.54760  0.42120  Biso   1.000  C
  C55      1.0000 0.05760  0.55010  0.33420  Biso   1.000  C
  H58      1.0000 0.06330  0.57340  0.30610  Biso   1.000  H
  H59      1.0000 0.03120  0.54850  0.34410  Biso   1.000  H
  H60      1.0000 0.06530  0.52990  0.29670  Biso   1.000  H
  C56      1.0000 0.06750  0.64720  0.22280  Biso   1.000  C
  C57      1.0000 0.07420  0.67430  0.30390  Biso   1.000  C
  C58      1.0000 0.04630  0.70400  0.42210  Biso   1.000  C
  C59      1.0000 0.04770  0.74190  0.42050  Biso   1.000  C
  C60      1.0000 0.04970  0.76280  0.33360  Biso   1.000  C
  H61      1.0000 0.07290  0.75740  0.30470  Biso   1.000  H
  H62      1.0000 0.04800  0.78910  0.34470  Biso   1.000  H
  H63      1.0000 0.02940  0.75520  0.29620  Biso   1.000  H
  H64      1.0000 0.23130  0.69870  0.94010  Biso   1.000  H
  H65      1.0000 0.21640  0.68510  0.03230  Biso   1.000  H
  H66      1.0000 0.24860  0.71460  0.02760  Biso   1.000  H
  H67      1.0000 0.18550  0.54630  0.56000  Biso   1.000  H
  H68      1.0000 0.18530  0.56780  0.46950  Biso   1.000  H
  H69      1.0000 0.18570  0.52410  0.47050  Biso   1.000  H
  H70      1.0000 0.04750  0.63360  0.56000  Biso   1.000  H
  H71      1.0000 0.07040  0.63460  0.47140  Biso   1.000  H
  H72      1.0000 0.02670  0.63260  0.46860  Biso   1.000  H
  Mn5      1.0000 0.64796  0.14686  0.75115  Biso   1.000  Mn
  N13      1.0000 0.73836  0.19985  0.84040  Biso   1.000  N
  N14      1.0000 0.54360  0.13590  0.66050  Biso   1.000  N
  N15      1.0000 0.68364  0.04420  0.65750  Biso   1.000  N
  O37      1.0000 0.68812  0.16210  0.83760  Biso   1.000  O
  O38      1.0000 0.66765  0.19500  0.68800  Biso   1.000  O
  O39      1.0000 0.71596  0.23140  0.69450  Biso   1.000  O
  O40      1.0000 0.60547  0.13940  0.66450  Biso   1.000  O
  O41      1.0000 0.60024  0.17190  0.82010  Biso   1.000  O
  O42      1.0000 0.53797  0.17140  0.80860  Biso   1.000  O
  O43      1.0000 0.63704  0.09710  0.81450  Biso   1.000  O
  O44      1.0000 0.68211  0.10720  0.67560  Biso   1.000  O
  O45      1.0000 0.64190  0.03470  0.79830  Biso   1.000  O
  C61      1.0000 0.70870  0.18770  0.80710  Biso   1.000  C
  C62      1.0000 0.69760  0.20520  0.72230  Biso   1.000  C
  C63      1.0000 0.75070  0.18480  0.92300  Biso   1.000  C
  C64      1.0000 0.77430  0.15520  0.92160  Biso   1.000  C
  C65      1.0000 0.78730  0.13850  0.83650  Biso   1.000  C
  H73      1.0000 0.76780  0.14030  0.79300  Biso   1.000  H
  H74      1.0000 0.79350  0.11270  0.84580  Biso   1.000  H
  H75      1.0000 0.80890  0.15170  0.81590  Biso   1.000  H
  C66      1.0000 0.57420  0.14520  0.69570  Biso   1.000  C
  C67      1.0000 0.57110  0.16260  0.78450  Biso   1.000  C
  C68      1.0000 0.54510  0.11470  0.57840  Biso   1.000  C
  C69      1.0000 0.54760  0.07760  0.57880  Biso   1.000  C
  C70      1.0000 0.55010  0.05760  0.66580  Biso   1.000  C
  H76      1.0000 0.57340  0.06330  0.69390  Biso   1.000  H
  H77      1.0000 0.54850  0.03120  0.65590  Biso   1.000  H
  H78      1.0000 0.52990  0.06530  0.70330  Biso   1.000  H
  C71      1.0000 0.64720  0.06750  0.77720  Biso   1.000  C
  C72      1.0000 0.67430  0.07420  0.69610  Biso   1.000  C
  C73      1.0000 0.70400  0.04630  0.57790  Biso   1.000  C
  C74      1.0000 0.74190  0.04770  0.57950  Biso   1.000  C
  C75      1.0000 0.76280  0.04970  0.66640  Biso   1.000  C
  H79      1.0000 0.75740  0.07290  0.69530  Biso   1.000  H
  H80      1.0000 0.78910  0.04800  0.65530  Biso   1.000  H
  H81      1.0000 0.75520  0.02940  0.70380  Biso   1.000  H
  H82      1.0000 0.69870  0.23130  0.05990  Biso   1.000  H
  H83      1.0000 0.68510  0.21640  0.96770  Biso   1.000  H
  H84      1.0000 0.71460  0.24860  0.97240  Biso   1.000  H
  H85      1.0000 0.54630  0.18550  0.44000  Biso   1.000  H
  H86      1.0000 0.56780  0.18530  0.53050  Biso   1.000  H
  H87      1.0000 0.52410  0.18570  0.52950  Biso   1.000  H
  H88      1.0000 0.63360  0.04750  0.44000  Biso   1.000  H
  H89      1.0000 0.63460  0.07040  0.52860  Biso   1.000  H
  H90      1.0000 0.63260  0.02670  0.53140  Biso   1.000  H
  Mn6      1.0000 0.35204  0.85314  0.75115  Biso   1.000  Mn
  N16      1.0000 0.26164  0.80015  0.84040  Biso   1.000  N
  N17      1.0000 0.45640  0.86410  0.66050  Biso   1.000  N
  N18      1.0000 0.31636  0.95580  0.65750  Biso   1.000  N
  O46      1.0000 0.31188  0.83790  0.83760  Biso   1.000  O
  O47      1.0000 0.33235  0.80500  0.68800  Biso   1.000  O
  O48      1.0000 0.28404  0.76860  0.69450  Biso   1.000  O
  O49      1.0000 0.39453  0.86060  0.66450  Biso   1.000  O
  O50      1.0000 0.39976  0.82810  0.82010  Biso   1.000  O
  O51      1.0000 0.46203  0.82860  0.80860  Biso   1.000  O
  O52      1.0000 0.36296  0.90290  0.81450  Biso   1.000  O
  O53      1.0000 0.31789  0.89280  0.67560  Biso   1.000  O
  O54      1.0000 0.35810  0.96530  0.79830  Biso   1.000  O
  C76      1.0000 0.29130  0.81230  0.80710  Biso   1.000  C
  C77      1.0000 0.30240  0.79480  0.72230  Biso   1.000  C
  C78      1.0000 0.24930  0.81520  0.92300  Biso   1.000  C
  C79      1.0000 0.22570  0.84480  0.92160  Biso   1.000  C
  C80      1.0000 0.21270  0.86150  0.83650  Biso   1.000  C
  H91      1.0000 0.23220  0.85970  0.79300  Biso   1.000  H
  H92      1.0000 0.20650  0.88730  0.84580  Biso   1.000  H
  H93      1.0000 0.19110  0.84830  0.81590  Biso   1.000  H
  C81      1.0000 0.42580  0.85480  0.69570  Biso   1.000  C
  C82      1.0000 0.42890  0.83740  0.78450  Biso   1.000  C
  C83      1.0000 0.45490  0.88530  0.57840  Biso   1.000  C
  C84      1.0000 0.45240  0.92240  0.57880  Biso   1.000  C
  C85      1.0000 0.44990  0.94240  0.66580  Biso   1.000  C
  H94      1.0000 0.42660  0.93670  0.69390  Biso   1.000  H
  H95      1.0000 0.45150  0.96880  0.65590  Biso   1.000  H
  H96      1.0000 0.47010  0.93470  0.70330  Biso   1.000  H
  C86      1.0000 0.35280  0.93250  0.77720  Biso   1.000  C
  C87      1.0000 0.32570  0.92580  0.69610  Biso   1.000  C
  C88      1.0000 0.29600  0.95370  0.57790  Biso   1.000  C
  C89      1.0000 0.25810  0.95230  0.57950  Biso   1.000  C
  C90      1.0000 0.23720  0.95030  0.66640  Biso   1.000  C
  H97      1.0000 0.24260  0.92710  0.69530  Biso   1.000  H
  H98      1.0000 0.21090  0.95200  0.65530  Biso   1.000  H
  H99      1.0000 0.24480  0.97060  0.70380  Biso   1.000  H
  H100     1.0000 0.30130  0.76870  0.05990  Biso   1.000  H
  H101     1.0000 0.31490  0.78360  0.96770  Biso   1.000  H
  H102     1.0000 0.28540  0.75140  0.97240  Biso   1.000  H
  H103     1.0000 0.45370  0.81450  0.44000  Biso   1.000  H
  H104     1.0000 0.43220  0.81470  0.53050  Biso   1.000  H
  H105     1.0000 0.47590  0.81430  0.52950  Biso   1.000  H
  H106     1.0000 0.36640  0.95250  0.44000  Biso   1.000  H
  H107     1.0000 0.36540  0.92960  0.52860  Biso   1.000  H
  H108     1.0000 0.36740  0.97330  0.53140  Biso   1.000  H
  Mn7      1.0000 0.14686  0.35204  0.75115  Biso   1.000  Mn
  N19      1.0000 0.19985  0.26164  0.84040  Biso   1.000  N
  N20      1.0000 0.13590  0.45640  0.66050  Biso   1.000  N
  N21      1.0000 0.04420  0.31636  0.65750  Biso   1.000  N
  O55      1.0000 0.16210  0.31188  0.83760  Biso   1.000  O
  O56      1.0000 0.19500  0.33235  0.68800  Biso   1.000  O
  O57      1.0000 0.23140  0.28404  0.69450  Biso   1.000  O
  O58      1.0000 0.13940  0.39453  0.66450  Biso   1.000  O
  O59      1.0000 0.17190  0.39976  0.82010  Biso   1.000  O
  O60      1.0000 0.17140  0.46203  0.80860  Biso   1.000  O
  O61      1.0000 0.09710  0.36296  0.81450  Biso   1.000  O
  O62      1.0000 0.10720  0.31789  0.67560  Biso   1.000  O
  O63      1.0000 0.03470  0.35810  0.79830  Biso   1.000  O
  C91      1.0000 0.18770  0.29130  0.80710  Biso   1.000  C
  C92      1.0000 0.20520  0.30240  0.72230  Biso   1.000  C
  C93      1.0000 0.18480  0.24930  0.92300  Biso   1.000  C
  C94      1.0000 0.15520  0.22570  0.92160  Biso   1.000  C
  C95      1.0000 0.13850  0.21270  0.83650  Biso   1.000  C
  H109     1.0000 0.14030  0.23220  0.79300  Biso   1.000  H
  H110     1.0000 0.11270  0.20650  0.84580  Biso   1.000  H
  H111     1.0000 0.15170  0.19110  0.81590  Biso   1.000  H
  C96      1.0000 0.14520  0.42580  0.69570  Biso   1.000  C
  C97      1.0000 0.16260  0.42890  0.78450  Biso   1.000  C
  C98      1.0000 0.11470  0.45490  0.57840  Biso   1.000  C
  C99      1.0000 0.07760  0.45240  0.57880  Biso   1.000  C
  C100     1.0000 0.05760  0.44990  0.66580  Biso   1.000  C
  H112     1.0000 0.06330  0.42660  0.69390  Biso   1.000  H
  H113     1.0000 0.03120  0.45150  0.65590  Biso   1.000  H
  H114     1.0000 0.06530  0.47010  0.70330  Biso   1.000  H
  C101     1.0000 0.06750  0.35280  0.77720  Biso   1.000  C
  C102     1.0000 0.07420  0.32570  0.69610  Biso   1.000  C
  C103     1.0000 0.04630  0.29600  0.57790  Biso   1.000  C
  C104     1.0000 0.04770  0.25810  0.57950  Biso   1.000  C
  C105     1.0000 0.04970  0.23720  0.66640  Biso   1.000  C
  H115     1.0000 0.07290  0.24260  0.69530  Biso   1.000  H
  H116     1.0000 0.04800  0.21090  0.65530  Biso   1.000  H
  H117     1.0000 0.02940  0.24480  0.70380  Biso   1.000  H
  H118     1.0000 0.23130  0.30130  0.05990  Biso   1.000  H
  H119     1.0000 0.21640  0.31490  0.96770  Biso   1.000  H
  H120     1.0000 0.24860  0.28540  0.97240  Biso   1.000  H
  H121     1.0000 0.18550  0.45370  0.44000  Biso   1.000  H
  H122     1.0000 0.18530  0.43220  0.53050  Biso   1.000  H
  H123     1.0000 0.18570  0.47590  0.52950  Biso   1.000  H
  H124     1.0000 0.04750  0.36640  0.44000  Biso   1.000  H
  H125     1.0000 0.07040  0.36540  0.52860  Biso   1.000  H
  H126     1.0000 0.02670  0.36740  0.53140  Biso   1.000  H
  Mn8      1.0000 0.85314  0.64796  0.75115  Biso   1.000  Mn
  N22      1.0000 0.80015  0.73836  0.84040  Biso   1.000  N
  N23      1.0000 0.86410  0.54360  0.66050  Biso   1.000  N
  N24      1.0000 0.95580  0.68364  0.65750  Biso   1.000  N
  O64      1.0000 0.83790  0.68812  0.83760  Biso   1.000  O
  O65      1.0000 0.80500  0.66765  0.68800  Biso   1.000  O
  O66      1.0000 0.76860  0.71596  0.69450  Biso   1.000  O
  O67      1.0000 0.86060  0.60547  0.66450  Biso   1.000  O
  O68      1.0000 0.82810  0.60024  0.82010  Biso   1.000  O
  O69      1.0000 0.82860  0.53797  0.80860  Biso   1.000  O
  O70      1.0000 0.90290  0.63704  0.81450  Biso   1.000  O
  O71      1.0000 0.89280  0.68211  0.67560  Biso   1.000  O
  O72      1.0000 0.96530  0.64190  0.79830  Biso   1.000  O
  C106     1.0000 0.81230  0.70870  0.80710  Biso   1.000  C
  C107     1.0000 0.79480  0.69760  0.72230  Biso   1.000  C
  C108     1.0000 0.81520  0.75070  0.92300  Biso   1.000  C
  C109     1.0000 0.84480  0.77430  0.92160  Biso   1.000  C
  C110     1.0000 0.86150  0.78730  0.83650  Biso   1.000  C
  H127     1.0000 0.85970  0.76780  0.79300  Biso   1.000  H
  H128     1.0000 0.88730  0.79350  0.84580  Biso   1.000  H
  H129     1.0000 0.84830  0.80890  0.81590  Biso   1.000  H
  C111     1.0000 0.85480  0.57420  0.69570  Biso   1.000  C
  C112     1.0000 0.83740  0.57110  0.78450  Biso   1.000  C
  C113     1.0000 0.88530  0.54510  0.57840  Biso   1.000  C
  C114     1.0000 0.92240  0.54760  0.57880  Biso   1.000  C
  C115     1.0000 0.94240  0.55010  0.66580  Biso   1.000  C
  H130     1.0000 0.93670  0.57340  0.69390  Biso   1.000  H
  H131     1.0000 0.96880  0.54850  0.65590  Biso   1.000  H
  H132     1.0000 0.93470  0.52990  0.70330  Biso   1.000  H
  C116     1.0000 0.93250  0.64720  0.77720  Biso   1.000  C
  C117     1.0000 0.92580  0.67430  0.69610  Biso   1.000  C
  C118     1.0000 0.95370  0.70400  0.57790  Biso   1.000  C
  C119     1.0000 0.95230  0.74190  0.57950  Biso   1.000  C
  C120     1.0000 0.95030  0.76280  0.66640  Biso   1.000  C
  H133     1.0000 0.92710  0.75740  0.69530  Biso   1.000  H
  H134     1.0000 0.95200  0.78910  0.65530  Biso   1.000  H
  H135     1.0000 0.97060  0.75520  0.70380  Biso   1.000  H
  H136     1.0000 0.76870  0.69870  0.05990  Biso   1.000  H
  H137     1.0000 0.78360  0.68510  0.96770  Biso   1.000  H
  H138     1.0000 0.75140  0.71460  0.97240  Biso   1.000  H
  H139     1.0000 0.81450  0.54630  0.44000  Biso   1.000  H
  H140     1.0000 0.81470  0.56780  0.53050  Biso   1.000  H
  H141     1.0000 0.81430  0.52410  0.52950  Biso   1.000  H
  H142     1.0000 0.95250  0.63360  0.44000  Biso   1.000  H
  H143     1.0000 0.92960  0.63460  0.52860  Biso   1.000  H
  H144     1.0000 0.97330  0.63260  0.53140  Biso   1.000  H
  Mn9      1.0000 0.64796  0.85314  0.75115  Biso   1.000  Mn
  N25      1.0000 0.73836  0.80015  0.84040  Biso   1.000  N
  N26      1.0000 0.54360  0.86410  0.66050  Biso   1.000  N
  N27      1.0000 0.68364  0.95580  0.65750  Biso   1.000  N
  O73      1.0000 0.68812  0.83790  0.83760  Biso   1.000  O
  O74      1.0000 0.66765  0.80500  0.68800  Biso   1.000  O
  O75      1.0000 0.71596  0.76860  0.69450  Biso   1.000  O
  O76      1.0000 0.60547  0.86060  0.66450  Biso   1.000  O
  O77      1.0000 0.60024  0.82810  0.82010  Biso   1.000  O
  O78      1.0000 0.53797  0.82860  0.80860  Biso   1.000  O
  O79      1.0000 0.63704  0.90290  0.81450  Biso   1.000  O
  O80      1.0000 0.68211  0.89280  0.67560  Biso   1.000  O
  O81      1.0000 0.64190  0.96530  0.79830  Biso   1.000  O
  C121     1.0000 0.70870  0.81230  0.80710  Biso   1.000  C
  C122     1.0000 0.69760  0.79480  0.72230  Biso   1.000  C
  C123     1.0000 0.75070  0.81520  0.92300  Biso   1.000  C
  C124     1.0000 0.77430  0.84480  0.92160  Biso   1.000  C
  C125     1.0000 0.78730  0.86150  0.83650  Biso   1.000  C
  H145     1.0000 0.76780  0.85970  0.79300  Biso   1.000  H
  H146     1.0000 0.79350  0.88730  0.84580  Biso   1.000  H
  H147     1.0000 0.80890  0.84830  0.81590  Biso   1.000  H
  C126     1.0000 0.57420  0.85480  0.69570  Biso   1.000  C
  C127     1.0000 0.57110  0.83740  0.78450  Biso   1.000  C
  C128     1.0000 0.54510  0.88530  0.57840  Biso   1.000  C
  C129     1.0000 0.54760  0.92240  0.57880  Biso   1.000  C
  C130     1.0000 0.55010  0.94240  0.66580  Biso   1.000  C
  H148     1.0000 0.57340  0.93670  0.69390  Biso   1.000  H
  H149     1.0000 0.54850  0.96880  0.65590  Biso   1.000  H
  H150     1.0000 0.52990  0.93470  0.70330  Biso   1.000  H
  C131     1.0000 0.64720  0.93250  0.77720  Biso   1.000  C
  C132     1.0000 0.67430  0.92580  0.69610  Biso   1.000  C
  C133     1.0000 0.70400  0.95370  0.57790  Biso   1.000  C
  C134     1.0000 0.74190  0.95230  0.57950  Biso   1.000  C
  C135     1.0000 0.76280  0.95030  0.66640  Biso   1.000  C
  H151     1.0000 0.75740  0.92710  0.69530  Biso   1.000  H
  H152     1.0000 0.78910  0.95200  0.65530  Biso   1.000  H
  H153     1.0000 0.75520  0.97060  0.70380  Biso   1.000  H
  H154     1.0000 0.69870  0.76870  0.05990  Biso   1.000  H
  H155     1.0000 0.68510  0.78360  0.96770  Biso   1.000  H
  H156     1.0000 0.71460  0.75140  0.97240  Biso   1.000  H
  H157     1.0000 0.54630  0.81450  0.44000  Biso   1.000  H
  H158     1.0000 0.56780  0.81470  0.53050  Biso   1.000  H
  H159     1.0000 0.52410  0.81430  0.52950  Biso   1.000  H
  H160     1.0000 0.63360  0.95250  0.44000  Biso   1.000  H
  H161     1.0000 0.63460  0.92960  0.52860  Biso   1.000  H
  H162     1.0000 0.63260  0.97330  0.53140  Biso   1.000  H
  Mn10     1.0000 0.35204  0.14686  0.75115  Biso   1.000  Mn
  N28      1.0000 0.26164  0.19985  0.84040  Biso   1.000  N
  N29      1.0000 0.45640  0.13590  0.66050  Biso   1.000  N
  N30      1.0000 0.31636  0.04420  0.65750  Biso   1.000  N
  O82      1.0000 0.31188  0.16210  0.83760  Biso   1.000  O
  O83      1.0000 0.33235  0.19500  0.68800  Biso   1.000  O
  O84      1.0000 0.28404  0.23140  0.69450  Biso   1.000  O
  O85      1.0000 0.39453  0.13940  0.66450  Biso   1.000  O
  O86      1.0000 0.39976  0.17190  0.82010  Biso   1.000  O
  O87      1.0000 0.46203  0.17140  0.80860  Biso   1.000  O
  O88      1.0000 0.36296  0.09710  0.81450  Biso   1.000  O
  O89      1.0000 0.31789  0.10720  0.67560  Biso   1.000  O
  O90      1.0000 0.35810  0.03470  0.79830  Biso   1.000  O
  C136     1.0000 0.29130  0.18770  0.80710  Biso   1.000  C
  C137     1.0000 0.30240  0.20520  0.72230  Biso   1.000  C
  C138     1.0000 0.24930  0.18480  0.92300  Biso   1.000  C
  C139     1.0000 0.22570  0.15520  0.92160  Biso   1.000  C
  C140     1.0000 0.21270  0.13850  0.83650  Biso   1.000  C
  H163     1.0000 0.23220  0.14030  0.79300  Biso   1.000  H
  H164     1.0000 0.20650  0.11270  0.84580  Biso   1.000  H
  H165     1.0000 0.19110  0.15170  0.81590  Biso   1.000  H
  C141     1.0000 0.42580  0.14520  0.69570  Biso   1.000  C
  C142     1.0000 0.42890  0.16260  0.78450  Biso   1.000  C
  C143     1.0000 0.45490  0.11470  0.57840  Biso   1.000  C
  C144     1.0000 0.45240  0.07760  0.57880  Biso   1.000  C
  C145     1.0000 0.44990  0.05760  0.66580  Biso   1.000  C
  H166     1.0000 0.42660  0.06330  0.69390  Biso   1.000  H
  H167     1.0000 0.45150  0.03120  0.65590  Biso   1.000  H
  H168     1.0000 0.47010  0.06530  0.70330  Biso   1.000  H
  C146     1.0000 0.35280  0.06750  0.77720  Biso   1.000  C
  C147     1.0000 0.32570  0.07420  0.69610  Biso   1.000  C
  C148     1.0000 0.29600  0.04630  0.57790  Biso   1.000  C
  C149     1.0000 0.25810  0.04770  0.57950  Biso   1.000  C
  C150     1.0000 0.23720  0.04970  0.66640  Biso   1.000  C
  H169     1.0000 0.24260  0.07290  0.69530  Biso   1.000  H
  H170     1.0000 0.21090  0.04800  0.65530  Biso   1.000  H
  H171     1.0000 0.24480  0.02940  0.70380  Biso   1.000  H
  H172     1.0000 0.30130  0.23130  0.05990  Biso   1.000  H
  H173     1.0000 0.31490  0.21640  0.96770  Biso   1.000  H
  H174     1.0000 0.28540  0.24860  0.97240  Biso   1.000  H
  H175     1.0000 0.45370  0.18550  0.44000  Biso   1.000  H
  H176     1.0000 0.43220  0.18530  0.53050  Biso   1.000  H
  H177     1.0000 0.47590  0.18570  0.52950  Biso   1.000  H
  H178     1.0000 0.36640  0.04750  0.44000  Biso   1.000  H
  H179     1.0000 0.36540  0.07040  0.52860  Biso   1.000  H
  H180     1.0000 0.36740  0.02670  0.53140  Biso   1.000  H
  Mn11     1.0000 0.14686  0.64796  0.75115  Biso   1.000  Mn
  N31      1.0000 0.19985  0.73836  0.84040  Biso   1.000  N
  N32      1.0000 0.13590  0.54360  0.66050  Biso   1.000  N
  N33      1.0000 0.04420  0.68364  0.65750  Biso   1.000  N
  O91      1.0000 0.16210  0.68812  0.83760  Biso   1.000  O
  O92      1.0000 0.19500  0.66765  0.68800  Biso   1.000  O
  O93      1.0000 0.23140  0.71596  0.69450  Biso   1.000  O
  O94      1.0000 0.13940  0.60547  0.66450  Biso   1.000  O
  O95      1.0000 0.17190  0.60024  0.82010  Biso   1.000  O
  O96      1.0000 0.17140  0.53797  0.80860  Biso   1.000  O
  O97      1.0000 0.09710  0.63704  0.81450  Biso   1.000  O
  O98      1.0000 0.10720  0.68211  0.67560  Biso   1.000  O
  O99      1.0000 0.03470  0.64190  0.79830  Biso   1.000  O
  C151     1.0000 0.18770  0.70870  0.80710  Biso   1.000  C
  C152     1.0000 0.20520  0.69760  0.72230  Biso   1.000  C
  C153     1.0000 0.18480  0.75070  0.92300  Biso   1.000  C
  C154     1.0000 0.15520  0.77430  0.92160  Biso   1.000  C
  C155     1.0000 0.13850  0.78730  0.83650  Biso   1.000  C
  H181     1.0000 0.14030  0.76780  0.79300  Biso   1.000  H
  H182     1.0000 0.11270  0.79350  0.84580  Biso   1.000  H
  H183     1.0000 0.15170  0.80890  0.81590  Biso   1.000  H
  C156     1.0000 0.14520  0.57420  0.69570  Biso   1.000  C
  C157     1.0000 0.16260  0.57110  0.78450  Biso   1.000  C
  C158     1.0000 0.11470  0.54510  0.57840  Biso   1.000  C
  C159     1.0000 0.07760  0.54760  0.57880  Biso   1.000  C
  C160     1.0000 0.05760  0.55010  0.66580  Biso   1.000  C
  H184     1.0000 0.06330  0.57340  0.69390  Biso   1.000  H
  H185     1.0000 0.03120  0.54850  0.65590  Biso   1.000  H
  H186     1.0000 0.06530  0.52990  0.70330  Biso   1.000  H
  C161     1.0000 0.06750  0.64720  0.77720  Biso   1.000  C
  C162     1.0000 0.07420  0.67430  0.69610  Biso   1.000  C
  C163     1.0000 0.04630  0.70400  0.57790  Biso   1.000  C
  C164     1.0000 0.04770  0.74190  0.57950  Biso   1.000  C
  C165     1.0000 0.04970  0.76280  0.66640  Biso   1.000  C
  H187     1.0000 0.07290  0.75740  0.69530  Biso   1.000  H
  H188     1.0000 0.04800  0.78910  0.65530  Biso   1.000  H
  H189     1.0000 0.02940  0.75520  0.70380  Biso   1.000  H
  H190     1.0000 0.23130  0.69870  0.05990  Biso   1.000  H
  H191     1.0000 0.21640  0.68510  0.96770  Biso   1.000  H
  H192     1.0000 0.24860  0.71460  0.97240  Biso   1.000  H
  H193     1.0000 0.18550  0.54630  0.44000  Biso   1.000  H
  H194     1.0000 0.18530  0.56780  0.53050  Biso   1.000  H
  H195     1.0000 0.18570  0.52410  0.52950  Biso   1.000  H
  H196     1.0000 0.04750  0.63360  0.44000  Biso   1.000  H
  H197     1.0000 0.07040  0.63460  0.52860  Biso   1.000  H
  H198     1.0000 0.02670  0.63260  0.53140  Biso   1.000  H
  Mn12     1.0000 0.85314  0.35204  0.75115  Biso   1.000  Mn
  N34      1.0000 0.80015  0.26164  0.84040  Biso   1.000  N
  N35      1.0000 0.86410  0.45640  0.66050  Biso   1.000  N
  N36      1.0000 0.95580  0.31636  0.65750  Biso   1.000  N
  O100     1.0000 0.83790  0.31188  0.83760  Biso   1.000  O
  O101     1.0000 0.80500  0.33235  0.68800  Biso   1.000  O
  O102     1.0000 0.76860  0.28404  0.69450  Biso   1.000  O
  O103     1.0000 0.86060  0.39453  0.66450  Biso   1.000  O
  O104     1.0000 0.82810  0.39976  0.82010  Biso   1.000  O
  O105     1.0000 0.82860  0.46203  0.80860  Biso   1.000  O
  O106     1.0000 0.90290  0.36296  0.81450  Biso   1.000  O
  O107     1.0000 0.89280  0.31789  0.67560  Biso   1.000  O
  O108     1.0000 0.96530  0.35810  0.79830  Biso   1.000  O
  C166     1.0000 0.81230  0.29130  0.80710  Biso   1.000  C
  C167     1.0000 0.79480  0.30240  0.72230  Biso   1.000  C
  C168     1.0000 0.81520  0.24930  0.92300  Biso   1.000  C
  C169     1.0000 0.84480  0.22570  0.92160  Biso   1.000  C
  C170     1.0000 0.86150  0.21270  0.83650  Biso   1.000  C
  H199     1.0000 0.85970  0.23220  0.79300  Biso   1.000  H
  H200     1.0000 0.88730  0.20650  0.84580  Biso   1.000  H
  H201     1.0000 0.84830  0.19110  0.81590  Biso   1.000  H
  C171     1.0000 0.85480  0.42580  0.69570  Biso   1.000  C
  C172     1.0000 0.83740  0.42890  0.78450  Biso   1.000  C
  C173     1.0000 0.88530  0.45490  0.57840  Biso   1.000  C
  C174     1.0000 0.92240  0.45240  0.57880  Biso   1.000  C
  C175     1.0000 0.94240  0.44990  0.66580  Biso   1.000  C
  H202     1.0000 0.93670  0.42660  0.69390  Biso   1.000  H
  H203     1.0000 0.96880  0.45150  0.65590  Biso   1.000  H
  H204     1.0000 0.93470  0.47010  0.70330  Biso   1.000  H
  C176     1.0000 0.93250  0.35280  0.77720  Biso   1.000  C
  C177     1.0000 0.92580  0.32570  0.69610  Biso   1.000  C
  C178     1.0000 0.95370  0.29600  0.57790  Biso   1.000  C
  C179     1.0000 0.95230  0.25810  0.57950  Biso   1.000  C
  C180     1.0000 0.95030  0.23720  0.66640  Biso   1.000  C
  H205     1.0000 0.92710  0.24260  0.69530  Biso   1.000  H
  H206     1.0000 0.95200  0.21090  0.65530  Biso   1.000  H
  H207     1.0000 0.97060  0.24480  0.70380  Biso   1.000  H
  H208     1.0000 0.76870  0.30130  0.05990  Biso   1.000  H
  H209     1.0000 0.78360  0.31490  0.96770  Biso   1.000  H
  H210     1.0000 0.75140  0.28540  0.97240  Biso   1.000  H
  H211     1.0000 0.81450  0.45370  0.44000  Biso   1.000  H
  H212     1.0000 0.81470  0.43220  0.53050  Biso   1.000  H
  H213     1.0000 0.81430  0.47590  0.52950  Biso   1.000  H
  H214     1.0000 0.95250  0.36640  0.44000  Biso   1.000  H
  H215     1.0000 0.92960  0.36540  0.52860  Biso   1.000  H
  H216     1.0000 0.97330  0.36740  0.53140  Biso   1.000  H
  Mn13     1.0000 0.35204  0.85314  0.24885  Biso   1.000  Mn
  N37      1.0000 0.26164  0.80015  0.15960  Biso   1.000  N
  N38      1.0000 0.45640  0.86410  0.33950  Biso   1.000  N
  N39      1.0000 0.31636  0.95580  0.34250  Biso   1.000  N
  O109     1.0000 0.31188  0.83790  0.16240  Biso   1.000  O
  O110     1.0000 0.33235  0.80500  0.31200  Biso   1.000  O
  O111     1.0000 0.28404  0.76860  0.30550  Biso   1.000  O
  O112     1.0000 0.39453  0.86060  0.33550  Biso   1.000  O
  O113     1.0000 0.39976  0.82810  0.17990  Biso   1.000  O
  O114     1.0000 0.46203  0.82860  0.19140  Biso   1.000  O
  O115     1.0000 0.36296  0.90290  0.18550  Biso   1.000  O
  O116     1.0000 0.31789  0.89280  0.32440  Biso   1.000  O
  O117     1.0000 0.35810  0.96530  0.20170  Biso   1.000  O
  C181     1.0000 0.29130  0.81230  0.19290  Biso   1.000  C
  C182     1.0000 0.30240  0.79480  0.27770  Biso   1.000  C
  C183     1.0000 0.24930  0.81520  0.07700  Biso   1.000  C
  C184     1.0000 0.22570  0.84480  0.07840  Biso   1.000  C
  C185     1.0000 0.21270  0.86150  0.16350  Biso   1.000  C
  H217     1.0000 0.23220  0.85970  0.20700  Biso   1.000  H
  H218     1.0000 0.20650  0.88730  0.15420  Biso   1.000  H
  H219     1.0000 0.19110  0.84830  0.18410  Biso   1.000  H
  C186     1.0000 0.42580  0.85480  0.30430  Biso   1.000  C
  C187     1.0000 0.42890  0.83740  0.21550  Biso   1.000  C
  C188     1.0000 0.45490  0.88530  0.42160  Biso   1.000  C
  C189     1.0000 0.45240  0.92240  0.42120  Biso   1.000  C
  C190     1.0000 0.44990  0.94240  0.33420  Biso   1.000  C
  H220     1.0000 0.42660  0.93670  0.30610  Biso   1.000  H
  H221     1.0000 0.45150  0.96880  0.34410  Biso   1.000  H
  H222     1.0000 0.47010  0.93470  0.29670  Biso   1.000  H
  C191     1.0000 0.35280  0.93250  0.22280  Biso   1.000  C
  C192     1.0000 0.32570  0.92580  0.30390  Biso   1.000  C
  C193     1.0000 0.29600  0.95370  0.42210  Biso   1.000  C
  C194     1.0000 0.25810  0.95230  0.42050  Biso   1.000  C
  C195     1.0000 0.23720  0.95030  0.33360  Biso   1.000  C
  H223     1.0000 0.24260  0.92710  0.30470  Biso   1.000  H
  H224     1.0000 0.21090  0.95200  0.34470  Biso   1.000  H
  H225     1.0000 0.24480  0.97060  0.29620  Biso   1.000  H
  H226     1.0000 0.30130  0.76870  0.94010  Biso   1.000  H
  H227     1.0000 0.31490  0.78360  0.03230  Biso   1.000  H
  H228     1.0000 0.28540  0.75140  0.02760  Biso   1.000  H
  H229     1.0000 0.45370  0.81450  0.56000  Biso   1.000  H
  H230     1.0000 0.43220  0.81470  0.46950  Biso   1.000  H
  H231     1.0000 0.47590  0.81430  0.47050  Biso   1.000  H
  H232     1.0000 0.36640  0.95250  0.56000  Biso   1.000  H
  H233     1.0000 0.36540  0.92960  0.47140  Biso   1.000  H
  H234     1.0000 0.36740  0.97330  0.46860  Biso   1.000  H
  Mn14     1.0000 0.64796  0.14686  0.24885  Biso   1.000  Mn
  N40      1.0000 0.73836  0.19985  0.15960  Biso   1.000  N
  N41      1.0000 0.54360  0.13590  0.33950  Biso   1.000  N
  N42      1.0000 0.68364  0.04420  0.34250  Biso   1.000  N
  O118     1.0000 0.68812  0.16210  0.16240  Biso   1.000  O
  O119     1.0000 0.66765  0.19500  0.31200  Biso   1.000  O
  O120     1.0000 0.71596  0.23140  0.30550  Biso   1.000  O
  O121     1.0000 0.60547  0.13940  0.33550  Biso   1.000  O
  O122     1.0000 0.60024  0.17190  0.17990  Biso   1.000  O
  O123     1.0000 0.53797  0.17140  0.19140  Biso   1.000  O
  O124     1.0000 0.63704  0.09710  0.18550  Biso   1.000  O
  O125     1.0000 0.68211  0.10720  0.32440  Biso   1.000  O
  O126     1.0000 0.64190  0.03470  0.20170  Biso   1.000  O
  C196     1.0000 0.70870  0.18770  0.19290  Biso   1.000  C
  C197     1.0000 0.69760  0.20520  0.27770  Biso   1.000  C
  C198     1.0000 0.75070  0.18480  0.07700  Biso   1.000  C
  C199     1.0000 0.77430  0.15520  0.07840  Biso   1.000  C
  C200     1.0000 0.78730  0.13850  0.16350  Biso   1.000  C
  H235     1.0000 0.76780  0.14030  0.20700  Biso   1.000  H
  H236     1.0000 0.79350  0.11270  0.15420  Biso   1.000  H
  H237     1.0000 0.80890  0.15170  0.18410  Biso   1.000  H
  C201     1.0000 0.57420  0.14520  0.30430  Biso   1.000  C
  C202     1.0000 0.57110  0.16260  0.21550  Biso   1.000  C
  C203     1.0000 0.54510  0.11470  0.42160  Biso   1.000  C
  C204     1.0000 0.54760  0.07760  0.42120  Biso   1.000  C
  C205     1.0000 0.55010  0.05760  0.33420  Biso   1.000  C
  H238     1.0000 0.57340  0.06330  0.30610  Biso   1.000  H
  H239     1.0000 0.54850  0.03120  0.34410  Biso   1.000  H
  H240     1.0000 0.52990  0.06530  0.29670  Biso   1.000  H
  C206     1.0000 0.64720  0.06750  0.22280  Biso   1.000  C
  C207     1.0000 0.67430  0.07420  0.30390  Biso   1.000  C
  C208     1.0000 0.70400  0.04630  0.42210  Biso   1.000  C
  C209     1.0000 0.74190  0.04770  0.42050  Biso   1.000  C
  C210     1.0000 0.76280  0.04970  0.33360  Biso   1.000  C
  H241     1.0000 0.75740  0.07290  0.30470  Biso   1.000  H
  H242     1.0000 0.78910  0.04800  0.34470  Biso   1.000  H
  H243     1.0000 0.75520  0.02940  0.29620  Biso   1.000  H
  H244     1.0000 0.69870  0.23130  0.94010  Biso   1.000  H
  H245     1.0000 0.68510  0.21640  0.03230  Biso   1.000  H
  H246     1.0000 0.71460  0.24860  0.02760  Biso   1.000  H
  H247     1.0000 0.54630  0.18550  0.56000  Biso   1.000  H
  H248     1.0000 0.56780  0.18530  0.46950  Biso   1.000  H
  H249     1.0000 0.52410  0.18570  0.47050  Biso   1.000  H
  H250     1.0000 0.63360  0.04750  0.56000  Biso   1.000  H
  H251     1.0000 0.63460  0.07040  0.47140  Biso   1.000  H
  H252     1.0000 0.63260  0.02670  0.46860  Biso   1.000  H
  Mn15     1.0000 0.85314  0.64796  0.24885  Biso   1.000  Mn
  N43      1.0000 0.80015  0.73836  0.15960  Biso   1.000  N
  N44      1.0000 0.86410  0.54360  0.33950  Biso   1.000  N
  N45      1.0000 0.95580  0.68364  0.34250  Biso   1.000  N
  O127     1.0000 0.83790  0.68812  0.16240  Biso   1.000  O
  O128     1.0000 0.80500  0.66765  0.31200  Biso   1.000  O
  O129     1.0000 0.76860  0.71596  0.30550  Biso   1.000  O
  O130     1.0000 0.86060  0.60547  0.33550  Biso   1.000  O
  O131     1.0000 0.82810  0.60024  0.17990  Biso   1.000  O
  O132     1.0000 0.82860  0.53797  0.19140  Biso   1.000  O
  O133     1.0000 0.90290  0.63704  0.18550  Biso   1.000  O
  O134     1.0000 0.89280  0.68211  0.32440  Biso   1.000  O
  O135     1.0000 0.96530  0.64190  0.20170  Biso   1.000  O
  C211     1.0000 0.81230  0.70870  0.19290  Biso   1.000  C
  C212     1.0000 0.79480  0.69760  0.27770  Biso   1.000  C
  C213     1.0000 0.81520  0.75070  0.07700  Biso   1.000  C
  C214     1.0000 0.84480  0.77430  0.07840  Biso   1.000  C
  C215     1.0000 0.86150  0.78730  0.16350  Biso   1.000  C
  H253     1.0000 0.85970  0.76780  0.20700  Biso   1.000  H
  H254     1.0000 0.88730  0.79350  0.15420  Biso   1.000  H
  H255     1.0000 0.84830  0.80890  0.18410  Biso   1.000  H
  C216     1.0000 0.85480  0.57420  0.30430  Biso   1.000  C
  C217     1.0000 0.83740  0.57110  0.21550  Biso   1.000  C
  C218     1.0000 0.88530  0.54510  0.42160  Biso   1.000  C
  C219     1.0000 0.92240  0.54760  0.42120  Biso   1.000  C
  C220     1.0000 0.94240  0.55010  0.33420  Biso   1.000  C
  H256     1.0000 0.93670  0.57340  0.30610  Biso   1.000  H
  H257     1.0000 0.96880  0.54850  0.34410  Biso   1.000  H
  H258     1.0000 0.93470  0.52990  0.29670  Biso   1.000  H
  C221     1.0000 0.93250  0.64720  0.22280  Biso   1.000  C
  C222     1.0000 0.92580  0.67430  0.30390  Biso   1.000  C
  C223     1.0000 0.95370  0.70400  0.42210  Biso   1.000  C
  C224     1.0000 0.95230  0.74190  0.42050  Biso   1.000  C
  C225     1.0000 0.95030  0.76280  0.33360  Biso   1.000  C
  H259     1.0000 0.92710  0.75740  0.30470  Biso   1.000  H
  H260     1.0000 0.95200  0.78910  0.34470  Biso   1.000  H
  H261     1.0000 0.97060  0.75520  0.29620  Biso   1.000  H
  H262     1.0000 0.76870  0.69870  0.94010  Biso   1.000  H
  H263     1.0000 0.78360  0.68510  0.03230  Biso   1.000  H
  H264     1.0000 0.75140  0.71460  0.02760  Biso   1.000  H
  H265     1.0000 0.81450  0.54630  0.56000  Biso   1.000  H
  H266     1.0000 0.81470  0.56780  0.46950  Biso   1.000  H
  H267     1.0000 0.81430  0.52410  0.47050  Biso   1.000  H
  H268     1.0000 0.95250  0.63360  0.56000  Biso   1.000  H
  H269     1.0000 0.92960  0.63460  0.47140  Biso   1.000  H
  H270     1.0000 0.97330  0.63260  0.46860  Biso   1.000  H
  Mn16     1.0000 0.14686  0.35204  0.24885  Biso   1.000  Mn
  N46      1.0000 0.19985  0.26164  0.15960  Biso   1.000  N
  N47      1.0000 0.13590  0.45640  0.33950  Biso   1.000  N
  N48      1.0000 0.04420  0.31636  0.34250  Biso   1.000  N
  O136     1.0000 0.16210  0.31188  0.16240  Biso   1.000  O
  O137     1.0000 0.19500  0.33235  0.31200  Biso   1.000  O
  O138     1.0000 0.23140  0.28404  0.30550  Biso   1.000  O
  O139     1.0000 0.13940  0.39453  0.33550  Biso   1.000  O
  O140     1.0000 0.17190  0.39976  0.17990  Biso   1.000  O
  O141     1.0000 0.17140  0.46203  0.19140  Biso   1.000  O
  O142     1.0000 0.09710  0.36296  0.18550  Biso   1.000  O
  O143     1.0000 0.10720  0.31789  0.32440  Biso   1.000  O
  O144     1.0000 0.03470  0.35810  0.20170  Biso   1.000  O
  C226     1.0000 0.18770  0.29130  0.19290  Biso   1.000  C
  C227     1.0000 0.20520  0.30240  0.27770  Biso   1.000  C
  C228     1.0000 0.18480  0.24930  0.07700  Biso   1.000  C
  C229     1.0000 0.15520  0.22570  0.07840  Biso   1.000  C
  C230     1.0000 0.13850  0.21270  0.16350  Biso   1.000  C
  H271     1.0000 0.14030  0.23220  0.20700  Biso   1.000  H
  H272     1.0000 0.11270  0.20650  0.15420  Biso   1.000  H
  H273     1.0000 0.15170  0.19110  0.18410  Biso   1.000  H
  C231     1.0000 0.14520  0.42580  0.30430  Biso   1.000  C
  C232     1.0000 0.16260  0.42890  0.21550  Biso   1.000  C
  C233     1.0000 0.11470  0.45490  0.42160  Biso   1.000  C
  C234     1.0000 0.07760  0.45240  0.42120  Biso   1.000  C
  C235     1.0000 0.05760  0.44990  0.33420  Biso   1.000  C
  H274     1.0000 0.06330  0.42660  0.30610  Biso   1.000  H
  H275     1.0000 0.03120  0.45150  0.34410  Biso   1.000  H
  H276     1.0000 0.06530  0.47010  0.29670  Biso   1.000  H
  C236     1.0000 0.06750  0.35280  0.22280  Biso   1.000  C
  C237     1.0000 0.07420  0.32570  0.30390  Biso   1.000  C
  C238     1.0000 0.04630  0.29600  0.42210  Biso   1.000  C
  C239     1.0000 0.04770  0.25810  0.42050  Biso   1.000  C
  C240     1.0000 0.04970  0.23720  0.33360  Biso   1.000  C
  H277     1.0000 0.07290  0.24260  0.30470  Biso   1.000  H
  H278     1.0000 0.04800  0.21090  0.34470  Biso   1.000  H
  H279     1.0000 0.02940  0.24480  0.29620  Biso   1.000  H
  H280     1.0000 0.23130  0.30130  0.94010  Biso   1.000  H
  H281     1.0000 0.21640  0.31490  0.03230  Biso   1.000  H
  H282     1.0000 0.24860  0.28540  0.02760  Biso   1.000  H
  H283     1.0000 0.18550  0.45370  0.56000  Biso   1.000  H
  H284     1.0000 0.18530  0.43220  0.46950  Biso   1.000  H
  H285     1.0000 0.18570  0.47590  0.47050  Biso   1.000  H
  H286     1.0000 0.04750  0.36640  0.56000  Biso   1.000  H
  H287     1.0000 0.07040  0.36540  0.47140  Biso   1.000  H
  H288     1.0000 0.02670  0.36740  0.46860  Biso   1.000  H
  Cu1      1.0000 0.24093  0.24093  0.23031  Biso   1.000  Cu
  Na1      1.0000 0.26920  0.26920  0.43150  Biso   1.000  Na
  Cu2      1.0000 0.75907  0.75907  0.23031  Biso   1.000  Cu
  Na2      1.0000 0.73080  0.73080  0.43150  Biso   1.000  Na
  Cu3      1.0000 0.75907  0.24093  0.23031  Biso   1.000  Cu
  Na3      1.0000 0.73080  0.26920  0.43150  Biso   1.000  Na
  Cu4      1.0000 0.24093  0.75907  0.23031  Biso   1.000  Cu
  Na4      1.0000 0.26920  0.73080  0.43150  Biso   1.000  Na
  Cu5      1.0000 0.75907  0.24093  0.76969  Biso   1.000  Cu
  Na5      1.0000 0.73080  0.26920  0.56850  Biso   1.000  Na
  Cu6      1.0000 0.24093  0.75907  0.76969  Biso   1.000  Cu
  Na6      1.0000 0.26920  0.73080  0.56850  Biso   1.000  Na
  Cu7      1.0000 0.24093  0.24093  0.76969  Biso   1.000  Cu
  Na7      1.0000 0.26920  0.26920  0.56850  Biso   1.000  Na
  Cu8      1.0000 0.75907  0.75907  0.76969  Biso   1.000  Cu
  Na8      1.0000 0.73080  0.73080  0.56850  Biso   1.000  Na
  Cu9      1.0000 0.33201  0.00000  0.27477  Biso   1.000  Cu
  Cu10     1.0000 0.66799  0.00000  0.27477  Biso   1.000  Cu
  Cu11     1.0000 0.00000  0.33201  0.27477  Biso   1.000  Cu
  Cu12     1.0000 0.00000  0.66799  0.27477  Biso   1.000  Cu
  Cu13     1.0000 0.66799  0.00000  0.72523  Biso   1.000  Cu
  Cu14     1.0000 0.33201  0.00000  0.72523  Biso   1.000  Cu
  Cu15     1.0000 0.00000  0.33201  0.72523  Biso   1.000  Cu
  Cu16     1.0000 0.00000  0.66799  0.72523  Biso   1.000  Cu
  Cu17     1.0000 0.50000  0.15086  0.26973  Biso   1.000  Cu
  Cu18     1.0000 0.50000  0.84914  0.26973  Biso   1.000  Cu
  Cu19     1.0000 0.84914  0.50000  0.26973  Biso   1.000  Cu
  Cu20     1.0000 0.15086  0.50000  0.26973  Biso   1.000  Cu
  Cu21     1.0000 0.50000  0.15086  0.73027  Biso   1.000  Cu
  Cu22     1.0000 0.50000  0.84914  0.73027  Biso   1.000  Cu
  Cu23     1.0000 0.15086  0.50000  0.73027  Biso   1.000  Cu
  Cu24     1.0000 0.84914  0.50000  0.73027  Biso   1.000  Cu
  C241     1.0000 0.21400  0.14240  0.00000  Biso   1.000  C
  H289     1.0000 0.19650  0.12330  0.00000  Biso   1.000  H
  C242     1.0000 0.26260  0.19750  0.00000  Biso   1.000  C
  C243     1.0000 0.29390  0.22610  0.00000  Biso   1.000  C
  C244     1.0000 0.78600  0.85760  0.00000  Biso   1.000  C
  H290     1.0000 0.80350  0.87670  0.00000  Biso   1.000  H
  C245     1.0000 0.73740  0.80250  0.00000  Biso   1.000  C
  C246     1.0000 0.70610  0.77390  0.00000  Biso   1.000  C
  C247     1.0000 0.85760  0.21400  0.00000  Biso   1.000  C
  H291     1.0000 0.87670  0.19650  0.00000  Biso   1.000  H
  C248     1.0000 0.80250  0.26260  0.00000  Biso   1.000  C
  C249     1.0000 0.77390  0.29390  0.00000  Biso   1.000  C
  C250     1.0000 0.14240  0.78600  0.00000  Biso   1.000  C
  H292     1.0000 0.12330  0.80350  0.00000  Biso   1.000  H
  C251     1.0000 0.19750  0.73740  0.00000  Biso   1.000  C
  C252     1.0000 0.22610  0.70610  0.00000  Biso   1.000  C
  C253     1.0000 0.78600  0.14240  0.00000  Biso   1.000  C
  H293     1.0000 0.80350  0.12330  0.00000  Biso   1.000  H
  C254     1.0000 0.73740  0.19750  0.00000  Biso   1.000  C
  C255     1.0000 0.70610  0.22610  0.00000  Biso   1.000  C
  C256     1.0000 0.21400  0.85760  0.00000  Biso   1.000  C
  H294     1.0000 0.19650  0.87670  0.00000  Biso   1.000  H
  C257     1.0000 0.26260  0.80250  0.00000  Biso   1.000  C
  C258     1.0000 0.29390  0.77390  0.00000  Biso   1.000  C
  C259     1.0000 0.14240  0.21400  0.00000  Biso   1.000  C
  H295     1.0000 0.12330  0.19650  0.00000  Biso   1.000  H
  C260     1.0000 0.19750  0.26260  0.00000  Biso   1.000  C
  C261     1.0000 0.22610  0.29390  0.00000  Biso   1.000  C
  C262     1.0000 0.85760  0.78600  0.00000  Biso   1.000  C
  H296     1.0000 0.87670  0.80350  0.00000  Biso   1.000  H
  C263     1.0000 0.80250  0.73740  0.00000  Biso   1.000  C
  C264     1.0000 0.77390  0.70610  0.00000  Biso   1.000  C
  C265     1.0000 0.45170  0.06090  0.50000  Biso   1.000  C
  H297     1.0000 0.45060  0.03490  0.50000  Biso   1.000  H
  C266     1.0000 0.45440  0.13420  0.50000  Biso   1.000  C
  C267     1.0000 0.45400  0.17660  0.50000  Biso   1.000  C
  C268     1.0000 0.23990  0.04830  0.50000  Biso   1.000  C
  H298     1.0000 0.21390  0.04900  0.50000  Biso   1.000  H
  C269     1.0000 0.31560  0.04580  0.50000  Biso   1.000  C
  C270     1.0000 0.35750  0.04780  0.50000  Biso   1.000  C
  O145     1.0000 0.29870  0.21430  0.50000  Biso   1.000  O
  O146     1.0000 0.24510  0.21290  0.50000  Biso   1.000  O
  C271     1.0000 0.54830  0.93910  0.50000  Biso   1.000  C
  H299     1.0000 0.54940  0.96510  0.50000  Biso   1.000  H
  C272     1.0000 0.54560  0.86580  0.50000  Biso   1.000  C
  C273     1.0000 0.54600  0.82340  0.50000  Biso   1.000  C
  C274     1.0000 0.76010  0.95170  0.50000  Biso   1.000  C
  H300     1.0000 0.78610  0.95100  0.50000  Biso   1.000  H
  C275     1.0000 0.68440  0.95420  0.50000  Biso   1.000  C
  C276     1.0000 0.64250  0.95220  0.50000  Biso   1.000  C
  O147     1.0000 0.70130  0.78570  0.50000  Biso   1.000  O
  O148     1.0000 0.75490  0.78710  0.50000  Biso   1.000  O
  C277     1.0000 0.93910  0.45170  0.50000  Biso   1.000  C
  H301     1.0000 0.96510  0.45060  0.50000  Biso   1.000  H
  C278     1.0000 0.86580  0.45440  0.50000  Biso   1.000  C
  C279     1.0000 0.82340  0.45400  0.50000  Biso   1.000  C
  C280     1.0000 0.95170  0.23990  0.50000  Biso   1.000  C
  H302     1.0000 0.95100  0.21390  0.50000  Biso   1.000  H
  C281     1.0000 0.95420  0.31560  0.50000  Biso   1.000  C
  C282     1.0000 0.95220  0.35750  0.50000  Biso   1.000  C
  O149     1.0000 0.78570  0.29870  0.50000  Biso   1.000  O
  O150     1.0000 0.78710  0.24510  0.50000  Biso   1.000  O
  C283     1.0000 0.06090  0.54830  0.50000  Biso   1.000  C
  H303     1.0000 0.03490  0.54940  0.50000  Biso   1.000  H
  C284     1.0000 0.13420  0.54560  0.50000  Biso   1.000  C
  C285     1.0000 0.17660  0.54600  0.50000  Biso   1.000  C
  C286     1.0000 0.04830  0.76010  0.50000  Biso   1.000  C
  H304     1.0000 0.04900  0.78610  0.50000  Biso   1.000  H
  C287     1.0000 0.04580  0.68440  0.50000  Biso   1.000  C
  C288     1.0000 0.04780  0.64250  0.50000  Biso   1.000  C
  O151     1.0000 0.21430  0.70130  0.50000  Biso   1.000  O
  O152     1.0000 0.21290  0.75490  0.50000  Biso   1.000  O
  C289     1.0000 0.54830  0.06090  0.50000  Biso   1.000  C
  H305     1.0000 0.54940  0.03490  0.50000  Biso   1.000  H
  C290     1.0000 0.54560  0.13420  0.50000  Biso   1.000  C
  C291     1.0000 0.54600  0.17660  0.50000  Biso   1.000  C
  C292     1.0000 0.76010  0.04830  0.50000  Biso   1.000  C
  H306     1.0000 0.78610  0.04900  0.50000  Biso   1.000  H
  C293     1.0000 0.68440  0.04580  0.50000  Biso   1.000  C
  C294     1.0000 0.64250  0.04780  0.50000  Biso   1.000  C
  O153     1.0000 0.70130  0.21430  0.50000  Biso   1.000  O
  O154     1.0000 0.75490  0.21290  0.50000  Biso   1.000  O
  C295     1.0000 0.45170  0.93910  0.50000  Biso   1.000  C
  H307     1.0000 0.45060  0.96510  0.50000  Biso   1.000  H
  C296     1.0000 0.45440  0.86580  0.50000  Biso   1.000  C
  C297     1.0000 0.45400  0.82340  0.50000  Biso   1.000  C
  C298     1.0000 0.23990  0.95170  0.50000  Biso   1.000  C
  H308     1.0000 0.21390  0.95100  0.50000  Biso   1.000  H
  C299     1.0000 0.31560  0.95420  0.50000  Biso   1.000  C
  C300     1.0000 0.35750  0.95220  0.50000  Biso   1.000  C
  O155     1.0000 0.29870  0.78570  0.50000  Biso   1.000  O
  O156     1.0000 0.24510  0.78710  0.50000  Biso   1.000  O
  C301     1.0000 0.06090  0.45170  0.50000  Biso   1.000  C
  H309     1.0000 0.03490  0.45060  0.50000  Biso   1.000  H
  C302     1.0000 0.13420  0.45440  0.50000  Biso   1.000  C
  C303     1.0000 0.17660  0.45400  0.50000  Biso   1.000  C
  C304     1.0000 0.04830  0.23990  0.50000  Biso   1.000  C
  H310     1.0000 0.04900  0.21390  0.50000  Biso   1.000  H
  C305     1.0000 0.04580  0.31560  0.50000  Biso   1.000  C
  C306     1.0000 0.04780  0.35750  0.50000  Biso   1.000  C
  O157     1.0000 0.21430  0.29870  0.50000  Biso   1.000  O
  O158     1.0000 0.21290  0.24510  0.50000  Biso   1.000  O
  C307     1.0000 0.93910  0.54830  0.50000  Biso   1.000  C
  H311     1.0000 0.96510  0.54940  0.50000  Biso   1.000  H
  C308     1.0000 0.86580  0.54560  0.50000  Biso   1.000  C
  C309     1.0000 0.82340  0.54600  0.50000  Biso   1.000  C
  C310     1.0000 0.95170  0.76010  0.50000  Biso   1.000  C
  H312     1.0000 0.95100  0.78610  0.50000  Biso   1.000  H
  C311     1.0000 0.95420  0.68440  0.50000  Biso   1.000  C
  C312     1.0000 0.95220  0.64250  0.50000  Biso   1.000  C
  O159     1.0000 0.78570  0.70130  0.50000  Biso   1.000  O
  O160     1.0000 0.78710  0.75490  0.50000  Biso   1.000  O
  O161     1.0000 0.31390  0.31390  0.50000  Biso   1.000  O
  O162     1.0000 0.68610  0.68610  0.50000  Biso   1.000  O
  O163     1.0000 0.68610  0.31390  0.50000  Biso   1.000  O
  O164     1.0000 0.31390  0.68610  0.50000  Biso   1.000  O
