data_image0
_cell_length_a       51.1237
_cell_length_b       51.1237
_cell_length_c       51.1237
_cell_angle_alpha    90
_cell_angle_beta     90
_cell_angle_gamma    90

_symmetry_space_group_name_H-M    "P 1"
_symmetry_int_tables_number       1

loop_
  _symmetry_equiv_pos_as_xyz
  'x, y, z'

loop_
  _atom_site_label
  _atom_site_occupancy
  _atom_site_fract_x
  _atom_site_fract_y
  _atom_site_fract_z
  _atom_site_thermal_displace_type
  _atom_site_B_iso_or_equiv
  _atom_site_type_symbol
  Zn1      1.0000 0.12515  0.87070  0.36760  Biso   1.000  Zn
  N1       1.0000 0.15345  0.90295  0.36333  Biso   1.000  N
  C1       1.0000 0.18070  0.89800  0.36536  Biso   1.000  C
  C2       1.0000 0.19420  0.92041  0.35608  Biso   1.000  C
  H1       1.0000 0.21230  0.92240  0.35520  Biso   1.000  H
  C3       1.0000 0.17530  0.93921  0.34831  Biso   1.000  C
  H2       1.0000 0.17880  0.95570  0.34150  Biso   1.000  H
  C4       1.0000 0.15012  0.92842  0.35280  Biso   1.000  C
  C5       1.0000 0.12509  0.93859  0.34860  Biso   1.000  C
  N2       1.0000 0.09672  0.90283  0.36341  Biso   1.000  N
  C6       1.0000 0.10020  0.92829  0.35290  Biso   1.000  C
  C7       1.0000 0.07508  0.93922  0.34841  Biso   1.000  C
  H3       1.0000 0.07170  0.95570  0.34160  Biso   1.000  H
  C8       1.0000 0.05607  0.92052  0.35614  Biso   1.000  C
  H4       1.0000 0.03800  0.92260  0.35530  Biso   1.000  H
  C9       1.0000 0.06945  0.89803  0.36542  Biso   1.000  C
  C10      1.0000 0.23475  0.89030  0.39280  Biso   1.000  C
  H5       1.0000 0.22570  0.90050  0.40480  Biso   1.000  H
  C11      1.0000 0.26193  0.89020  0.39270  Biso   1.000  C
  H6       1.0000 0.27110  0.90040  0.40470  Biso   1.000  H
  O1       1.0000 0.31699  0.88930  0.39070  Biso   1.000  O
  C12      1.0000 0.01559  0.86290  0.35480  Biso   1.000  C
  H7       1.0000 0.02470  0.85480  0.34130  Biso   1.000  H
  C13      1.0000 0.98841  0.86280  0.35470  Biso   1.000  C
  H8       1.0000 0.97940  0.85470  0.34110  Biso   1.000  H
  O2       1.0000 0.93313  0.86080  0.35910  Biso   1.000  O
  C14      1.0000 0.12508  0.96565  0.33741  Biso   1.000  C
  C15      1.0000 0.12800  0.96930  0.31065  Biso   1.000  C
  C16      1.0000 0.12800  0.99440  0.30028  Biso   1.000  C
  H9       1.0000 0.13000  0.99690  0.28240  Biso   1.000  H
  C17      1.0000 0.12507  0.01590  0.31670  Biso   1.000  C
  C18      1.0000 0.12215  0.01224  0.34350  Biso   1.000  C
  H10      1.0000 0.12020  0.02660  0.35440  Biso   1.000  H
  C19      1.0000 0.12216  0.98710  0.35383  Biso   1.000  C
  C20      1.0000 0.13117  0.94600  0.29282  Biso   1.000  C
  H11      1.0000 0.13290  0.95190  0.27510  Biso   1.000  H
  H12      1.0000 0.11610  0.93490  0.29430  Biso   1.000  H
  H13      1.0000 0.14650  0.93640  0.29780  Biso   1.000  H
  C21      1.0000 0.12506  0.04320  0.30540  Biso   1.000  C
  H14      1.0000 0.12720  0.04230  0.28680  Biso   1.000  H
  H15      1.0000 0.13920  0.05310  0.31290  Biso   1.000  H
  H16      1.0000 0.10870  0.05160  0.30940  Biso   1.000  H
  C22      1.0000 0.11899  0.98320  0.38291  Biso   1.000  C
  H17      1.0000 0.11720  0.99980  0.39130  Biso   1.000  H
  H18      1.0000 0.13410  0.97430  0.38970  Biso   1.000  H
  H19      1.0000 0.10370  0.97280  0.38620  Biso   1.000  H
  Zn2      1.0000 0.12515  0.37070  0.86760  Biso   1.000  Zn
  N3       1.0000 0.15345  0.40295  0.86333  Biso   1.000  N
  C23      1.0000 0.18070  0.39800  0.86536  Biso   1.000  C
  C24      1.0000 0.19420  0.42041  0.85608  Biso   1.000  C
  H20      1.0000 0.21230  0.42240  0.85520  Biso   1.000  H
  C25      1.0000 0.17530  0.43921  0.84831  Biso   1.000  C
  H21      1.0000 0.17880  0.45570  0.84150  Biso   1.000  H
  C26      1.0000 0.15012  0.42842  0.85280  Biso   1.000  C
  C27      1.0000 0.12509  0.43859  0.84860  Biso   1.000  C
  N4       1.0000 0.09672  0.40283  0.86341  Biso   1.000  N
  C28      1.0000 0.10020  0.42829  0.85290  Biso   1.000  C
  C29      1.0000 0.07508  0.43922  0.84841  Biso   1.000  C
  H22      1.0000 0.07170  0.45570  0.84160  Biso   1.000  H
  C30      1.0000 0.05607  0.42052  0.85614  Biso   1.000  C
  H23      1.0000 0.03800  0.42260  0.85530  Biso   1.000  H
  C31      1.0000 0.06945  0.39803  0.86542  Biso   1.000  C
  C32      1.0000 0.23475  0.39030  0.89280  Biso   1.000  C
  H24      1.0000 0.22570  0.40050  0.90480  Biso   1.000  H
  C33      1.0000 0.26193  0.39020  0.89270  Biso   1.000  C
  H25      1.0000 0.27110  0.40040  0.90470  Biso   1.000  H
  O3       1.0000 0.31699  0.38930  0.89070  Biso   1.000  O
  C34      1.0000 0.01559  0.36290  0.85480  Biso   1.000  C
  H26      1.0000 0.02470  0.35480  0.84130  Biso   1.000  H
  C35      1.0000 0.98841  0.36280  0.85470  Biso   1.000  C
  H27      1.0000 0.97940  0.35470  0.84110  Biso   1.000  H
  O4       1.0000 0.93313  0.36080  0.85910  Biso   1.000  O
  C36      1.0000 0.12508  0.46565  0.83741  Biso   1.000  C
  C37      1.0000 0.12800  0.46930  0.81065  Biso   1.000  C
  C38      1.0000 0.12800  0.49440  0.80028  Biso   1.000  C
  H28      1.0000 0.13000  0.49690  0.78240  Biso   1.000  H
  C39      1.0000 0.12507  0.51590  0.81670  Biso   1.000  C
  C40      1.0000 0.12215  0.51224  0.84350  Biso   1.000  C
  H29      1.0000 0.12020  0.52660  0.85440  Biso   1.000  H
  C41      1.0000 0.12216  0.48710  0.85383  Biso   1.000  C
  C42      1.0000 0.13117  0.44600  0.79282  Biso   1.000  C
  H30      1.0000 0.13290  0.45190  0.77510  Biso   1.000  H
  H31      1.0000 0.11610  0.43490  0.79430  Biso   1.000  H
  H32      1.0000 0.14650  0.43640  0.79780  Biso   1.000  H
  C43      1.0000 0.12506  0.54320  0.80540  Biso   1.000  C
  H33      1.0000 0.12720  0.54230  0.78680  Biso   1.000  H
  H34      1.0000 0.13920  0.55310  0.81290  Biso   1.000  H
  H35      1.0000 0.10870  0.55160  0.80940  Biso   1.000  H
  C44      1.0000 0.11899  0.48320  0.88291  Biso   1.000  C
  H36      1.0000 0.11720  0.49980  0.89130  Biso   1.000  H
  H37      1.0000 0.13410  0.47430  0.88970  Biso   1.000  H
  H38      1.0000 0.10370  0.47280  0.88620  Biso   1.000  H
  Zn3      1.0000 0.62515  0.87070  0.86760  Biso   1.000  Zn
  N5       1.0000 0.65345  0.90295  0.86333  Biso   1.000  N
  C45      1.0000 0.68070  0.89800  0.86536  Biso   1.000  C
  C46      1.0000 0.69420  0.92041  0.85608  Biso   1.000  C
  H39      1.0000 0.71230  0.92240  0.85520  Biso   1.000  H
  C47      1.0000 0.67530  0.93921  0.84831  Biso   1.000  C
  H40      1.0000 0.67880  0.95570  0.84150  Biso   1.000  H
  C48      1.0000 0.65012  0.92842  0.85280  Biso   1.000  C
  C49      1.0000 0.62509  0.93859  0.84860  Biso   1.000  C
  N6       1.0000 0.59672  0.90283  0.86341  Biso   1.000  N
  C50      1.0000 0.60020  0.92829  0.85290  Biso   1.000  C
  C51      1.0000 0.57508  0.93922  0.84841  Biso   1.000  C
  H41      1.0000 0.57170  0.95570  0.84160  Biso   1.000  H
  C52      1.0000 0.55607  0.92052  0.85614  Biso   1.000  C
  H42      1.0000 0.53800  0.92260  0.85530  Biso   1.000  H
  C53      1.0000 0.56945  0.89803  0.86542  Biso   1.000  C
  C54      1.0000 0.73475  0.89030  0.89280  Biso   1.000  C
  H43      1.0000 0.72570  0.90050  0.90480  Biso   1.000  H
  C55      1.0000 0.76193  0.89020  0.89270  Biso   1.000  C
  H44      1.0000 0.77110  0.90040  0.90470  Biso   1.000  H
  O5       1.0000 0.81699  0.88930  0.89070  Biso   1.000  O
  C56      1.0000 0.51559  0.86290  0.85480  Biso   1.000  C
  H45      1.0000 0.52470  0.85480  0.84130  Biso   1.000  H
  C57      1.0000 0.48841  0.86280  0.85470  Biso   1.000  C
  H46      1.0000 0.47940  0.85470  0.84110  Biso   1.000  H
  O6       1.0000 0.43313  0.86080  0.85910  Biso   1.000  O
  C58      1.0000 0.62508  0.96565  0.83741  Biso   1.000  C
  C59      1.0000 0.62800  0.96930  0.81065  Biso   1.000  C
  C60      1.0000 0.62800  0.99440  0.80028  Biso   1.000  C
  H47      1.0000 0.63000  0.99690  0.78240  Biso   1.000  H
  C61      1.0000 0.62507  0.01590  0.81670  Biso   1.000  C
  C62      1.0000 0.62215  0.01224  0.84350  Biso   1.000  C
  H48      1.0000 0.62020  0.02660  0.85440  Biso   1.000  H
  C63      1.0000 0.62216  0.98710  0.85383  Biso   1.000  C
  C64      1.0000 0.63117  0.94600  0.79282  Biso   1.000  C
  H49      1.0000 0.63290  0.95190  0.77510  Biso   1.000  H
  H50      1.0000 0.61610  0.93490  0.79430  Biso   1.000  H
  H51      1.0000 0.64650  0.93640  0.79780  Biso   1.000  H
  C65      1.0000 0.62506  0.04320  0.80540  Biso   1.000  C
  H52      1.0000 0.62720  0.04230  0.78680  Biso   1.000  H
  H53      1.0000 0.63920  0.05310  0.81290  Biso   1.000  H
  H54      1.0000 0.60870  0.05160  0.80940  Biso   1.000  H
  C66      1.0000 0.61899  0.98320  0.88291  Biso   1.000  C
  H55      1.0000 0.61720  0.99980  0.89130  Biso   1.000  H
  H56      1.0000 0.63410  0.97430  0.88970  Biso   1.000  H
  H57      1.0000 0.60370  0.97280  0.88620  Biso   1.000  H
  Zn4      1.0000 0.62515  0.37070  0.36760  Biso   1.000  Zn
  N7       1.0000 0.65345  0.40295  0.36333  Biso   1.000  N
  C67      1.0000 0.68070  0.39800  0.36536  Biso   1.000  C
  C68      1.0000 0.69420  0.42041  0.35608  Biso   1.000  C
  H58      1.0000 0.71230  0.42240  0.35520  Biso   1.000  H
  C69      1.0000 0.67530  0.43921  0.34831  Biso   1.000  C
  H59      1.0000 0.67880  0.45570  0.34150  Biso   1.000  H
  C70      1.0000 0.65012  0.42842  0.35280  Biso   1.000  C
  C71      1.0000 0.62509  0.43859  0.34860  Biso   1.000  C
  N8       1.0000 0.59672  0.40283  0.36341  Biso   1.000  N
  C72      1.0000 0.60020  0.42829  0.35290  Biso   1.000  C
  C73      1.0000 0.57508  0.43922  0.34841  Biso   1.000  C
  H60      1.0000 0.57170  0.45570  0.34160  Biso   1.000  H
  C74      1.0000 0.55607  0.42052  0.35614  Biso   1.000  C
  H61      1.0000 0.53800  0.42260  0.35530  Biso   1.000  H
  C75      1.0000 0.56945  0.39803  0.36542  Biso   1.000  C
  C76      1.0000 0.73475  0.39030  0.39280  Biso   1.000  C
  H62      1.0000 0.72570  0.40050  0.40480  Biso   1.000  H
  C77      1.0000 0.76193  0.39020  0.39270  Biso   1.000  C
  H63      1.0000 0.77110  0.40040  0.40470  Biso   1.000  H
  O7       1.0000 0.81699  0.38930  0.39070  Biso   1.000  O
  C78      1.0000 0.51559  0.36290  0.35480  Biso   1.000  C
  H64      1.0000 0.52470  0.35480  0.34130  Biso   1.000  H
  C79      1.0000 0.48841  0.36280  0.35470  Biso   1.000  C
  H65      1.0000 0.47940  0.35470  0.34110  Biso   1.000  H
  O8       1.0000 0.43313  0.36080  0.35910  Biso   1.000  O
  C80      1.0000 0.62508  0.46565  0.33741  Biso   1.000  C
  C81      1.0000 0.62800  0.46930  0.31065  Biso   1.000  C
  C82      1.0000 0.62800  0.49440  0.30028  Biso   1.000  C
  H66      1.0000 0.63000  0.49690  0.28240  Biso   1.000  H
  C83      1.0000 0.62507  0.51590  0.31670  Biso   1.000  C
  C84      1.0000 0.62215  0.51224  0.34350  Biso   1.000  C
  H67      1.0000 0.62020  0.52660  0.35440  Biso   1.000  H
  C85      1.0000 0.62216  0.48710  0.35383  Biso   1.000  C
  C86      1.0000 0.63117  0.44600  0.29282  Biso   1.000  C
  H68      1.0000 0.63290  0.45190  0.27510  Biso   1.000  H
  H69      1.0000 0.61610  0.43490  0.29430  Biso   1.000  H
  H70      1.0000 0.64650  0.43640  0.29780  Biso   1.000  H
  C87      1.0000 0.62506  0.54320  0.30540  Biso   1.000  C
  H71      1.0000 0.62720  0.54230  0.28680  Biso   1.000  H
  H72      1.0000 0.63920  0.55310  0.31290  Biso   1.000  H
  H73      1.0000 0.60870  0.55160  0.30940  Biso   1.000  H
  C88      1.0000 0.61899  0.48320  0.38291  Biso   1.000  C
  H74      1.0000 0.61720  0.49980  0.39130  Biso   1.000  H
  H75      1.0000 0.63410  0.47430  0.38970  Biso   1.000  H
  H76      1.0000 0.60370  0.47280  0.38620  Biso   1.000  H
  Zn5      1.0000 0.12485  0.37930  0.36760  Biso   1.000  Zn
  N9       1.0000 0.09655  0.34705  0.36333  Biso   1.000  N
  C89      1.0000 0.06930  0.35200  0.36536  Biso   1.000  C
  C90      1.0000 0.05580  0.32959  0.35608  Biso   1.000  C
  H77      1.0000 0.03770  0.32760  0.35520  Biso   1.000  H
  C91      1.0000 0.07470  0.31079  0.34831  Biso   1.000  C
  H78      1.0000 0.07120  0.29430  0.34150  Biso   1.000  H
  C92      1.0000 0.09988  0.32158  0.35280  Biso   1.000  C
  C93      1.0000 0.12491  0.31141  0.34860  Biso   1.000  C
  N10      1.0000 0.15328  0.34717  0.36341  Biso   1.000  N
  C94      1.0000 0.14980  0.32171  0.35290  Biso   1.000  C
  C95      1.0000 0.17492  0.31078  0.34841  Biso   1.000  C
  H79      1.0000 0.17830  0.29430  0.34160  Biso   1.000  H
  C96      1.0000 0.19393  0.32948  0.35614  Biso   1.000  C
  H80      1.0000 0.21200  0.32740  0.35530  Biso   1.000  H
  C97      1.0000 0.18055  0.35197  0.36542  Biso   1.000  C
  C98      1.0000 0.01525  0.35970  0.39280  Biso   1.000  C
  H81      1.0000 0.02430  0.34950  0.40480  Biso   1.000  H
  C99      1.0000 0.98807  0.35980  0.39270  Biso   1.000  C
  H82      1.0000 0.97890  0.34960  0.40470  Biso   1.000  H
  O9       1.0000 0.93301  0.36070  0.39070  Biso   1.000  O
  C100     1.0000 0.23441  0.38710  0.35480  Biso   1.000  C
  H83      1.0000 0.22530  0.39520  0.34130  Biso   1.000  H
  C101     1.0000 0.26159  0.38720  0.35470  Biso   1.000  C
  H84      1.0000 0.27060  0.39530  0.34110  Biso   1.000  H
  O10      1.0000 0.31687  0.38920  0.35910  Biso   1.000  O
  C102     1.0000 0.12492  0.28435  0.33741  Biso   1.000  C
  C103     1.0000 0.12200  0.28070  0.31065  Biso   1.000  C
  C104     1.0000 0.12200  0.25560  0.30028  Biso   1.000  C
  H85      1.0000 0.12000  0.25310  0.28240  Biso   1.000  H
  C105     1.0000 0.12493  0.23410  0.31670  Biso   1.000  C
  C106     1.0000 0.12785  0.23776  0.34350  Biso   1.000  C
  H86      1.0000 0.12980  0.22340  0.35440  Biso   1.000  H
  C107     1.0000 0.12784  0.26290  0.35383  Biso   1.000  C
  C108     1.0000 0.11883  0.30400  0.29282  Biso   1.000  C
  H87      1.0000 0.11710  0.29810  0.27510  Biso   1.000  H
  H88      1.0000 0.13390  0.31510  0.29430  Biso   1.000  H
  H89      1.0000 0.10350  0.31360  0.29780  Biso   1.000  H
  C109     1.0000 0.12494  0.20680  0.30540  Biso   1.000  C
  H90      1.0000 0.12280  0.20770  0.28680  Biso   1.000  H
  H91      1.0000 0.11080  0.19690  0.31290  Biso   1.000  H
  H92      1.0000 0.14130  0.19840  0.30940  Biso   1.000  H
  C110     1.0000 0.13101  0.26680  0.38291  Biso   1.000  C
  H93      1.0000 0.13280  0.25020  0.39130  Biso   1.000  H
  H94      1.0000 0.11590  0.27570  0.38970  Biso   1.000  H
  H95      1.0000 0.14630  0.27720  0.38620  Biso   1.000  H
  Zn6      1.0000 0.12485  0.87930  0.86760  Biso   1.000  Zn
  N11      1.0000 0.09655  0.84705  0.86333  Biso   1.000  N
  C111     1.0000 0.06930  0.85200  0.86536  Biso   1.000  C
  C112     1.0000 0.05580  0.82959  0.85608  Biso   1.000  C
  H96      1.0000 0.03770  0.82760  0.85520  Biso   1.000  H
  C113     1.0000 0.07470  0.81079  0.84831  Biso   1.000  C
  H97      1.0000 0.07120  0.79430  0.84150  Biso   1.000  H
  C114     1.0000 0.09988  0.82158  0.85280  Biso   1.000  C
  C115     1.0000 0.12491  0.81141  0.84860  Biso   1.000  C
  N12      1.0000 0.15328  0.84717  0.86341  Biso   1.000  N
  C116     1.0000 0.14980  0.82171  0.85290  Biso   1.000  C
  C117     1.0000 0.17492  0.81078  0.84841  Biso   1.000  C
  H98      1.0000 0.17830  0.79430  0.84160  Biso   1.000  H
  C118     1.0000 0.19393  0.82948  0.85614  Biso   1.000  C
  H99      1.0000 0.21200  0.82740  0.85530  Biso   1.000  H
  C119     1.0000 0.18055  0.85197  0.86542  Biso   1.000  C
  C120     1.0000 0.01525  0.85970  0.89280  Biso   1.000  C
  H100     1.0000 0.02430  0.84950  0.90480  Biso   1.000  H
  C121     1.0000 0.98807  0.85980  0.89270  Biso   1.000  C
  H101     1.0000 0.97890  0.84960  0.90470  Biso   1.000  H
  O11      1.0000 0.93301  0.86070  0.89070  Biso   1.000  O
  C122     1.0000 0.23441  0.88710  0.85480  Biso   1.000  C
  H102     1.0000 0.22530  0.89520  0.84130  Biso   1.000  H
  C123     1.0000 0.26159  0.88720  0.85470  Biso   1.000  C
  H103     1.0000 0.27060  0.89530  0.84110  Biso   1.000  H
  O12      1.0000 0.31687  0.88920  0.85910  Biso   1.000  O
  C124     1.0000 0.12492  0.78435  0.83741  Biso   1.000  C
  C125     1.0000 0.12200  0.78070  0.81065  Biso   1.000  C
  C126     1.0000 0.12200  0.75560  0.80028  Biso   1.000  C
  H104     1.0000 0.12000  0.75310  0.78240  Biso   1.000  H
  C127     1.0000 0.12493  0.73410  0.81670  Biso   1.000  C
  C128     1.0000 0.12785  0.73776  0.84350  Biso   1.000  C
  H105     1.0000 0.12980  0.72340  0.85440  Biso   1.000  H
  C129     1.0000 0.12784  0.76290  0.85383  Biso   1.000  C
  C130     1.0000 0.11883  0.80400  0.79282  Biso   1.000  C
  H106     1.0000 0.11710  0.79810  0.77510  Biso   1.000  H
  H107     1.0000 0.13390  0.81510  0.79430  Biso   1.000  H
  H108     1.0000 0.10350  0.81360  0.79780  Biso   1.000  H
  C131     1.0000 0.12494  0.70680  0.80540  Biso   1.000  C
  H109     1.0000 0.12280  0.70770  0.78680  Biso   1.000  H
  H110     1.0000 0.11080  0.69690  0.81290  Biso   1.000  H
  H111     1.0000 0.14130  0.69840  0.80940  Biso   1.000  H
  C132     1.0000 0.13101  0.76680  0.88291  Biso   1.000  C
  H112     1.0000 0.13280  0.75020  0.89130  Biso   1.000  H
  H113     1.0000 0.11590  0.77570  0.88970  Biso   1.000  H
  H114     1.0000 0.14630  0.77720  0.88620  Biso   1.000  H
  Zn7      1.0000 0.62485  0.37930  0.86760  Biso   1.000  Zn
  N13      1.0000 0.59655  0.34705  0.86333  Biso   1.000  N
  C133     1.0000 0.56930  0.35200  0.86536  Biso   1.000  C
  C134     1.0000 0.55580  0.32959  0.85608  Biso   1.000  C
  H115     1.0000 0.53770  0.32760  0.85520  Biso   1.000  H
  C135     1.0000 0.57470  0.31079  0.84831  Biso   1.000  C
  H116     1.0000 0.57120  0.29430  0.84150  Biso   1.000  H
  C136     1.0000 0.59988  0.32158  0.85280  Biso   1.000  C
  C137     1.0000 0.62491  0.31141  0.84860  Biso   1.000  C
  N14      1.0000 0.65328  0.34717  0.86341  Biso   1.000  N
  C138     1.0000 0.64980  0.32171  0.85290  Biso   1.000  C
  C139     1.0000 0.67492  0.31078  0.84841  Biso   1.000  C
  H117     1.0000 0.67830  0.29430  0.84160  Biso   1.000  H
  C140     1.0000 0.69393  0.32948  0.85614  Biso   1.000  C
  H118     1.0000 0.71200  0.32740  0.85530  Biso   1.000  H
  C141     1.0000 0.68055  0.35197  0.86542  Biso   1.000  C
  C142     1.0000 0.51525  0.35970  0.89280  Biso   1.000  C
  H119     1.0000 0.52430  0.34950  0.90480  Biso   1.000  H
  C143     1.0000 0.48807  0.35980  0.89270  Biso   1.000  C
  H120     1.0000 0.47890  0.34960  0.90470  Biso   1.000  H
  O13      1.0000 0.43301  0.36070  0.89070  Biso   1.000  O
  C144     1.0000 0.73441  0.38710  0.85480  Biso   1.000  C
  H121     1.0000 0.72530  0.39520  0.84130  Biso   1.000  H
  C145     1.0000 0.76159  0.38720  0.85470  Biso   1.000  C
  H122     1.0000 0.77060  0.39530  0.84110  Biso   1.000  H
  O14      1.0000 0.81687  0.38920  0.85910  Biso   1.000  O
  C146     1.0000 0.62492  0.28435  0.83741  Biso   1.000  C
  C147     1.0000 0.62200  0.28070  0.81065  Biso   1.000  C
  C148     1.0000 0.62200  0.25560  0.80028  Biso   1.000  C
  H123     1.0000 0.62000  0.25310  0.78240  Biso   1.000  H
  C149     1.0000 0.62493  0.23410  0.81670  Biso   1.000  C
  C150     1.0000 0.62785  0.23776  0.84350  Biso   1.000  C
  H124     1.0000 0.62980  0.22340  0.85440  Biso   1.000  H
  C151     1.0000 0.62784  0.26290  0.85383  Biso   1.000  C
  C152     1.0000 0.61883  0.30400  0.79282  Biso   1.000  C
  H125     1.0000 0.61710  0.29810  0.77510  Biso   1.000  H
  H126     1.0000 0.63390  0.31510  0.79430  Biso   1.000  H
  H127     1.0000 0.60350  0.31360  0.79780  Biso   1.000  H
  C153     1.0000 0.62494  0.20680  0.80540  Biso   1.000  C
  H128     1.0000 0.62280  0.20770  0.78680  Biso   1.000  H
  H129     1.0000 0.61080  0.19690  0.81290  Biso   1.000  H
  H130     1.0000 0.64130  0.19840  0.80940  Biso   1.000  H
  C154     1.0000 0.63101  0.26680  0.88291  Biso   1.000  C
  H131     1.0000 0.63280  0.25020  0.89130  Biso   1.000  H
  H132     1.0000 0.61590  0.27570  0.88970  Biso   1.000  H
  H133     1.0000 0.64630  0.27720  0.88620  Biso   1.000  H
  Zn8      1.0000 0.62485  0.87930  0.36760  Biso   1.000  Zn
  N15      1.0000 0.59655  0.84705  0.36333  Biso   1.000  N
  C155     1.0000 0.56930  0.85200  0.36536  Biso   1.000  C
  C156     1.0000 0.55580  0.82959  0.35608  Biso   1.000  C
  H134     1.0000 0.53770  0.82760  0.35520  Biso   1.000  H
  C157     1.0000 0.57470  0.81079  0.34831  Biso   1.000  C
  H135     1.0000 0.57120  0.79430  0.34150  Biso   1.000  H
  C158     1.0000 0.59988  0.82158  0.35280  Biso   1.000  C
  C159     1.0000 0.62491  0.81141  0.34860  Biso   1.000  C
  N16      1.0000 0.65328  0.84717  0.36341  Biso   1.000  N
  C160     1.0000 0.64980  0.82171  0.35290  Biso   1.000  C
  C161     1.0000 0.67492  0.81078  0.34841  Biso   1.000  C
  H136     1.0000 0.67830  0.79430  0.34160  Biso   1.000  H
  C162     1.0000 0.69393  0.82948  0.35614  Biso   1.000  C
  H137     1.0000 0.71200  0.82740  0.35530  Biso   1.000  H
  C163     1.0000 0.68055  0.85197  0.36542  Biso   1.000  C
  C164     1.0000 0.51525  0.85970  0.39280  Biso   1.000  C
  H138     1.0000 0.52430  0.84950  0.40480  Biso   1.000  H
  C165     1.0000 0.48807  0.85980  0.39270  Biso   1.000  C
  H139     1.0000 0.47890  0.84960  0.40470  Biso   1.000  H
  O15      1.0000 0.43301  0.86070  0.39070  Biso   1.000  O
  C166     1.0000 0.73441  0.88710  0.35480  Biso   1.000  C
  H140     1.0000 0.72530  0.89520  0.34130  Biso   1.000  H
  C167     1.0000 0.76159  0.88720  0.35470  Biso   1.000  C
  H141     1.0000 0.77060  0.89530  0.34110  Biso   1.000  H
  O16      1.0000 0.81687  0.88920  0.35910  Biso   1.000  O
  C168     1.0000 0.62492  0.78435  0.33741  Biso   1.000  C
  C169     1.0000 0.62200  0.78070  0.31065  Biso   1.000  C
  C170     1.0000 0.62200  0.75560  0.30028  Biso   1.000  C
  H142     1.0000 0.62000  0.75310  0.28240  Biso   1.000  H
  C171     1.0000 0.62493  0.73410  0.31670  Biso   1.000  C
  C172     1.0000 0.62785  0.73776  0.34350  Biso   1.000  C
  H143     1.0000 0.62980  0.72340  0.35440  Biso   1.000  H
  C173     1.0000 0.62784  0.76290  0.35383  Biso   1.000  C
  C174     1.0000 0.61883  0.80400  0.29282  Biso   1.000  C
  H144     1.0000 0.61710  0.79810  0.27510  Biso   1.000  H
  H145     1.0000 0.63390  0.81510  0.29430  Biso   1.000  H
  H146     1.0000 0.60350  0.81360  0.29780  Biso   1.000  H
  C175     1.0000 0.62494  0.70680  0.30540  Biso   1.000  C
  H147     1.0000 0.62280  0.70770  0.28680  Biso   1.000  H
  H148     1.0000 0.61080  0.69690  0.31290  Biso   1.000  H
  H149     1.0000 0.64130  0.69840  0.30940  Biso   1.000  H
  C176     1.0000 0.63101  0.76680  0.38291  Biso   1.000  C
  H150     1.0000 0.63280  0.75020  0.39130  Biso   1.000  H
  H151     1.0000 0.61590  0.77570  0.38970  Biso   1.000  H
  H152     1.0000 0.64630  0.77720  0.38620  Biso   1.000  H
  Zn9      1.0000 0.12485  0.87070  0.88240  Biso   1.000  Zn
  N17      1.0000 0.09655  0.90295  0.88667  Biso   1.000  N
  C177     1.0000 0.06930  0.89800  0.88464  Biso   1.000  C
  C178     1.0000 0.05580  0.92041  0.89392  Biso   1.000  C
  H153     1.0000 0.03770  0.92240  0.89480  Biso   1.000  H
  C179     1.0000 0.07470  0.93921  0.90169  Biso   1.000  C
  H154     1.0000 0.07120  0.95570  0.90850  Biso   1.000  H
  C180     1.0000 0.09988  0.92842  0.89720  Biso   1.000  C
  C181     1.0000 0.12491  0.93859  0.90140  Biso   1.000  C
  N18      1.0000 0.15328  0.90283  0.88659  Biso   1.000  N
  C182     1.0000 0.14980  0.92829  0.89710  Biso   1.000  C
  C183     1.0000 0.17492  0.93922  0.90159  Biso   1.000  C
  H155     1.0000 0.17830  0.95570  0.90840  Biso   1.000  H
  C184     1.0000 0.19393  0.92052  0.89386  Biso   1.000  C
  H156     1.0000 0.21200  0.92260  0.89470  Biso   1.000  H
  C185     1.0000 0.18055  0.89803  0.88458  Biso   1.000  C
  C186     1.0000 0.01525  0.89030  0.85720  Biso   1.000  C
  H157     1.0000 0.02430  0.90050  0.84520  Biso   1.000  H
  C187     1.0000 0.98807  0.89020  0.85730  Biso   1.000  C
  H158     1.0000 0.97890  0.90040  0.84530  Biso   1.000  H
  O17      1.0000 0.93301  0.88930  0.85930  Biso   1.000  O
  C188     1.0000 0.23441  0.86290  0.89520  Biso   1.000  C
  H159     1.0000 0.22530  0.85480  0.90870  Biso   1.000  H
  C189     1.0000 0.26159  0.86280  0.89530  Biso   1.000  C
  H160     1.0000 0.27060  0.85470  0.90890  Biso   1.000  H
  O18      1.0000 0.31687  0.86080  0.89090  Biso   1.000  O
  C190     1.0000 0.12492  0.96565  0.91259  Biso   1.000  C
  C191     1.0000 0.12200  0.96930  0.93935  Biso   1.000  C
  C192     1.0000 0.12200  0.99440  0.94972  Biso   1.000  C
  H161     1.0000 0.12000  0.99690  0.96760  Biso   1.000  H
  C193     1.0000 0.12493  0.01590  0.93330  Biso   1.000  C
  C194     1.0000 0.12785  0.01224  0.90650  Biso   1.000  C
  H162     1.0000 0.12980  0.02660  0.89560  Biso   1.000  H
  C195     1.0000 0.12784  0.98710  0.89617  Biso   1.000  C
  C196     1.0000 0.11883  0.94600  0.95718  Biso   1.000  C
  H163     1.0000 0.11710  0.95190  0.97490  Biso   1.000  H
  H164     1.0000 0.13390  0.93490  0.95570  Biso   1.000  H
  H165     1.0000 0.10350  0.93640  0.95220  Biso   1.000  H
  C197     1.0000 0.12494  0.04320  0.94460  Biso   1.000  C
  H166     1.0000 0.12280  0.04230  0.96320  Biso   1.000  H
  H167     1.0000 0.11080  0.05310  0.93710  Biso   1.000  H
  H168     1.0000 0.14130  0.05160  0.94060  Biso   1.000  H
  C198     1.0000 0.13101  0.98320  0.86709  Biso   1.000  C
  H169     1.0000 0.13280  0.99980  0.85870  Biso   1.000  H
  H170     1.0000 0.11590  0.97430  0.86030  Biso   1.000  H
  H171     1.0000 0.14630  0.97280  0.86380  Biso   1.000  H
  Zn10     1.0000 0.12485  0.37070  0.38240  Biso   1.000  Zn
  N19      1.0000 0.09655  0.40295  0.38667  Biso   1.000  N
  C199     1.0000 0.06930  0.39800  0.38464  Biso   1.000  C
  C200     1.0000 0.05580  0.42041  0.39392  Biso   1.000  C
  H172     1.0000 0.03770  0.42240  0.39480  Biso   1.000  H
  C201     1.0000 0.07470  0.43921  0.40169  Biso   1.000  C
  H173     1.0000 0.07120  0.45570  0.40850  Biso   1.000  H
  C202     1.0000 0.09988  0.42842  0.39720  Biso   1.000  C
  C203     1.0000 0.12491  0.43859  0.40140  Biso   1.000  C
  N20      1.0000 0.15328  0.40283  0.38659  Biso   1.000  N
  C204     1.0000 0.14980  0.42829  0.39710  Biso   1.000  C
  C205     1.0000 0.17492  0.43922  0.40159  Biso   1.000  C
  H174     1.0000 0.17830  0.45570  0.40840  Biso   1.000  H
  C206     1.0000 0.19393  0.42052  0.39386  Biso   1.000  C
  H175     1.0000 0.21200  0.42260  0.39470  Biso   1.000  H
  C207     1.0000 0.18055  0.39803  0.38458  Biso   1.000  C
  C208     1.0000 0.01525  0.39030  0.35720  Biso   1.000  C
  H176     1.0000 0.02430  0.40050  0.34520  Biso   1.000  H
  C209     1.0000 0.98807  0.39020  0.35730  Biso   1.000  C
  H177     1.0000 0.97890  0.40040  0.34530  Biso   1.000  H
  O19      1.0000 0.93301  0.38930  0.35930  Biso   1.000  O
  C210     1.0000 0.23441  0.36290  0.39520  Biso   1.000  C
  H178     1.0000 0.22530  0.35480  0.40870  Biso   1.000  H
  C211     1.0000 0.26159  0.36280  0.39530  Biso   1.000  C
  H179     1.0000 0.27060  0.35470  0.40890  Biso   1.000  H
  O20      1.0000 0.31687  0.36080  0.39090  Biso   1.000  O
  C212     1.0000 0.12492  0.46565  0.41259  Biso   1.000  C
  C213     1.0000 0.12200  0.46930  0.43935  Biso   1.000  C
  C214     1.0000 0.12200  0.49440  0.44972  Biso   1.000  C
  H180     1.0000 0.12000  0.49690  0.46760  Biso   1.000  H
  C215     1.0000 0.12493  0.51590  0.43330  Biso   1.000  C
  C216     1.0000 0.12785  0.51224  0.40650  Biso   1.000  C
  H181     1.0000 0.12980  0.52660  0.39560  Biso   1.000  H
  C217     1.0000 0.12784  0.48710  0.39617  Biso   1.000  C
  C218     1.0000 0.11883  0.44600  0.45718  Biso   1.000  C
  H182     1.0000 0.11710  0.45190  0.47490  Biso   1.000  H
  H183     1.0000 0.13390  0.43490  0.45570  Biso   1.000  H
  H184     1.0000 0.10350  0.43640  0.45220  Biso   1.000  H
  C219     1.0000 0.12494  0.54320  0.44460  Biso   1.000  C
  H185     1.0000 0.12280  0.54230  0.46320  Biso   1.000  H
  H186     1.0000 0.11080  0.55310  0.43710  Biso   1.000  H
  H187     1.0000 0.14130  0.55160  0.44060  Biso   1.000  H
  C220     1.0000 0.13101  0.48320  0.36709  Biso   1.000  C
  H188     1.0000 0.13280  0.49980  0.35870  Biso   1.000  H
  H189     1.0000 0.11590  0.47430  0.36030  Biso   1.000  H
  H190     1.0000 0.14630  0.47280  0.36380  Biso   1.000  H
  Zn11     1.0000 0.62485  0.87070  0.38240  Biso   1.000  Zn
  N21      1.0000 0.59655  0.90295  0.38667  Biso   1.000  N
  C221     1.0000 0.56930  0.89800  0.38464  Biso   1.000  C
  C222     1.0000 0.55580  0.92041  0.39392  Biso   1.000  C
  H191     1.0000 0.53770  0.92240  0.39480  Biso   1.000  H
  C223     1.0000 0.57470  0.93921  0.40169  Biso   1.000  C
  H192     1.0000 0.57120  0.95570  0.40850  Biso   1.000  H
  C224     1.0000 0.59988  0.92842  0.39720  Biso   1.000  C
  C225     1.0000 0.62491  0.93859  0.40140  Biso   1.000  C
  N22      1.0000 0.65328  0.90283  0.38659  Biso   1.000  N
  C226     1.0000 0.64980  0.92829  0.39710  Biso   1.000  C
  C227     1.0000 0.67492  0.93922  0.40159  Biso   1.000  C
  H193     1.0000 0.67830  0.95570  0.40840  Biso   1.000  H
  C228     1.0000 0.69393  0.92052  0.39386  Biso   1.000  C
  H194     1.0000 0.71200  0.92260  0.39470  Biso   1.000  H
  C229     1.0000 0.68055  0.89803  0.38458  Biso   1.000  C
  C230     1.0000 0.51525  0.89030  0.35720  Biso   1.000  C
  H195     1.0000 0.52430  0.90050  0.34520  Biso   1.000  H
  C231     1.0000 0.48807  0.89020  0.35730  Biso   1.000  C
  H196     1.0000 0.47890  0.90040  0.34530  Biso   1.000  H
  O21      1.0000 0.43301  0.88930  0.35930  Biso   1.000  O
  C232     1.0000 0.73441  0.86290  0.39520  Biso   1.000  C
  H197     1.0000 0.72530  0.85480  0.40870  Biso   1.000  H
  C233     1.0000 0.76159  0.86280  0.39530  Biso   1.000  C
  H198     1.0000 0.77060  0.85470  0.40890  Biso   1.000  H
  O22      1.0000 0.81687  0.86080  0.39090  Biso   1.000  O
  C234     1.0000 0.62492  0.96565  0.41259  Biso   1.000  C
  C235     1.0000 0.62200  0.96930  0.43935  Biso   1.000  C
  C236     1.0000 0.62200  0.99440  0.44972  Biso   1.000  C
  H199     1.0000 0.62000  0.99690  0.46760  Biso   1.000  H
  C237     1.0000 0.62493  0.01590  0.43330  Biso   1.000  C
  C238     1.0000 0.62785  0.01224  0.40650  Biso   1.000  C
  H200     1.0000 0.62980  0.02660  0.39560  Biso   1.000  H
  C239     1.0000 0.62784  0.98710  0.39617  Biso   1.000  C
  C240     1.0000 0.61883  0.94600  0.45718  Biso   1.000  C
  H201     1.0000 0.61710  0.95190  0.47490  Biso   1.000  H
  H202     1.0000 0.63390  0.93490  0.45570  Biso   1.000  H
  H203     1.0000 0.60350  0.93640  0.45220  Biso   1.000  H
  C241     1.0000 0.62494  0.04320  0.44460  Biso   1.000  C
  H204     1.0000 0.62280  0.04230  0.46320  Biso   1.000  H
  H205     1.0000 0.61080  0.05310  0.43710  Biso   1.000  H
  H206     1.0000 0.64130  0.05160  0.44060  Biso   1.000  H
  C242     1.0000 0.63101  0.98320  0.36709  Biso   1.000  C
  H207     1.0000 0.63280  0.99980  0.35870  Biso   1.000  H
  H208     1.0000 0.61590  0.97430  0.36030  Biso   1.000  H
  H209     1.0000 0.64630  0.97280  0.36380  Biso   1.000  H
  Zn12     1.0000 0.62485  0.37070  0.88240  Biso   1.000  Zn
  N23      1.0000 0.59655  0.40295  0.88667  Biso   1.000  N
  C243     1.0000 0.56930  0.39800  0.88464  Biso   1.000  C
  C244     1.0000 0.55580  0.42041  0.89392  Biso   1.000  C
  H210     1.0000 0.53770  0.42240  0.89480  Biso   1.000  H
  C245     1.0000 0.57470  0.43921  0.90169  Biso   1.000  C
  H211     1.0000 0.57120  0.45570  0.90850  Biso   1.000  H
  C246     1.0000 0.59988  0.42842  0.89720  Biso   1.000  C
  C247     1.0000 0.62491  0.43859  0.90140  Biso   1.000  C
  N24      1.0000 0.65328  0.40283  0.88659  Biso   1.000  N
  C248     1.0000 0.64980  0.42829  0.89710  Biso   1.000  C
  C249     1.0000 0.67492  0.43922  0.90159  Biso   1.000  C
  H212     1.0000 0.67830  0.45570  0.90840  Biso   1.000  H
  C250     1.0000 0.69393  0.42052  0.89386  Biso   1.000  C
  H213     1.0000 0.71200  0.42260  0.89470  Biso   1.000  H
  C251     1.0000 0.68055  0.39803  0.88458  Biso   1.000  C
  C252     1.0000 0.51525  0.39030  0.85720  Biso   1.000  C
  H214     1.0000 0.52430  0.40050  0.84520  Biso   1.000  H
  C253     1.0000 0.48807  0.39020  0.85730  Biso   1.000  C
  H215     1.0000 0.47890  0.40040  0.84530  Biso   1.000  H
  O23      1.0000 0.43301  0.38930  0.85930  Biso   1.000  O
  C254     1.0000 0.73441  0.36290  0.89520  Biso   1.000  C
  H216     1.0000 0.72530  0.35480  0.90870  Biso   1.000  H
  C255     1.0000 0.76159  0.36280  0.89530  Biso   1.000  C
  H217     1.0000 0.77060  0.35470  0.90890  Biso   1.000  H
  O24      1.0000 0.81687  0.36080  0.89090  Biso   1.000  O
  C256     1.0000 0.62492  0.46565  0.91259  Biso   1.000  C
  C257     1.0000 0.62200  0.46930  0.93935  Biso   1.000  C
  C258     1.0000 0.62200  0.49440  0.94972  Biso   1.000  C
  H218     1.0000 0.62000  0.49690  0.96760  Biso   1.000  H
  C259     1.0000 0.62493  0.51590  0.93330  Biso   1.000  C
  C260     1.0000 0.62785  0.51224  0.90650  Biso   1.000  C
  H219     1.0000 0.62980  0.52660  0.89560  Biso   1.000  H
  C261     1.0000 0.62784  0.48710  0.89617  Biso   1.000  C
  C262     1.0000 0.61883  0.44600  0.95718  Biso   1.000  C
  H220     1.0000 0.61710  0.45190  0.97490  Biso   1.000  H
  H221     1.0000 0.63390  0.43490  0.95570  Biso   1.000  H
  H222     1.0000 0.60350  0.43640  0.95220  Biso   1.000  H
  C263     1.0000 0.62494  0.54320  0.94460  Biso   1.000  C
  H223     1.0000 0.62280  0.54230  0.96320  Biso   1.000  H
  H224     1.0000 0.61080  0.55310  0.93710  Biso   1.000  H
  H225     1.0000 0.64130  0.55160  0.94060  Biso   1.000  H
  C264     1.0000 0.63101  0.48320  0.86709  Biso   1.000  C
  H226     1.0000 0.63280  0.49980  0.85870  Biso   1.000  H
  H227     1.0000 0.61590  0.47430  0.86030  Biso   1.000  H
  H228     1.0000 0.64630  0.47280  0.86380  Biso   1.000  H
  Zn13     1.0000 0.12515  0.37930  0.88240  Biso   1.000  Zn
  N25      1.0000 0.15345  0.34705  0.88667  Biso   1.000  N
  C265     1.0000 0.18070  0.35200  0.88464  Biso   1.000  C
  C266     1.0000 0.19420  0.32959  0.89392  Biso   1.000  C
  H229     1.0000 0.21230  0.32760  0.89480  Biso   1.000  H
  C267     1.0000 0.17530  0.31079  0.90169  Biso   1.000  C
  H230     1.0000 0.17880  0.29430  0.90850  Biso   1.000  H
  C268     1.0000 0.15012  0.32158  0.89720  Biso   1.000  C
  C269     1.0000 0.12509  0.31141  0.90140  Biso   1.000  C
  N26      1.0000 0.09672  0.34717  0.88659  Biso   1.000  N
  C270     1.0000 0.10020  0.32171  0.89710  Biso   1.000  C
  C271     1.0000 0.07508  0.31078  0.90159  Biso   1.000  C
  H231     1.0000 0.07170  0.29430  0.90840  Biso   1.000  H
  C272     1.0000 0.05607  0.32948  0.89386  Biso   1.000  C
  H232     1.0000 0.03800  0.32740  0.89470  Biso   1.000  H
  C273     1.0000 0.06945  0.35197  0.88458  Biso   1.000  C
  C274     1.0000 0.23475  0.35970  0.85720  Biso   1.000  C
  H233     1.0000 0.22570  0.34950  0.84520  Biso   1.000  H
  C275     1.0000 0.26193  0.35980  0.85730  Biso   1.000  C
  H234     1.0000 0.27110  0.34960  0.84530  Biso   1.000  H
  O25      1.0000 0.31699  0.36070  0.85930  Biso   1.000  O
  C276     1.0000 0.01559  0.38710  0.89520  Biso   1.000  C
  H235     1.0000 0.02470  0.39520  0.90870  Biso   1.000  H
  C277     1.0000 0.98841  0.38720  0.89530  Biso   1.000  C
  H236     1.0000 0.97940  0.39530  0.90890  Biso   1.000  H
  O26      1.0000 0.93313  0.38920  0.89090  Biso   1.000  O
  C278     1.0000 0.12508  0.28435  0.91259  Biso   1.000  C
  C279     1.0000 0.12800  0.28070  0.93935  Biso   1.000  C
  C280     1.0000 0.12800  0.25560  0.94972  Biso   1.000  C
  H237     1.0000 0.13000  0.25310  0.96760  Biso   1.000  H
  C281     1.0000 0.12507  0.23410  0.93330  Biso   1.000  C
  C282     1.0000 0.12215  0.23776  0.90650  Biso   1.000  C
  H238     1.0000 0.12020  0.22340  0.89560  Biso   1.000  H
  C283     1.0000 0.12216  0.26290  0.89617  Biso   1.000  C
  C284     1.0000 0.13117  0.30400  0.95718  Biso   1.000  C
  H239     1.0000 0.13290  0.29810  0.97490  Biso   1.000  H
  H240     1.0000 0.11610  0.31510  0.95570  Biso   1.000  H
  H241     1.0000 0.14650  0.31360  0.95220  Biso   1.000  H
  C285     1.0000 0.12506  0.20680  0.94460  Biso   1.000  C
  H242     1.0000 0.12720  0.20770  0.96320  Biso   1.000  H
  H243     1.0000 0.13920  0.19690  0.93710  Biso   1.000  H
  H244     1.0000 0.10870  0.19840  0.94060  Biso   1.000  H
  C286     1.0000 0.11899  0.26680  0.86709  Biso   1.000  C
  H245     1.0000 0.11720  0.25020  0.85870  Biso   1.000  H
  H246     1.0000 0.13410  0.27570  0.86030  Biso   1.000  H
  H247     1.0000 0.10370  0.27720  0.86380  Biso   1.000  H
  Zn14     1.0000 0.12515  0.87930  0.38240  Biso   1.000  Zn
  N27      1.0000 0.15345  0.84705  0.38667  Biso   1.000  N
  C287     1.0000 0.18070  0.85200  0.38464  Biso   1.000  C
  C288     1.0000 0.19420  0.82959  0.39392  Biso   1.000  C
  H248     1.0000 0.21230  0.82760  0.39480  Biso   1.000  H
  C289     1.0000 0.17530  0.81079  0.40169  Biso   1.000  C
  H249     1.0000 0.17880  0.79430  0.40850  Biso   1.000  H
  C290     1.0000 0.15012  0.82158  0.39720  Biso   1.000  C
  C291     1.0000 0.12509  0.81141  0.40140  Biso   1.000  C
  N28      1.0000 0.09672  0.84717  0.38659  Biso   1.000  N
  C292     1.0000 0.10020  0.82171  0.39710  Biso   1.000  C
  C293     1.0000 0.07508  0.81078  0.40159  Biso   1.000  C
  H250     1.0000 0.07170  0.79430  0.40840  Biso   1.000  H
  C294     1.0000 0.05607  0.82948  0.39386  Biso   1.000  C
  H251     1.0000 0.03800  0.82740  0.39470  Biso   1.000  H
  C295     1.0000 0.06945  0.85197  0.38458  Biso   1.000  C
  C296     1.0000 0.23475  0.85970  0.35720  Biso   1.000  C
  H252     1.0000 0.22570  0.84950  0.34520  Biso   1.000  H
  C297     1.0000 0.26193  0.85980  0.35730  Biso   1.000  C
  H253     1.0000 0.27110  0.84960  0.34530  Biso   1.000  H
  O27      1.0000 0.31699  0.86070  0.35930  Biso   1.000  O
  C298     1.0000 0.01559  0.88710  0.39520  Biso   1.000  C
  H254     1.0000 0.02470  0.89520  0.40870  Biso   1.000  H
  C299     1.0000 0.98841  0.88720  0.39530  Biso   1.000  C
  H255     1.0000 0.97940  0.89530  0.40890  Biso   1.000  H
  O28      1.0000 0.93313  0.88920  0.39090  Biso   1.000  O
  C300     1.0000 0.12508  0.78435  0.41259  Biso   1.000  C
  C301     1.0000 0.12800  0.78070  0.43935  Biso   1.000  C
  C302     1.0000 0.12800  0.75560  0.44972  Biso   1.000  C
  H256     1.0000 0.13000  0.75310  0.46760  Biso   1.000  H
  C303     1.0000 0.12507  0.73410  0.43330  Biso   1.000  C
  C304     1.0000 0.12215  0.73776  0.40650  Biso   1.000  C
  H257     1.0000 0.12020  0.72340  0.39560  Biso   1.000  H
  C305     1.0000 0.12216  0.76290  0.39617  Biso   1.000  C
  C306     1.0000 0.13117  0.80400  0.45718  Biso   1.000  C
  H258     1.0000 0.13290  0.79810  0.47490  Biso   1.000  H
  H259     1.0000 0.11610  0.81510  0.45570  Biso   1.000  H
  H260     1.0000 0.14650  0.81360  0.45220  Biso   1.000  H
  C307     1.0000 0.12506  0.70680  0.44460  Biso   1.000  C
  H261     1.0000 0.12720  0.70770  0.46320  Biso   1.000  H
  H262     1.0000 0.13920  0.69690  0.43710  Biso   1.000  H
  H263     1.0000 0.10870  0.69840  0.44060  Biso   1.000  H
  C308     1.0000 0.11899  0.76680  0.36709  Biso   1.000  C
  H264     1.0000 0.11720  0.75020  0.35870  Biso   1.000  H
  H265     1.0000 0.13410  0.77570  0.36030  Biso   1.000  H
  H266     1.0000 0.10370  0.77720  0.36380  Biso   1.000  H
  Zn15     1.0000 0.62515  0.37930  0.38240  Biso   1.000  Zn
  N29      1.0000 0.65345  0.34705  0.38667  Biso   1.000  N
  C309     1.0000 0.68070  0.35200  0.38464  Biso   1.000  C
  C310     1.0000 0.69420  0.32959  0.39392  Biso   1.000  C
  H267     1.0000 0.71230  0.32760  0.39480  Biso   1.000  H
  C311     1.0000 0.67530  0.31079  0.40169  Biso   1.000  C
  H268     1.0000 0.67880  0.29430  0.40850  Biso   1.000  H
  C312     1.0000 0.65012  0.32158  0.39720  Biso   1.000  C
  C313     1.0000 0.62509  0.31141  0.40140  Biso   1.000  C
  N30      1.0000 0.59672  0.34717  0.38659  Biso   1.000  N
  C314     1.0000 0.60020  0.32171  0.39710  Biso   1.000  C
  C315     1.0000 0.57508  0.31078  0.40159  Biso   1.000  C
  H269     1.0000 0.57170  0.29430  0.40840  Biso   1.000  H
  C316     1.0000 0.55607  0.32948  0.39386  Biso   1.000  C
  H270     1.0000 0.53800  0.32740  0.39470  Biso   1.000  H
  C317     1.0000 0.56945  0.35197  0.38458  Biso   1.000  C
  C318     1.0000 0.73475  0.35970  0.35720  Biso   1.000  C
  H271     1.0000 0.72570  0.34950  0.34520  Biso   1.000  H
  C319     1.0000 0.76193  0.35980  0.35730  Biso   1.000  C
  H272     1.0000 0.77110  0.34960  0.34530  Biso   1.000  H
  O29      1.0000 0.81699  0.36070  0.35930  Biso   1.000  O
  C320     1.0000 0.51559  0.38710  0.39520  Biso   1.000  C
  H273     1.0000 0.52470  0.39520  0.40870  Biso   1.000  H
  C321     1.0000 0.48841  0.38720  0.39530  Biso   1.000  C
  H274     1.0000 0.47940  0.39530  0.40890  Biso   1.000  H
  O30      1.0000 0.43313  0.38920  0.39090  Biso   1.000  O
  C322     1.0000 0.62508  0.28435  0.41259  Biso   1.000  C
  C323     1.0000 0.62800  0.28070  0.43935  Biso   1.000  C
  C324     1.0000 0.62800  0.25560  0.44972  Biso   1.000  C
  H275     1.0000 0.63000  0.25310  0.46760  Biso   1.000  H
  C325     1.0000 0.62507  0.23410  0.43330  Biso   1.000  C
  C326     1.0000 0.62215  0.23776  0.40650  Biso   1.000  C
  H276     1.0000 0.62020  0.22340  0.39560  Biso   1.000  H
  C327     1.0000 0.62216  0.26290  0.39617  Biso   1.000  C
  C328     1.0000 0.63117  0.30400  0.45718  Biso   1.000  C
  H277     1.0000 0.63290  0.29810  0.47490  Biso   1.000  H
  H278     1.0000 0.61610  0.31510  0.45570  Biso   1.000  H
  H279     1.0000 0.64650  0.31360  0.45220  Biso   1.000  H
  C329     1.0000 0.62506  0.20680  0.44460  Biso   1.000  C
  H280     1.0000 0.62720  0.20770  0.46320  Biso   1.000  H
  H281     1.0000 0.63920  0.19690  0.43710  Biso   1.000  H
  H282     1.0000 0.60870  0.19840  0.44060  Biso   1.000  H
  C330     1.0000 0.61899  0.26680  0.36709  Biso   1.000  C
  H283     1.0000 0.61720  0.25020  0.35870  Biso   1.000  H
  H284     1.0000 0.63410  0.27570  0.36030  Biso   1.000  H
  H285     1.0000 0.60370  0.27720  0.36380  Biso   1.000  H
  Zn16     1.0000 0.62515  0.87930  0.88240  Biso   1.000  Zn
  N31      1.0000 0.65345  0.84705  0.88667  Biso   1.000  N
  C331     1.0000 0.68070  0.85200  0.88464  Biso   1.000  C
  C332     1.0000 0.69420  0.82959  0.89392  Biso   1.000  C
  H286     1.0000 0.71230  0.82760  0.89480  Biso   1.000  H
  C333     1.0000 0.67530  0.81079  0.90169  Biso   1.000  C
  H287     1.0000 0.67880  0.79430  0.90850  Biso   1.000  H
  C334     1.0000 0.65012  0.82158  0.89720  Biso   1.000  C
  C335     1.0000 0.62509  0.81141  0.90140  Biso   1.000  C
  N32      1.0000 0.59672  0.84717  0.88659  Biso   1.000  N
  C336     1.0000 0.60020  0.82171  0.89710  Biso   1.000  C
  C337     1.0000 0.57508  0.81078  0.90159  Biso   1.000  C
  H288     1.0000 0.57170  0.79430  0.90840  Biso   1.000  H
  C338     1.0000 0.55607  0.82948  0.89386  Biso   1.000  C
  H289     1.0000 0.53800  0.82740  0.89470  Biso   1.000  H
  C339     1.0000 0.56945  0.85197  0.88458  Biso   1.000  C
  C340     1.0000 0.73475  0.85970  0.85720  Biso   1.000  C
  H290     1.0000 0.72570  0.84950  0.84520  Biso   1.000  H
  C341     1.0000 0.76193  0.85980  0.85730  Biso   1.000  C
  H291     1.0000 0.77110  0.84960  0.84530  Biso   1.000  H
  O31      1.0000 0.81699  0.86070  0.85930  Biso   1.000  O
  C342     1.0000 0.51559  0.88710  0.89520  Biso   1.000  C
  H292     1.0000 0.52470  0.89520  0.90870  Biso   1.000  H
  C343     1.0000 0.48841  0.88720  0.89530  Biso   1.000  C
  H293     1.0000 0.47940  0.89530  0.90890  Biso   1.000  H
  O32      1.0000 0.43313  0.88920  0.89090  Biso   1.000  O
  C344     1.0000 0.62508  0.78435  0.91259  Biso   1.000  C
  C345     1.0000 0.62800  0.78070  0.93935  Biso   1.000  C
  C346     1.0000 0.62800  0.75560  0.94972  Biso   1.000  C
  H294     1.0000 0.63000  0.75310  0.96760  Biso   1.000  H
  C347     1.0000 0.62507  0.73410  0.93330  Biso   1.000  C
  C348     1.0000 0.62215  0.73776  0.90650  Biso   1.000  C
  H295     1.0000 0.62020  0.72340  0.89560  Biso   1.000  H
  C349     1.0000 0.62216  0.76290  0.89617  Biso   1.000  C
  C350     1.0000 0.63117  0.80400  0.95718  Biso   1.000  C
  H296     1.0000 0.63290  0.79810  0.97490  Biso   1.000  H
  H297     1.0000 0.61610  0.81510  0.95570  Biso   1.000  H
  H298     1.0000 0.64650  0.81360  0.95220  Biso   1.000  H
  C351     1.0000 0.62506  0.70680  0.94460  Biso   1.000  C
  H299     1.0000 0.62720  0.70770  0.96320  Biso   1.000  H
  H300     1.0000 0.63920  0.69690  0.93710  Biso   1.000  H
  H301     1.0000 0.60870  0.69840  0.94060  Biso   1.000  H
  C352     1.0000 0.61899  0.76680  0.86709  Biso   1.000  C
  H302     1.0000 0.61720  0.75020  0.85870  Biso   1.000  H
  H303     1.0000 0.63410  0.77570  0.86030  Biso   1.000  H
  H304     1.0000 0.60370  0.77720  0.86380  Biso   1.000  H
  Zn17     1.0000 0.36760  0.12515  0.87070  Biso   1.000  Zn
  N33      1.0000 0.36333  0.15345  0.90295  Biso   1.000  N
  C353     1.0000 0.36536  0.18070  0.89800  Biso   1.000  C
  C354     1.0000 0.35608  0.19420  0.92041  Biso   1.000  C
  H305     1.0000 0.35520  0.21230  0.92240  Biso   1.000  H
  C355     1.0000 0.34831  0.17530  0.93921  Biso   1.000  C
  H306     1.0000 0.34150  0.17880  0.95570  Biso   1.000  H
  C356     1.0000 0.35280  0.15012  0.92842  Biso   1.000  C
  C357     1.0000 0.34860  0.12509  0.93859  Biso   1.000  C
  N34      1.0000 0.36341  0.09672  0.90283  Biso   1.000  N
  C358     1.0000 0.35290  0.10020  0.92829  Biso   1.000  C
  C359     1.0000 0.34841  0.07508  0.93922  Biso   1.000  C
  H307     1.0000 0.34160  0.07170  0.95570  Biso   1.000  H
  C360     1.0000 0.35614  0.05607  0.92052  Biso   1.000  C
  H308     1.0000 0.35530  0.03800  0.92260  Biso   1.000  H
  C361     1.0000 0.36542  0.06945  0.89803  Biso   1.000  C
  C362     1.0000 0.39280  0.23475  0.89030  Biso   1.000  C
  H309     1.0000 0.40480  0.22570  0.90050  Biso   1.000  H
  C363     1.0000 0.39270  0.26193  0.89020  Biso   1.000  C
  H310     1.0000 0.40470  0.27110  0.90040  Biso   1.000  H
  O33      1.0000 0.39070  0.31699  0.88930  Biso   1.000  O
  C364     1.0000 0.35480  0.01559  0.86290  Biso   1.000  C
  H311     1.0000 0.34130  0.02470  0.85480  Biso   1.000  H
  C365     1.0000 0.35470  0.98841  0.86280  Biso   1.000  C
  H312     1.0000 0.34110  0.97940  0.85470  Biso   1.000  H
  O34      1.0000 0.35910  0.93313  0.86080  Biso   1.000  O
  C366     1.0000 0.33741  0.12508  0.96565  Biso   1.000  C
  C367     1.0000 0.31065  0.12800  0.96930  Biso   1.000  C
  C368     1.0000 0.30028  0.12800  0.99440  Biso   1.000  C
  H313     1.0000 0.28240  0.13000  0.99690  Biso   1.000  H
  C369     1.0000 0.31670  0.12507  0.01590  Biso   1.000  C
  C370     1.0000 0.34350  0.12215  0.01224  Biso   1.000  C
  H314     1.0000 0.35440  0.12020  0.02660  Biso   1.000  H
  C371     1.0000 0.35383  0.12216  0.98710  Biso   1.000  C
  C372     1.0000 0.29282  0.13117  0.94600  Biso   1.000  C
  H315     1.0000 0.27510  0.13290  0.95190  Biso   1.000  H
  H316     1.0000 0.29430  0.11610  0.93490  Biso   1.000  H
  H317     1.0000 0.29780  0.14650  0.93640  Biso   1.000  H
  C373     1.0000 0.30540  0.12506  0.04320  Biso   1.000  C
  H318     1.0000 0.28680  0.12720  0.04230  Biso   1.000  H
  H319     1.0000 0.31290  0.13920  0.05310  Biso   1.000  H
  H320     1.0000 0.30940  0.10870  0.05160  Biso   1.000  H
  C374     1.0000 0.38291  0.11899  0.98320  Biso   1.000  C
  H321     1.0000 0.39130  0.11720  0.99980  Biso   1.000  H
  H322     1.0000 0.38970  0.13410  0.97430  Biso   1.000  H
  H323     1.0000 0.38620  0.10370  0.97280  Biso   1.000  H
  Zn18     1.0000 0.36760  0.62515  0.37070  Biso   1.000  Zn
  N35      1.0000 0.36333  0.65345  0.40295  Biso   1.000  N
  C375     1.0000 0.36536  0.68070  0.39800  Biso   1.000  C
  C376     1.0000 0.35608  0.69420  0.42041  Biso   1.000  C
  H324     1.0000 0.35520  0.71230  0.42240  Biso   1.000  H
  C377     1.0000 0.34831  0.67530  0.43921  Biso   1.000  C
  H325     1.0000 0.34150  0.67880  0.45570  Biso   1.000  H
  C378     1.0000 0.35280  0.65012  0.42842  Biso   1.000  C
  C379     1.0000 0.34860  0.62509  0.43859  Biso   1.000  C
  N36      1.0000 0.36341  0.59672  0.40283  Biso   1.000  N
  C380     1.0000 0.35290  0.60020  0.42829  Biso   1.000  C
  C381     1.0000 0.34841  0.57508  0.43922  Biso   1.000  C
  H326     1.0000 0.34160  0.57170  0.45570  Biso   1.000  H
  C382     1.0000 0.35614  0.55607  0.42052  Biso   1.000  C
  H327     1.0000 0.35530  0.53800  0.42260  Biso   1.000  H
  C383     1.0000 0.36542  0.56945  0.39803  Biso   1.000  C
  C384     1.0000 0.39280  0.73475  0.39030  Biso   1.000  C
  H328     1.0000 0.40480  0.72570  0.40050  Biso   1.000  H
  C385     1.0000 0.39270  0.76193  0.39020  Biso   1.000  C
  H329     1.0000 0.40470  0.77110  0.40040  Biso   1.000  H
  O35      1.0000 0.39070  0.81699  0.38930  Biso   1.000  O
  C386     1.0000 0.35480  0.51559  0.36290  Biso   1.000  C
  H330     1.0000 0.34130  0.52470  0.35480  Biso   1.000  H
  C387     1.0000 0.35470  0.48841  0.36280  Biso   1.000  C
  H331     1.0000 0.34110  0.47940  0.35470  Biso   1.000  H
  O36      1.0000 0.35910  0.43313  0.36080  Biso   1.000  O
  C388     1.0000 0.33741  0.62508  0.46565  Biso   1.000  C
  C389     1.0000 0.31065  0.62800  0.46930  Biso   1.000  C
  C390     1.0000 0.30028  0.62800  0.49440  Biso   1.000  C
  H332     1.0000 0.28240  0.63000  0.49690  Biso   1.000  H
  C391     1.0000 0.31670  0.62507  0.51590  Biso   1.000  C
  C392     1.0000 0.34350  0.62215  0.51224  Biso   1.000  C
  H333     1.0000 0.35440  0.62020  0.52660  Biso   1.000  H
  C393     1.0000 0.35383  0.62216  0.48710  Biso   1.000  C
  C394     1.0000 0.29282  0.63117  0.44600  Biso   1.000  C
  H334     1.0000 0.27510  0.63290  0.45190  Biso   1.000  H
  H335     1.0000 0.29430  0.61610  0.43490  Biso   1.000  H
  H336     1.0000 0.29780  0.64650  0.43640  Biso   1.000  H
  C395     1.0000 0.30540  0.62506  0.54320  Biso   1.000  C
  H337     1.0000 0.28680  0.62720  0.54230  Biso   1.000  H
  H338     1.0000 0.31290  0.63920  0.55310  Biso   1.000  H
  H339     1.0000 0.30940  0.60870  0.55160  Biso   1.000  H
  C396     1.0000 0.38291  0.61899  0.48320  Biso   1.000  C
  H340     1.0000 0.39130  0.61720  0.49980  Biso   1.000  H
  H341     1.0000 0.38970  0.63410  0.47430  Biso   1.000  H
  H342     1.0000 0.38620  0.60370  0.47280  Biso   1.000  H
  Zn19     1.0000 0.86760  0.12515  0.37070  Biso   1.000  Zn
  N37      1.0000 0.86333  0.15345  0.40295  Biso   1.000  N
  C397     1.0000 0.86536  0.18070  0.39800  Biso   1.000  C
  C398     1.0000 0.85608  0.19420  0.42041  Biso   1.000  C
  H343     1.0000 0.85520  0.21230  0.42240  Biso   1.000  H
  C399     1.0000 0.84831  0.17530  0.43921  Biso   1.000  C
  H344     1.0000 0.84150  0.17880  0.45570  Biso   1.000  H
  C400     1.0000 0.85280  0.15012  0.42842  Biso   1.000  C
  C401     1.0000 0.84860  0.12509  0.43859  Biso   1.000  C
  N38      1.0000 0.86341  0.09672  0.40283  Biso   1.000  N
  C402     1.0000 0.85290  0.10020  0.42829  Biso   1.000  C
  C403     1.0000 0.84841  0.07508  0.43922  Biso   1.000  C
  H345     1.0000 0.84160  0.07170  0.45570  Biso   1.000  H
  C404     1.0000 0.85614  0.05607  0.42052  Biso   1.000  C
  H346     1.0000 0.85530  0.03800  0.42260  Biso   1.000  H
  C405     1.0000 0.86542  0.06945  0.39803  Biso   1.000  C
  C406     1.0000 0.89280  0.23475  0.39030  Biso   1.000  C
  H347     1.0000 0.90480  0.22570  0.40050  Biso   1.000  H
  C407     1.0000 0.89270  0.26193  0.39020  Biso   1.000  C
  H348     1.0000 0.90470  0.27110  0.40040  Biso   1.000  H
  O37      1.0000 0.89070  0.31699  0.38930  Biso   1.000  O
  C408     1.0000 0.85480  0.01559  0.36290  Biso   1.000  C
  H349     1.0000 0.84130  0.02470  0.35480  Biso   1.000  H
  C409     1.0000 0.85470  0.98841  0.36280  Biso   1.000  C
  H350     1.0000 0.84110  0.97940  0.35470  Biso   1.000  H
  O38      1.0000 0.85910  0.93313  0.36080  Biso   1.000  O
  C410     1.0000 0.83741  0.12508  0.46565  Biso   1.000  C
  C411     1.0000 0.81065  0.12800  0.46930  Biso   1.000  C
  C412     1.0000 0.80028  0.12800  0.49440  Biso   1.000  C
  H351     1.0000 0.78240  0.13000  0.49690  Biso   1.000  H
  C413     1.0000 0.81670  0.12507  0.51590  Biso   1.000  C
  C414     1.0000 0.84350  0.12215  0.51224  Biso   1.000  C
  H352     1.0000 0.85440  0.12020  0.52660  Biso   1.000  H
  C415     1.0000 0.85383  0.12216  0.48710  Biso   1.000  C
  C416     1.0000 0.79282  0.13117  0.44600  Biso   1.000  C
  H353     1.0000 0.77510  0.13290  0.45190  Biso   1.000  H
  H354     1.0000 0.79430  0.11610  0.43490  Biso   1.000  H
  H355     1.0000 0.79780  0.14650  0.43640  Biso   1.000  H
  C417     1.0000 0.80540  0.12506  0.54320  Biso   1.000  C
  H356     1.0000 0.78680  0.12720  0.54230  Biso   1.000  H
  H357     1.0000 0.81290  0.13920  0.55310  Biso   1.000  H
  H358     1.0000 0.80940  0.10870  0.55160  Biso   1.000  H
  C418     1.0000 0.88291  0.11899  0.48320  Biso   1.000  C
  H359     1.0000 0.89130  0.11720  0.49980  Biso   1.000  H
  H360     1.0000 0.88970  0.13410  0.47430  Biso   1.000  H
  H361     1.0000 0.88620  0.10370  0.47280  Biso   1.000  H
  Zn20     1.0000 0.86760  0.62515  0.87070  Biso   1.000  Zn
  N39      1.0000 0.86333  0.65345  0.90295  Biso   1.000  N
  C419     1.0000 0.86536  0.68070  0.89800  Biso   1.000  C
  C420     1.0000 0.85608  0.69420  0.92041  Biso   1.000  C
  H362     1.0000 0.85520  0.71230  0.92240  Biso   1.000  H
  C421     1.0000 0.84831  0.67530  0.93921  Biso   1.000  C
  H363     1.0000 0.84150  0.67880  0.95570  Biso   1.000  H
  C422     1.0000 0.85280  0.65012  0.92842  Biso   1.000  C
  C423     1.0000 0.84860  0.62509  0.93859  Biso   1.000  C
  N40      1.0000 0.86341  0.59672  0.90283  Biso   1.000  N
  C424     1.0000 0.85290  0.60020  0.92829  Biso   1.000  C
  C425     1.0000 0.84841  0.57508  0.93922  Biso   1.000  C
  H364     1.0000 0.84160  0.57170  0.95570  Biso   1.000  H
  C426     1.0000 0.85614  0.55607  0.92052  Biso   1.000  C
  H365     1.0000 0.85530  0.53800  0.92260  Biso   1.000  H
  C427     1.0000 0.86542  0.56945  0.89803  Biso   1.000  C
  C428     1.0000 0.89280  0.73475  0.89030  Biso   1.000  C
  H366     1.0000 0.90480  0.72570  0.90050  Biso   1.000  H
  C429     1.0000 0.89270  0.76193  0.89020  Biso   1.000  C
  H367     1.0000 0.90470  0.77110  0.90040  Biso   1.000  H
  O39      1.0000 0.89070  0.81699  0.88930  Biso   1.000  O
  C430     1.0000 0.85480  0.51559  0.86290  Biso   1.000  C
  H368     1.0000 0.84130  0.52470  0.85480  Biso   1.000  H
  C431     1.0000 0.85470  0.48841  0.86280  Biso   1.000  C
  H369     1.0000 0.84110  0.47940  0.85470  Biso   1.000  H
  O40      1.0000 0.85910  0.43313  0.86080  Biso   1.000  O
  C432     1.0000 0.83741  0.62508  0.96565  Biso   1.000  C
  C433     1.0000 0.81065  0.62800  0.96930  Biso   1.000  C
  C434     1.0000 0.80028  0.62800  0.99440  Biso   1.000  C
  H370     1.0000 0.78240  0.63000  0.99690  Biso   1.000  H
  C435     1.0000 0.81670  0.62507  0.01590  Biso   1.000  C
  C436     1.0000 0.84350  0.62215  0.01224  Biso   1.000  C
  H371     1.0000 0.85440  0.62020  0.02660  Biso   1.000  H
  C437     1.0000 0.85383  0.62216  0.98710  Biso   1.000  C
  C438     1.0000 0.79282  0.63117  0.94600  Biso   1.000  C
  H372     1.0000 0.77510  0.63290  0.95190  Biso   1.000  H
  H373     1.0000 0.79430  0.61610  0.93490  Biso   1.000  H
  H374     1.0000 0.79780  0.64650  0.93640  Biso   1.000  H
  C439     1.0000 0.80540  0.62506  0.04320  Biso   1.000  C
  H375     1.0000 0.78680  0.62720  0.04230  Biso   1.000  H
  H376     1.0000 0.81290  0.63920  0.05310  Biso   1.000  H
  H377     1.0000 0.80940  0.60870  0.05160  Biso   1.000  H
  C440     1.0000 0.88291  0.61899  0.98320  Biso   1.000  C
  H378     1.0000 0.89130  0.61720  0.99980  Biso   1.000  H
  H379     1.0000 0.88970  0.63410  0.97430  Biso   1.000  H
  H380     1.0000 0.88620  0.60370  0.97280  Biso   1.000  H
  Zn21     1.0000 0.36760  0.12485  0.37930  Biso   1.000  Zn
  N41      1.0000 0.36333  0.09655  0.34705  Biso   1.000  N
  C441     1.0000 0.36536  0.06930  0.35200  Biso   1.000  C
  C442     1.0000 0.35608  0.05580  0.32959  Biso   1.000  C
  H381     1.0000 0.35520  0.03770  0.32760  Biso   1.000  H
  C443     1.0000 0.34831  0.07470  0.31079  Biso   1.000  C
  H382     1.0000 0.34150  0.07120  0.29430  Biso   1.000  H
  C444     1.0000 0.35280  0.09988  0.32158  Biso   1.000  C
  C445     1.0000 0.34860  0.12491  0.31141  Biso   1.000  C
  N42      1.0000 0.36341  0.15328  0.34717  Biso   1.000  N
  C446     1.0000 0.35290  0.14980  0.32171  Biso   1.000  C
  C447     1.0000 0.34841  0.17492  0.31078  Biso   1.000  C
  H383     1.0000 0.34160  0.17830  0.29430  Biso   1.000  H
  C448     1.0000 0.35614  0.19393  0.32948  Biso   1.000  C
  H384     1.0000 0.35530  0.21200  0.32740  Biso   1.000  H
  C449     1.0000 0.36542  0.18055  0.35197  Biso   1.000  C
  C450     1.0000 0.39280  0.01525  0.35970  Biso   1.000  C
  H385     1.0000 0.40480  0.02430  0.34950  Biso   1.000  H
  C451     1.0000 0.39270  0.98807  0.35980  Biso   1.000  C
  H386     1.0000 0.40470  0.97890  0.34960  Biso   1.000  H
  O41      1.0000 0.39070  0.93301  0.36070  Biso   1.000  O
  C452     1.0000 0.35480  0.23441  0.38710  Biso   1.000  C
  H387     1.0000 0.34130  0.22530  0.39520  Biso   1.000  H
  C453     1.0000 0.35470  0.26159  0.38720  Biso   1.000  C
  H388     1.0000 0.34110  0.27060  0.39530  Biso   1.000  H
  O42      1.0000 0.35910  0.31687  0.38920  Biso   1.000  O
  C454     1.0000 0.33741  0.12492  0.28435  Biso   1.000  C
  C455     1.0000 0.31065  0.12200  0.28070  Biso   1.000  C
  C456     1.0000 0.30028  0.12200  0.25560  Biso   1.000  C
  H389     1.0000 0.28240  0.12000  0.25310  Biso   1.000  H
  C457     1.0000 0.31670  0.12493  0.23410  Biso   1.000  C
  C458     1.0000 0.34350  0.12785  0.23776  Biso   1.000  C
  H390     1.0000 0.35440  0.12980  0.22340  Biso   1.000  H
  C459     1.0000 0.35383  0.12784  0.26290  Biso   1.000  C
  C460     1.0000 0.29282  0.11883  0.30400  Biso   1.000  C
  H391     1.0000 0.27510  0.11710  0.29810  Biso   1.000  H
  H392     1.0000 0.29430  0.13390  0.31510  Biso   1.000  H
  H393     1.0000 0.29780  0.10350  0.31360  Biso   1.000  H
  C461     1.0000 0.30540  0.12494  0.20680  Biso   1.000  C
  H394     1.0000 0.28680  0.12280  0.20770  Biso   1.000  H
  H395     1.0000 0.31290  0.11080  0.19690  Biso   1.000  H
  H396     1.0000 0.30940  0.14130  0.19840  Biso   1.000  H
  C462     1.0000 0.38291  0.13101  0.26680  Biso   1.000  C
  H397     1.0000 0.39130  0.13280  0.25020  Biso   1.000  H
  H398     1.0000 0.38970  0.11590  0.27570  Biso   1.000  H
  H399     1.0000 0.38620  0.14630  0.27720  Biso   1.000  H
  Zn22     1.0000 0.36760  0.62485  0.87930  Biso   1.000  Zn
  N43      1.0000 0.36333  0.59655  0.84705  Biso   1.000  N
  C463     1.0000 0.36536  0.56930  0.85200  Biso   1.000  C
  C464     1.0000 0.35608  0.55580  0.82959  Biso   1.000  C
  H400     1.0000 0.35520  0.53770  0.82760  Biso   1.000  H
  C465     1.0000 0.34831  0.57470  0.81079  Biso   1.000  C
  H401     1.0000 0.34150  0.57120  0.79430  Biso   1.000  H
  C466     1.0000 0.35280  0.59988  0.82158  Biso   1.000  C
  C467     1.0000 0.34860  0.62491  0.81141  Biso   1.000  C
  N44      1.0000 0.36341  0.65328  0.84717  Biso   1.000  N
  C468     1.0000 0.35290  0.64980  0.82171  Biso   1.000  C
  C469     1.0000 0.34841  0.67492  0.81078  Biso   1.000  C
  H402     1.0000 0.34160  0.67830  0.79430  Biso   1.000  H
  C470     1.0000 0.35614  0.69393  0.82948  Biso   1.000  C
  H403     1.0000 0.35530  0.71200  0.82740  Biso   1.000  H
  C471     1.0000 0.36542  0.68055  0.85197  Biso   1.000  C
  C472     1.0000 0.39280  0.51525  0.85970  Biso   1.000  C
  H404     1.0000 0.40480  0.52430  0.84950  Biso   1.000  H
  C473     1.0000 0.39270  0.48807  0.85980  Biso   1.000  C
  H405     1.0000 0.40470  0.47890  0.84960  Biso   1.000  H
  O43      1.0000 0.39070  0.43301  0.86070  Biso   1.000  O
  C474     1.0000 0.35480  0.73441  0.88710  Biso   1.000  C
  H406     1.0000 0.34130  0.72530  0.89520  Biso   1.000  H
  C475     1.0000 0.35470  0.76159  0.88720  Biso   1.000  C
  H407     1.0000 0.34110  0.77060  0.89530  Biso   1.000  H
  O44      1.0000 0.35910  0.81687  0.88920  Biso   1.000  O
  C476     1.0000 0.33741  0.62492  0.78435  Biso   1.000  C
  C477     1.0000 0.31065  0.62200  0.78070  Biso   1.000  C
  C478     1.0000 0.30028  0.62200  0.75560  Biso   1.000  C
  H408     1.0000 0.28240  0.62000  0.75310  Biso   1.000  H
  C479     1.0000 0.31670  0.62493  0.73410  Biso   1.000  C
  C480     1.0000 0.34350  0.62785  0.73776  Biso   1.000  C
  H409     1.0000 0.35440  0.62980  0.72340  Biso   1.000  H
  C481     1.0000 0.35383  0.62784  0.76290  Biso   1.000  C
  C482     1.0000 0.29282  0.61883  0.80400  Biso   1.000  C
  H410     1.0000 0.27510  0.61710  0.79810  Biso   1.000  H
  H411     1.0000 0.29430  0.63390  0.81510  Biso   1.000  H
  H412     1.0000 0.29780  0.60350  0.81360  Biso   1.000  H
  C483     1.0000 0.30540  0.62494  0.70680  Biso   1.000  C
  H413     1.0000 0.28680  0.62280  0.70770  Biso   1.000  H
  H414     1.0000 0.31290  0.61080  0.69690  Biso   1.000  H
  H415     1.0000 0.30940  0.64130  0.69840  Biso   1.000  H
  C484     1.0000 0.38291  0.63101  0.76680  Biso   1.000  C
  H416     1.0000 0.39130  0.63280  0.75020  Biso   1.000  H
  H417     1.0000 0.38970  0.61590  0.77570  Biso   1.000  H
  H418     1.0000 0.38620  0.64630  0.77720  Biso   1.000  H
  Zn23     1.0000 0.86760  0.12485  0.87930  Biso   1.000  Zn
  N45      1.0000 0.86333  0.09655  0.84705  Biso   1.000  N
  C485     1.0000 0.86536  0.06930  0.85200  Biso   1.000  C
  C486     1.0000 0.85608  0.05580  0.82959  Biso   1.000  C
  H419     1.0000 0.85520  0.03770  0.82760  Biso   1.000  H
  C487     1.0000 0.84831  0.07470  0.81079  Biso   1.000  C
  H420     1.0000 0.84150  0.07120  0.79430  Biso   1.000  H
  C488     1.0000 0.85280  0.09988  0.82158  Biso   1.000  C
  C489     1.0000 0.84860  0.12491  0.81141  Biso   1.000  C
  N46      1.0000 0.86341  0.15328  0.84717  Biso   1.000  N
  C490     1.0000 0.85290  0.14980  0.82171  Biso   1.000  C
  C491     1.0000 0.84841  0.17492  0.81078  Biso   1.000  C
  H421     1.0000 0.84160  0.17830  0.79430  Biso   1.000  H
  C492     1.0000 0.85614  0.19393  0.82948  Biso   1.000  C
  H422     1.0000 0.85530  0.21200  0.82740  Biso   1.000  H
  C493     1.0000 0.86542  0.18055  0.85197  Biso   1.000  C
  C494     1.0000 0.89280  0.01525  0.85970  Biso   1.000  C
  H423     1.0000 0.90480  0.02430  0.84950  Biso   1.000  H
  C495     1.0000 0.89270  0.98807  0.85980  Biso   1.000  C
  H424     1.0000 0.90470  0.97890  0.84960  Biso   1.000  H
  O45      1.0000 0.89070  0.93301  0.86070  Biso   1.000  O
  C496     1.0000 0.85480  0.23441  0.88710  Biso   1.000  C
  H425     1.0000 0.84130  0.22530  0.89520  Biso   1.000  H
  C497     1.0000 0.85470  0.26159  0.88720  Biso   1.000  C
  H426     1.0000 0.84110  0.27060  0.89530  Biso   1.000  H
  O46      1.0000 0.85910  0.31687  0.88920  Biso   1.000  O
  C498     1.0000 0.83741  0.12492  0.78435  Biso   1.000  C
  C499     1.0000 0.81065  0.12200  0.78070  Biso   1.000  C
  C500     1.0000 0.80028  0.12200  0.75560  Biso   1.000  C
  H427     1.0000 0.78240  0.12000  0.75310  Biso   1.000  H
  C501     1.0000 0.81670  0.12493  0.73410  Biso   1.000  C
  C502     1.0000 0.84350  0.12785  0.73776  Biso   1.000  C
  H428     1.0000 0.85440  0.12980  0.72340  Biso   1.000  H
  C503     1.0000 0.85383  0.12784  0.76290  Biso   1.000  C
  C504     1.0000 0.79282  0.11883  0.80400  Biso   1.000  C
  H429     1.0000 0.77510  0.11710  0.79810  Biso   1.000  H
  H430     1.0000 0.79430  0.13390  0.81510  Biso   1.000  H
  H431     1.0000 0.79780  0.10350  0.81360  Biso   1.000  H
  C505     1.0000 0.80540  0.12494  0.70680  Biso   1.000  C
  H432     1.0000 0.78680  0.12280  0.70770  Biso   1.000  H
  H433     1.0000 0.81290  0.11080  0.69690  Biso   1.000  H
  H434     1.0000 0.80940  0.14130  0.69840  Biso   1.000  H
  C506     1.0000 0.88291  0.13101  0.76680  Biso   1.000  C
  H435     1.0000 0.89130  0.13280  0.75020  Biso   1.000  H
  H436     1.0000 0.88970  0.11590  0.77570  Biso   1.000  H
  H437     1.0000 0.88620  0.14630  0.77720  Biso   1.000  H
  Zn24     1.0000 0.86760  0.62485  0.37930  Biso   1.000  Zn
  N47      1.0000 0.86333  0.59655  0.34705  Biso   1.000  N
  C507     1.0000 0.86536  0.56930  0.35200  Biso   1.000  C
  C508     1.0000 0.85608  0.55580  0.32959  Biso   1.000  C
  H438     1.0000 0.85520  0.53770  0.32760  Biso   1.000  H
  C509     1.0000 0.84831  0.57470  0.31079  Biso   1.000  C
  H439     1.0000 0.84150  0.57120  0.29430  Biso   1.000  H
  C510     1.0000 0.85280  0.59988  0.32158  Biso   1.000  C
  C511     1.0000 0.84860  0.62491  0.31141  Biso   1.000  C
  N48      1.0000 0.86341  0.65328  0.34717  Biso   1.000  N
  C512     1.0000 0.85290  0.64980  0.32171  Biso   1.000  C
  C513     1.0000 0.84841  0.67492  0.31078  Biso   1.000  C
  H440     1.0000 0.84160  0.67830  0.29430  Biso   1.000  H
  C514     1.0000 0.85614  0.69393  0.32948  Biso   1.000  C
  H441     1.0000 0.85530  0.71200  0.32740  Biso   1.000  H
  C515     1.0000 0.86542  0.68055  0.35197  Biso   1.000  C
  C516     1.0000 0.89280  0.51525  0.35970  Biso   1.000  C
  H442     1.0000 0.90480  0.52430  0.34950  Biso   1.000  H
  C517     1.0000 0.89270  0.48807  0.35980  Biso   1.000  C
  H443     1.0000 0.90470  0.47890  0.34960  Biso   1.000  H
  O47      1.0000 0.89070  0.43301  0.36070  Biso   1.000  O
  C518     1.0000 0.85480  0.73441  0.38710  Biso   1.000  C
  H444     1.0000 0.84130  0.72530  0.39520  Biso   1.000  H
  C519     1.0000 0.85470  0.76159  0.38720  Biso   1.000  C
  H445     1.0000 0.84110  0.77060  0.39530  Biso   1.000  H
  O48      1.0000 0.85910  0.81687  0.38920  Biso   1.000  O
  C520     1.0000 0.83741  0.62492  0.28435  Biso   1.000  C
  C521     1.0000 0.81065  0.62200  0.28070  Biso   1.000  C
  C522     1.0000 0.80028  0.62200  0.25560  Biso   1.000  C
  H446     1.0000 0.78240  0.62000  0.25310  Biso   1.000  H
  C523     1.0000 0.81670  0.62493  0.23410  Biso   1.000  C
  C524     1.0000 0.84350  0.62785  0.23776  Biso   1.000  C
  H447     1.0000 0.85440  0.62980  0.22340  Biso   1.000  H
  C525     1.0000 0.85383  0.62784  0.26290  Biso   1.000  C
  C526     1.0000 0.79282  0.61883  0.30400  Biso   1.000  C
  H448     1.0000 0.77510  0.61710  0.29810  Biso   1.000  H
  H449     1.0000 0.79430  0.63390  0.31510  Biso   1.000  H
  H450     1.0000 0.79780  0.60350  0.31360  Biso   1.000  H
  C527     1.0000 0.80540  0.62494  0.20680  Biso   1.000  C
  H451     1.0000 0.78680  0.62280  0.20770  Biso   1.000  H
  H452     1.0000 0.81290  0.61080  0.19690  Biso   1.000  H
  H453     1.0000 0.80940  0.64130  0.19840  Biso   1.000  H
  C528     1.0000 0.88291  0.63101  0.26680  Biso   1.000  C
  H454     1.0000 0.89130  0.63280  0.25020  Biso   1.000  H
  H455     1.0000 0.88970  0.61590  0.27570  Biso   1.000  H
  H456     1.0000 0.88620  0.64630  0.27720  Biso   1.000  H
  Zn25     1.0000 0.88240  0.12485  0.87070  Biso   1.000  Zn
  N49      1.0000 0.88667  0.09655  0.90295  Biso   1.000  N
  C529     1.0000 0.88464  0.06930  0.89800  Biso   1.000  C
  C530     1.0000 0.89392  0.05580  0.92041  Biso   1.000  C
  H457     1.0000 0.89480  0.03770  0.92240  Biso   1.000  H
  C531     1.0000 0.90169  0.07470  0.93921  Biso   1.000  C
  H458     1.0000 0.90850  0.07120  0.95570  Biso   1.000  H
  C532     1.0000 0.89720  0.09988  0.92842  Biso   1.000  C
  C533     1.0000 0.90140  0.12491  0.93859  Biso   1.000  C
  N50      1.0000 0.88659  0.15328  0.90283  Biso   1.000  N
  C534     1.0000 0.89710  0.14980  0.92829  Biso   1.000  C
  C535     1.0000 0.90159  0.17492  0.93922  Biso   1.000  C
  H459     1.0000 0.90840  0.17830  0.95570  Biso   1.000  H
  C536     1.0000 0.89386  0.19393  0.92052  Biso   1.000  C
  H460     1.0000 0.89470  0.21200  0.92260  Biso   1.000  H
  C537     1.0000 0.88458  0.18055  0.89803  Biso   1.000  C
  C538     1.0000 0.85720  0.01525  0.89030  Biso   1.000  C
  H461     1.0000 0.84520  0.02430  0.90050  Biso   1.000  H
  C539     1.0000 0.85730  0.98807  0.89020  Biso   1.000  C
  H462     1.0000 0.84530  0.97890  0.90040  Biso   1.000  H
  O49      1.0000 0.85930  0.93301  0.88930  Biso   1.000  O
  C540     1.0000 0.89520  0.23441  0.86290  Biso   1.000  C
  H463     1.0000 0.90870  0.22530  0.85480  Biso   1.000  H
  C541     1.0000 0.89530  0.26159  0.86280  Biso   1.000  C
  H464     1.0000 0.90890  0.27060  0.85470  Biso   1.000  H
  O50      1.0000 0.89090  0.31687  0.86080  Biso   1.000  O
  C542     1.0000 0.91259  0.12492  0.96565  Biso   1.000  C
  C543     1.0000 0.93935  0.12200  0.96930  Biso   1.000  C
  C544     1.0000 0.94972  0.12200  0.99440  Biso   1.000  C
  H465     1.0000 0.96760  0.12000  0.99690  Biso   1.000  H
  C545     1.0000 0.93330  0.12493  0.01590  Biso   1.000  C
  C546     1.0000 0.90650  0.12785  0.01224  Biso   1.000  C
  H466     1.0000 0.89560  0.12980  0.02660  Biso   1.000  H
  C547     1.0000 0.89617  0.12784  0.98710  Biso   1.000  C
  C548     1.0000 0.95718  0.11883  0.94600  Biso   1.000  C
  H467     1.0000 0.97490  0.11710  0.95190  Biso   1.000  H
  H468     1.0000 0.95570  0.13390  0.93490  Biso   1.000  H
  H469     1.0000 0.95220  0.10350  0.93640  Biso   1.000  H
  C549     1.0000 0.94460  0.12494  0.04320  Biso   1.000  C
  H470     1.0000 0.96320  0.12280  0.04230  Biso   1.000  H
  H471     1.0000 0.93710  0.11080  0.05310  Biso   1.000  H
  H472     1.0000 0.94060  0.14130  0.05160  Biso   1.000  H
  C550     1.0000 0.86709  0.13101  0.98320  Biso   1.000  C
  H473     1.0000 0.85870  0.13280  0.99980  Biso   1.000  H
  H474     1.0000 0.86030  0.11590  0.97430  Biso   1.000  H
  H475     1.0000 0.86380  0.14630  0.97280  Biso   1.000  H
  Zn26     1.0000 0.88240  0.62485  0.37070  Biso   1.000  Zn
  N51      1.0000 0.88667  0.59655  0.40295  Biso   1.000  N
  C551     1.0000 0.88464  0.56930  0.39800  Biso   1.000  C
  C552     1.0000 0.89392  0.55580  0.42041  Biso   1.000  C
  H476     1.0000 0.89480  0.53770  0.42240  Biso   1.000  H
  C553     1.0000 0.90169  0.57470  0.43921  Biso   1.000  C
  H477     1.0000 0.90850  0.57120  0.45570  Biso   1.000  H
  C554     1.0000 0.89720  0.59988  0.42842  Biso   1.000  C
  C555     1.0000 0.90140  0.62491  0.43859  Biso   1.000  C
  N52      1.0000 0.88659  0.65328  0.40283  Biso   1.000  N
  C556     1.0000 0.89710  0.64980  0.42829  Biso   1.000  C
  C557     1.0000 0.90159  0.67492  0.43922  Biso   1.000  C
  H478     1.0000 0.90840  0.67830  0.45570  Biso   1.000  H
  C558     1.0000 0.89386  0.69393  0.42052  Biso   1.000  C
  H479     1.0000 0.89470  0.71200  0.42260  Biso   1.000  H
  C559     1.0000 0.88458  0.68055  0.39803  Biso   1.000  C
  C560     1.0000 0.85720  0.51525  0.39030  Biso   1.000  C
  H480     1.0000 0.84520  0.52430  0.40050  Biso   1.000  H
  C561     1.0000 0.85730  0.48807  0.39020  Biso   1.000  C
  H481     1.0000 0.84530  0.47890  0.40040  Biso   1.000  H
  O51      1.0000 0.85930  0.43301  0.38930  Biso   1.000  O
  C562     1.0000 0.89520  0.73441  0.36290  Biso   1.000  C
  H482     1.0000 0.90870  0.72530  0.35480  Biso   1.000  H
  C563     1.0000 0.89530  0.76159  0.36280  Biso   1.000  C
  H483     1.0000 0.90890  0.77060  0.35470  Biso   1.000  H
  O52      1.0000 0.89090  0.81687  0.36080  Biso   1.000  O
  C564     1.0000 0.91259  0.62492  0.46565  Biso   1.000  C
  C565     1.0000 0.93935  0.62200  0.46930  Biso   1.000  C
  C566     1.0000 0.94972  0.62200  0.49440  Biso   1.000  C
  H484     1.0000 0.96760  0.62000  0.49690  Biso   1.000  H
  C567     1.0000 0.93330  0.62493  0.51590  Biso   1.000  C
  C568     1.0000 0.90650  0.62785  0.51224  Biso   1.000  C
  H485     1.0000 0.89560  0.62980  0.52660  Biso   1.000  H
  C569     1.0000 0.89617  0.62784  0.48710  Biso   1.000  C
  C570     1.0000 0.95718  0.61883  0.44600  Biso   1.000  C
  H486     1.0000 0.97490  0.61710  0.45190  Biso   1.000  H
  H487     1.0000 0.95570  0.63390  0.43490  Biso   1.000  H
  H488     1.0000 0.95220  0.60350  0.43640  Biso   1.000  H
  C571     1.0000 0.94460  0.62494  0.54320  Biso   1.000  C
  H489     1.0000 0.96320  0.62280  0.54230  Biso   1.000  H
  H490     1.0000 0.93710  0.61080  0.55310  Biso   1.000  H
  H491     1.0000 0.94060  0.64130  0.55160  Biso   1.000  H
  C572     1.0000 0.86709  0.63101  0.48320  Biso   1.000  C
  H492     1.0000 0.85870  0.63280  0.49980  Biso   1.000  H
  H493     1.0000 0.86030  0.61590  0.47430  Biso   1.000  H
  H494     1.0000 0.86380  0.64630  0.47280  Biso   1.000  H
  Zn27     1.0000 0.38240  0.12485  0.37070  Biso   1.000  Zn
  N53      1.0000 0.38667  0.09655  0.40295  Biso   1.000  N
  C573     1.0000 0.38464  0.06930  0.39800  Biso   1.000  C
  C574     1.0000 0.39392  0.05580  0.42041  Biso   1.000  C
  H495     1.0000 0.39480  0.03770  0.42240  Biso   1.000  H
  C575     1.0000 0.40169  0.07470  0.43921  Biso   1.000  C
  H496     1.0000 0.40850  0.07120  0.45570  Biso   1.000  H
  C576     1.0000 0.39720  0.09988  0.42842  Biso   1.000  C
  C577     1.0000 0.40140  0.12491  0.43859  Biso   1.000  C
  N54      1.0000 0.38659  0.15328  0.40283  Biso   1.000  N
  C578     1.0000 0.39710  0.14980  0.42829  Biso   1.000  C
  C579     1.0000 0.40159  0.17492  0.43922  Biso   1.000  C
  H497     1.0000 0.40840  0.17830  0.45570  Biso   1.000  H
  C580     1.0000 0.39386  0.19393  0.42052  Biso   1.000  C
  H498     1.0000 0.39470  0.21200  0.42260  Biso   1.000  H
  C581     1.0000 0.38458  0.18055  0.39803  Biso   1.000  C
  C582     1.0000 0.35720  0.01525  0.39030  Biso   1.000  C
  H499     1.0000 0.34520  0.02430  0.40050  Biso   1.000  H
  C583     1.0000 0.35730  0.98807  0.39020  Biso   1.000  C
  H500     1.0000 0.34530  0.97890  0.40040  Biso   1.000  H
  O53      1.0000 0.35930  0.93301  0.38930  Biso   1.000  O
  C584     1.0000 0.39520  0.23441  0.36290  Biso   1.000  C
  H501     1.0000 0.40870  0.22530  0.35480  Biso   1.000  H
  C585     1.0000 0.39530  0.26159  0.36280  Biso   1.000  C
  H502     1.0000 0.40890  0.27060  0.35470  Biso   1.000  H
  O54      1.0000 0.39090  0.31687  0.36080  Biso   1.000  O
  C586     1.0000 0.41259  0.12492  0.46565  Biso   1.000  C
  C587     1.0000 0.43935  0.12200  0.46930  Biso   1.000  C
  C588     1.0000 0.44972  0.12200  0.49440  Biso   1.000  C
  H503     1.0000 0.46760  0.12000  0.49690  Biso   1.000  H
  C589     1.0000 0.43330  0.12493  0.51590  Biso   1.000  C
  C590     1.0000 0.40650  0.12785  0.51224  Biso   1.000  C
  H504     1.0000 0.39560  0.12980  0.52660  Biso   1.000  H
  C591     1.0000 0.39617  0.12784  0.48710  Biso   1.000  C
  C592     1.0000 0.45718  0.11883  0.44600  Biso   1.000  C
  H505     1.0000 0.47490  0.11710  0.45190  Biso   1.000  H
  H506     1.0000 0.45570  0.13390  0.43490  Biso   1.000  H
  H507     1.0000 0.45220  0.10350  0.43640  Biso   1.000  H
  C593     1.0000 0.44460  0.12494  0.54320  Biso   1.000  C
  H508     1.0000 0.46320  0.12280  0.54230  Biso   1.000  H
  H509     1.0000 0.43710  0.11080  0.55310  Biso   1.000  H
  H510     1.0000 0.44060  0.14130  0.55160  Biso   1.000  H
  C594     1.0000 0.36709  0.13101  0.48320  Biso   1.000  C
  H511     1.0000 0.35870  0.13280  0.49980  Biso   1.000  H
  H512     1.0000 0.36030  0.11590  0.47430  Biso   1.000  H
  H513     1.0000 0.36380  0.14630  0.47280  Biso   1.000  H
  Zn28     1.0000 0.38240  0.62485  0.87070  Biso   1.000  Zn
  N55      1.0000 0.38667  0.59655  0.90295  Biso   1.000  N
  C595     1.0000 0.38464  0.56930  0.89800  Biso   1.000  C
  C596     1.0000 0.39392  0.55580  0.92041  Biso   1.000  C
  H514     1.0000 0.39480  0.53770  0.92240  Biso   1.000  H
  C597     1.0000 0.40169  0.57470  0.93921  Biso   1.000  C
  H515     1.0000 0.40850  0.57120  0.95570  Biso   1.000  H
  C598     1.0000 0.39720  0.59988  0.92842  Biso   1.000  C
  C599     1.0000 0.40140  0.62491  0.93859  Biso   1.000  C
  N56      1.0000 0.38659  0.65328  0.90283  Biso   1.000  N
  C600     1.0000 0.39710  0.64980  0.92829  Biso   1.000  C
  C601     1.0000 0.40159  0.67492  0.93922  Biso   1.000  C
  H516     1.0000 0.40840  0.67830  0.95570  Biso   1.000  H
  C602     1.0000 0.39386  0.69393  0.92052  Biso   1.000  C
  H517     1.0000 0.39470  0.71200  0.92260  Biso   1.000  H
  C603     1.0000 0.38458  0.68055  0.89803  Biso   1.000  C
  C604     1.0000 0.35720  0.51525  0.89030  Biso   1.000  C
  H518     1.0000 0.34520  0.52430  0.90050  Biso   1.000  H
  C605     1.0000 0.35730  0.48807  0.89020  Biso   1.000  C
  H519     1.0000 0.34530  0.47890  0.90040  Biso   1.000  H
  O55      1.0000 0.35930  0.43301  0.88930  Biso   1.000  O
  C606     1.0000 0.39520  0.73441  0.86290  Biso   1.000  C
  H520     1.0000 0.40870  0.72530  0.85480  Biso   1.000  H
  C607     1.0000 0.39530  0.76159  0.86280  Biso   1.000  C
  H521     1.0000 0.40890  0.77060  0.85470  Biso   1.000  H
  O56      1.0000 0.39090  0.81687  0.86080  Biso   1.000  O
  C608     1.0000 0.41259  0.62492  0.96565  Biso   1.000  C
  C609     1.0000 0.43935  0.62200  0.96930  Biso   1.000  C
  C610     1.0000 0.44972  0.62200  0.99440  Biso   1.000  C
  H522     1.0000 0.46760  0.62000  0.99690  Biso   1.000  H
  C611     1.0000 0.43330  0.62493  0.01590  Biso   1.000  C
  C612     1.0000 0.40650  0.62785  0.01224  Biso   1.000  C
  H523     1.0000 0.39560  0.62980  0.02660  Biso   1.000  H
  C613     1.0000 0.39617  0.62784  0.98710  Biso   1.000  C
  C614     1.0000 0.45718  0.61883  0.94600  Biso   1.000  C
  H524     1.0000 0.47490  0.61710  0.95190  Biso   1.000  H
  H525     1.0000 0.45570  0.63390  0.93490  Biso   1.000  H
  H526     1.0000 0.45220  0.60350  0.93640  Biso   1.000  H
  C615     1.0000 0.44460  0.62494  0.04320  Biso   1.000  C
  H527     1.0000 0.46320  0.62280  0.04230  Biso   1.000  H
  H528     1.0000 0.43710  0.61080  0.05310  Biso   1.000  H
  H529     1.0000 0.44060  0.64130  0.05160  Biso   1.000  H
  C616     1.0000 0.36709  0.63101  0.98320  Biso   1.000  C
  H530     1.0000 0.35870  0.63280  0.99980  Biso   1.000  H
  H531     1.0000 0.36030  0.61590  0.97430  Biso   1.000  H
  H532     1.0000 0.36380  0.64630  0.97280  Biso   1.000  H
  Zn29     1.0000 0.88240  0.12515  0.37930  Biso   1.000  Zn
  N57      1.0000 0.88667  0.15345  0.34705  Biso   1.000  N
  C617     1.0000 0.88464  0.18070  0.35200  Biso   1.000  C
  C618     1.0000 0.89392  0.19420  0.32959  Biso   1.000  C
  H533     1.0000 0.89480  0.21230  0.32760  Biso   1.000  H
  C619     1.0000 0.90169  0.17530  0.31079  Biso   1.000  C
  H534     1.0000 0.90850  0.17880  0.29430  Biso   1.000  H
  C620     1.0000 0.89720  0.15012  0.32158  Biso   1.000  C
  C621     1.0000 0.90140  0.12509  0.31141  Biso   1.000  C
  N58      1.0000 0.88659  0.09672  0.34717  Biso   1.000  N
  C622     1.0000 0.89710  0.10020  0.32171  Biso   1.000  C
  C623     1.0000 0.90159  0.07508  0.31078  Biso   1.000  C
  H535     1.0000 0.90840  0.07170  0.29430  Biso   1.000  H
  C624     1.0000 0.89386  0.05607  0.32948  Biso   1.000  C
  H536     1.0000 0.89470  0.03800  0.32740  Biso   1.000  H
  C625     1.0000 0.88458  0.06945  0.35197  Biso   1.000  C
  C626     1.0000 0.85720  0.23475  0.35970  Biso   1.000  C
  H537     1.0000 0.84520  0.22570  0.34950  Biso   1.000  H
  C627     1.0000 0.85730  0.26193  0.35980  Biso   1.000  C
  H538     1.0000 0.84530  0.27110  0.34960  Biso   1.000  H
  O57      1.0000 0.85930  0.31699  0.36070  Biso   1.000  O
  C628     1.0000 0.89520  0.01559  0.38710  Biso   1.000  C
  H539     1.0000 0.90870  0.02470  0.39520  Biso   1.000  H
  C629     1.0000 0.89530  0.98841  0.38720  Biso   1.000  C
  H540     1.0000 0.90890  0.97940  0.39530  Biso   1.000  H
  O58      1.0000 0.89090  0.93313  0.38920  Biso   1.000  O
  C630     1.0000 0.91259  0.12508  0.28435  Biso   1.000  C
  C631     1.0000 0.93935  0.12800  0.28070  Biso   1.000  C
  C632     1.0000 0.94972  0.12800  0.25560  Biso   1.000  C
  H541     1.0000 0.96760  0.13000  0.25310  Biso   1.000  H
  C633     1.0000 0.93330  0.12507  0.23410  Biso   1.000  C
  C634     1.0000 0.90650  0.12215  0.23776  Biso   1.000  C
  H542     1.0000 0.89560  0.12020  0.22340  Biso   1.000  H
  C635     1.0000 0.89617  0.12216  0.26290  Biso   1.000  C
  C636     1.0000 0.95718  0.13117  0.30400  Biso   1.000  C
  H543     1.0000 0.97490  0.13290  0.29810  Biso   1.000  H
  H544     1.0000 0.95570  0.11610  0.31510  Biso   1.000  H
  H545     1.0000 0.95220  0.14650  0.31360  Biso   1.000  H
  C637     1.0000 0.94460  0.12506  0.20680  Biso   1.000  C
  H546     1.0000 0.96320  0.12720  0.20770  Biso   1.000  H
  H547     1.0000 0.93710  0.13920  0.19690  Biso   1.000  H
  H548     1.0000 0.94060  0.10870  0.19840  Biso   1.000  H
  C638     1.0000 0.86709  0.11899  0.26680  Biso   1.000  C
  H549     1.0000 0.85870  0.11720  0.25020  Biso   1.000  H
  H550     1.0000 0.86030  0.13410  0.27570  Biso   1.000  H
  H551     1.0000 0.86380  0.10370  0.27720  Biso   1.000  H
  Zn30     1.0000 0.88240  0.62515  0.87930  Biso   1.000  Zn
  N59      1.0000 0.88667  0.65345  0.84705  Biso   1.000  N
  C639     1.0000 0.88464  0.68070  0.85200  Biso   1.000  C
  C640     1.0000 0.89392  0.69420  0.82959  Biso   1.000  C
  H552     1.0000 0.89480  0.71230  0.82760  Biso   1.000  H
  C641     1.0000 0.90169  0.67530  0.81079  Biso   1.000  C
  H553     1.0000 0.90850  0.67880  0.79430  Biso   1.000  H
  C642     1.0000 0.89720  0.65012  0.82158  Biso   1.000  C
  C643     1.0000 0.90140  0.62509  0.81141  Biso   1.000  C
  N60      1.0000 0.88659  0.59672  0.84717  Biso   1.000  N
  C644     1.0000 0.89710  0.60020  0.82171  Biso   1.000  C
  C645     1.0000 0.90159  0.57508  0.81078  Biso   1.000  C
  H554     1.0000 0.90840  0.57170  0.79430  Biso   1.000  H
  C646     1.0000 0.89386  0.55607  0.82948  Biso   1.000  C
  H555     1.0000 0.89470  0.53800  0.82740  Biso   1.000  H
  C647     1.0000 0.88458  0.56945  0.85197  Biso   1.000  C
  C648     1.0000 0.85720  0.73475  0.85970  Biso   1.000  C
  H556     1.0000 0.84520  0.72570  0.84950  Biso   1.000  H
  C649     1.0000 0.85730  0.76193  0.85980  Biso   1.000  C
  H557     1.0000 0.84530  0.77110  0.84960  Biso   1.000  H
  O59      1.0000 0.85930  0.81699  0.86070  Biso   1.000  O
  C650     1.0000 0.89520  0.51559  0.88710  Biso   1.000  C
  H558     1.0000 0.90870  0.52470  0.89520  Biso   1.000  H
  C651     1.0000 0.89530  0.48841  0.88720  Biso   1.000  C
  H559     1.0000 0.90890  0.47940  0.89530  Biso   1.000  H
  O60      1.0000 0.89090  0.43313  0.88920  Biso   1.000  O
  C652     1.0000 0.91259  0.62508  0.78435  Biso   1.000  C
  C653     1.0000 0.93935  0.62800  0.78070  Biso   1.000  C
  C654     1.0000 0.94972  0.62800  0.75560  Biso   1.000  C
  H560     1.0000 0.96760  0.63000  0.75310  Biso   1.000  H
  C655     1.0000 0.93330  0.62507  0.73410  Biso   1.000  C
  C656     1.0000 0.90650  0.62215  0.73776  Biso   1.000  C
  H561     1.0000 0.89560  0.62020  0.72340  Biso   1.000  H
  C657     1.0000 0.89617  0.62216  0.76290  Biso   1.000  C
  C658     1.0000 0.95718  0.63117  0.80400  Biso   1.000  C
  H562     1.0000 0.97490  0.63290  0.79810  Biso   1.000  H
  H563     1.0000 0.95570  0.61610  0.81510  Biso   1.000  H
  H564     1.0000 0.95220  0.64650  0.81360  Biso   1.000  H
  C659     1.0000 0.94460  0.62506  0.70680  Biso   1.000  C
  H565     1.0000 0.96320  0.62720  0.70770  Biso   1.000  H
  H566     1.0000 0.93710  0.63920  0.69690  Biso   1.000  H
  H567     1.0000 0.94060  0.60870  0.69840  Biso   1.000  H
  C660     1.0000 0.86709  0.61899  0.76680  Biso   1.000  C
  H568     1.0000 0.85870  0.61720  0.75020  Biso   1.000  H
  H569     1.0000 0.86030  0.63410  0.77570  Biso   1.000  H
  H570     1.0000 0.86380  0.60370  0.77720  Biso   1.000  H
  Zn31     1.0000 0.38240  0.12515  0.87930  Biso   1.000  Zn
  N61      1.0000 0.38667  0.15345  0.84705  Biso   1.000  N
  C661     1.0000 0.38464  0.18070  0.85200  Biso   1.000  C
  C662     1.0000 0.39392  0.19420  0.82959  Biso   1.000  C
  H571     1.0000 0.39480  0.21230  0.82760  Biso   1.000  H
  C663     1.0000 0.40169  0.17530  0.81079  Biso   1.000  C
  H572     1.0000 0.40850  0.17880  0.79430  Biso   1.000  H
  C664     1.0000 0.39720  0.15012  0.82158  Biso   1.000  C
  C665     1.0000 0.40140  0.12509  0.81141  Biso   1.000  C
  N62      1.0000 0.38659  0.09672  0.84717  Biso   1.000  N
  C666     1.0000 0.39710  0.10020  0.82171  Biso   1.000  C
  C667     1.0000 0.40159  0.07508  0.81078  Biso   1.000  C
  H573     1.0000 0.40840  0.07170  0.79430  Biso   1.000  H
  C668     1.0000 0.39386  0.05607  0.82948  Biso   1.000  C
  H574     1.0000 0.39470  0.03800  0.82740  Biso   1.000  H
  C669     1.0000 0.38458  0.06945  0.85197  Biso   1.000  C
  C670     1.0000 0.35720  0.23475  0.85970  Biso   1.000  C
  H575     1.0000 0.34520  0.22570  0.84950  Biso   1.000  H
  C671     1.0000 0.35730  0.26193  0.85980  Biso   1.000  C
  H576     1.0000 0.34530  0.27110  0.84960  Biso   1.000  H
  O61      1.0000 0.35930  0.31699  0.86070  Biso   1.000  O
  C672     1.0000 0.39520  0.01559  0.88710  Biso   1.000  C
  H577     1.0000 0.40870  0.02470  0.89520  Biso   1.000  H
  C673     1.0000 0.39530  0.98841  0.88720  Biso   1.000  C
  H578     1.0000 0.40890  0.97940  0.89530  Biso   1.000  H
  O62      1.0000 0.39090  0.93313  0.88920  Biso   1.000  O
  C674     1.0000 0.41259  0.12508  0.78435  Biso   1.000  C
  C675     1.0000 0.43935  0.12800  0.78070  Biso   1.000  C
  C676     1.0000 0.44972  0.12800  0.75560  Biso   1.000  C
  H579     1.0000 0.46760  0.13000  0.75310  Biso   1.000  H
  C677     1.0000 0.43330  0.12507  0.73410  Biso   1.000  C
  C678     1.0000 0.40650  0.12215  0.73776  Biso   1.000  C
  H580     1.0000 0.39560  0.12020  0.72340  Biso   1.000  H
  C679     1.0000 0.39617  0.12216  0.76290  Biso   1.000  C
  C680     1.0000 0.45718  0.13117  0.80400  Biso   1.000  C
  H581     1.0000 0.47490  0.13290  0.79810  Biso   1.000  H
  H582     1.0000 0.45570  0.11610  0.81510  Biso   1.000  H
  H583     1.0000 0.45220  0.14650  0.81360  Biso   1.000  H
  C681     1.0000 0.44460  0.12506  0.70680  Biso   1.000  C
  H584     1.0000 0.46320  0.12720  0.70770  Biso   1.000  H
  H585     1.0000 0.43710  0.13920  0.69690  Biso   1.000  H
  H586     1.0000 0.44060  0.10870  0.69840  Biso   1.000  H
  C682     1.0000 0.36709  0.11899  0.76680  Biso   1.000  C
  H587     1.0000 0.35870  0.11720  0.75020  Biso   1.000  H
  H588     1.0000 0.36030  0.13410  0.77570  Biso   1.000  H
  H589     1.0000 0.36380  0.10370  0.77720  Biso   1.000  H
  Zn32     1.0000 0.38240  0.62515  0.37930  Biso   1.000  Zn
  N63      1.0000 0.38667  0.65345  0.34705  Biso   1.000  N
  C683     1.0000 0.38464  0.68070  0.35200  Biso   1.000  C
  C684     1.0000 0.39392  0.69420  0.32959  Biso   1.000  C
  H590     1.0000 0.39480  0.71230  0.32760  Biso   1.000  H
  C685     1.0000 0.40169  0.67530  0.31079  Biso   1.000  C
  H591     1.0000 0.40850  0.67880  0.29430  Biso   1.000  H
  C686     1.0000 0.39720  0.65012  0.32158  Biso   1.000  C
  C687     1.0000 0.40140  0.62509  0.31141  Biso   1.000  C
  N64      1.0000 0.38659  0.59672  0.34717  Biso   1.000  N
  C688     1.0000 0.39710  0.60020  0.32171  Biso   1.000  C
  C689     1.0000 0.40159  0.57508  0.31078  Biso   1.000  C
  H592     1.0000 0.40840  0.57170  0.29430  Biso   1.000  H
  C690     1.0000 0.39386  0.55607  0.32948  Biso   1.000  C
  H593     1.0000 0.39470  0.53800  0.32740  Biso   1.000  H
  C691     1.0000 0.38458  0.56945  0.35197  Biso   1.000  C
  C692     1.0000 0.35720  0.73475  0.35970  Biso   1.000  C
  H594     1.0000 0.34520  0.72570  0.34950  Biso   1.000  H
  C693     1.0000 0.35730  0.76193  0.35980  Biso   1.000  C
  H595     1.0000 0.34530  0.77110  0.34960  Biso   1.000  H
  O63      1.0000 0.35930  0.81699  0.36070  Biso   1.000  O
  C694     1.0000 0.39520  0.51559  0.38710  Biso   1.000  C
  H596     1.0000 0.40870  0.52470  0.39520  Biso   1.000  H
  C695     1.0000 0.39530  0.48841  0.38720  Biso   1.000  C
  H597     1.0000 0.40890  0.47940  0.39530  Biso   1.000  H
  O64      1.0000 0.39090  0.43313  0.38920  Biso   1.000  O
  C696     1.0000 0.41259  0.62508  0.28435  Biso   1.000  C
  C697     1.0000 0.43935  0.62800  0.28070  Biso   1.000  C
  C698     1.0000 0.44972  0.62800  0.25560  Biso   1.000  C
  H598     1.0000 0.46760  0.63000  0.25310  Biso   1.000  H
  C699     1.0000 0.43330  0.62507  0.23410  Biso   1.000  C
  C700     1.0000 0.40650  0.62215  0.23776  Biso   1.000  C
  H599     1.0000 0.39560  0.62020  0.22340  Biso   1.000  H
  C701     1.0000 0.39617  0.62216  0.26290  Biso   1.000  C
  C702     1.0000 0.45718  0.63117  0.30400  Biso   1.000  C
  H600     1.0000 0.47490  0.63290  0.29810  Biso   1.000  H
  H601     1.0000 0.45570  0.61610  0.31510  Biso   1.000  H
  H602     1.0000 0.45220  0.64650  0.31360  Biso   1.000  H
  C703     1.0000 0.44460  0.62506  0.20680  Biso   1.000  C
  H603     1.0000 0.46320  0.62720  0.20770  Biso   1.000  H
  H604     1.0000 0.43710  0.63920  0.19690  Biso   1.000  H
  H605     1.0000 0.44060  0.60870  0.19840  Biso   1.000  H
  C704     1.0000 0.36709  0.61899  0.26680  Biso   1.000  C
  H606     1.0000 0.35870  0.61720  0.25020  Biso   1.000  H
  H607     1.0000 0.36030  0.63410  0.27570  Biso   1.000  H
  H608     1.0000 0.36380  0.60370  0.27720  Biso   1.000  H
  Zn33     1.0000 0.87070  0.36760  0.12515  Biso   1.000  Zn
  N65      1.0000 0.90295  0.36333  0.15345  Biso   1.000  N
  C705     1.0000 0.89800  0.36536  0.18070  Biso   1.000  C
  C706     1.0000 0.92041  0.35608  0.19420  Biso   1.000  C
  H609     1.0000 0.92240  0.35520  0.21230  Biso   1.000  H
  C707     1.0000 0.93921  0.34831  0.17530  Biso   1.000  C
  H610     1.0000 0.95570  0.34150  0.17880  Biso   1.000  H
  C708     1.0000 0.92842  0.35280  0.15012  Biso   1.000  C
  C709     1.0000 0.93859  0.34860  0.12509  Biso   1.000  C
  N66      1.0000 0.90283  0.36341  0.09672  Biso   1.000  N
  C710     1.0000 0.92829  0.35290  0.10020  Biso   1.000  C
  C711     1.0000 0.93922  0.34841  0.07508  Biso   1.000  C
  H611     1.0000 0.95570  0.34160  0.07170  Biso   1.000  H
  C712     1.0000 0.92052  0.35614  0.05607  Biso   1.000  C
  H612     1.0000 0.92260  0.35530  0.03800  Biso   1.000  H
  C713     1.0000 0.89803  0.36542  0.06945  Biso   1.000  C
  C714     1.0000 0.89030  0.39280  0.23475  Biso   1.000  C
  H613     1.0000 0.90050  0.40480  0.22570  Biso   1.000  H
  C715     1.0000 0.89020  0.39270  0.26193  Biso   1.000  C
  H614     1.0000 0.90040  0.40470  0.27110  Biso   1.000  H
  O65      1.0000 0.88930  0.39070  0.31699  Biso   1.000  O
  C716     1.0000 0.86290  0.35480  0.01559  Biso   1.000  C
  H615     1.0000 0.85480  0.34130  0.02470  Biso   1.000  H
  C717     1.0000 0.86280  0.35470  0.98841  Biso   1.000  C
  H616     1.0000 0.85470  0.34110  0.97940  Biso   1.000  H
  O66      1.0000 0.86080  0.35910  0.93313  Biso   1.000  O
  C718     1.0000 0.96565  0.33741  0.12508  Biso   1.000  C
  C719     1.0000 0.96930  0.31065  0.12800  Biso   1.000  C
  C720     1.0000 0.99440  0.30028  0.12800  Biso   1.000  C
  H617     1.0000 0.99690  0.28240  0.13000  Biso   1.000  H
  C721     1.0000 0.01590  0.31670  0.12507  Biso   1.000  C
  C722     1.0000 0.01224  0.34350  0.12215  Biso   1.000  C
  H618     1.0000 0.02660  0.35440  0.12020  Biso   1.000  H
  C723     1.0000 0.98710  0.35383  0.12216  Biso   1.000  C
  C724     1.0000 0.94600  0.29282  0.13117  Biso   1.000  C
  H619     1.0000 0.95190  0.27510  0.13290  Biso   1.000  H
  H620     1.0000 0.93490  0.29430  0.11610  Biso   1.000  H
  H621     1.0000 0.93640  0.29780  0.14650  Biso   1.000  H
  C725     1.0000 0.04320  0.30540  0.12506  Biso   1.000  C
  H622     1.0000 0.04230  0.28680  0.12720  Biso   1.000  H
  H623     1.0000 0.05310  0.31290  0.13920  Biso   1.000  H
  H624     1.0000 0.05160  0.30940  0.10870  Biso   1.000  H
  C726     1.0000 0.98320  0.38291  0.11899  Biso   1.000  C
  H625     1.0000 0.99980  0.39130  0.11720  Biso   1.000  H
  H626     1.0000 0.97430  0.38970  0.13410  Biso   1.000  H
  H627     1.0000 0.97280  0.38620  0.10370  Biso   1.000  H
  Zn34     1.0000 0.87070  0.86760  0.62515  Biso   1.000  Zn
  N67      1.0000 0.90295  0.86333  0.65345  Biso   1.000  N
  C727     1.0000 0.89800  0.86536  0.68070  Biso   1.000  C
  C728     1.0000 0.92041  0.85608  0.69420  Biso   1.000  C
  H628     1.0000 0.92240  0.85520  0.71230  Biso   1.000  H
  C729     1.0000 0.93921  0.84831  0.67530  Biso   1.000  C
  H629     1.0000 0.95570  0.84150  0.67880  Biso   1.000  H
  C730     1.0000 0.92842  0.85280  0.65012  Biso   1.000  C
  C731     1.0000 0.93859  0.84860  0.62509  Biso   1.000  C
  N68      1.0000 0.90283  0.86341  0.59672  Biso   1.000  N
  C732     1.0000 0.92829  0.85290  0.60020  Biso   1.000  C
  C733     1.0000 0.93922  0.84841  0.57508  Biso   1.000  C
  H630     1.0000 0.95570  0.84160  0.57170  Biso   1.000  H
  C734     1.0000 0.92052  0.85614  0.55607  Biso   1.000  C
  H631     1.0000 0.92260  0.85530  0.53800  Biso   1.000  H
  C735     1.0000 0.89803  0.86542  0.56945  Biso   1.000  C
  C736     1.0000 0.89030  0.89280  0.73475  Biso   1.000  C
  H632     1.0000 0.90050  0.90480  0.72570  Biso   1.000  H
  C737     1.0000 0.89020  0.89270  0.76193  Biso   1.000  C
  H633     1.0000 0.90040  0.90470  0.77110  Biso   1.000  H
  O67      1.0000 0.88930  0.89070  0.81699  Biso   1.000  O
  C738     1.0000 0.86290  0.85480  0.51559  Biso   1.000  C
  H634     1.0000 0.85480  0.84130  0.52470  Biso   1.000  H
  C739     1.0000 0.86280  0.85470  0.48841  Biso   1.000  C
  H635     1.0000 0.85470  0.84110  0.47940  Biso   1.000  H
  O68      1.0000 0.86080  0.85910  0.43313  Biso   1.000  O
  C740     1.0000 0.96565  0.83741  0.62508  Biso   1.000  C
  C741     1.0000 0.96930  0.81065  0.62800  Biso   1.000  C
  C742     1.0000 0.99440  0.80028  0.62800  Biso   1.000  C
  H636     1.0000 0.99690  0.78240  0.63000  Biso   1.000  H
  C743     1.0000 0.01590  0.81670  0.62507  Biso   1.000  C
  C744     1.0000 0.01224  0.84350  0.62215  Biso   1.000  C
  H637     1.0000 0.02660  0.85440  0.62020  Biso   1.000  H
  C745     1.0000 0.98710  0.85383  0.62216  Biso   1.000  C
  C746     1.0000 0.94600  0.79282  0.63117  Biso   1.000  C
  H638     1.0000 0.95190  0.77510  0.63290  Biso   1.000  H
  H639     1.0000 0.93490  0.79430  0.61610  Biso   1.000  H
  H640     1.0000 0.93640  0.79780  0.64650  Biso   1.000  H
  C747     1.0000 0.04320  0.80540  0.62506  Biso   1.000  C
  H641     1.0000 0.04230  0.78680  0.62720  Biso   1.000  H
  H642     1.0000 0.05310  0.81290  0.63920  Biso   1.000  H
  H643     1.0000 0.05160  0.80940  0.60870  Biso   1.000  H
  C748     1.0000 0.98320  0.88291  0.61899  Biso   1.000  C
  H644     1.0000 0.99980  0.89130  0.61720  Biso   1.000  H
  H645     1.0000 0.97430  0.88970  0.63410  Biso   1.000  H
  H646     1.0000 0.97280  0.88620  0.60370  Biso   1.000  H
  Zn35     1.0000 0.37070  0.36760  0.62515  Biso   1.000  Zn
  N69      1.0000 0.40295  0.36333  0.65345  Biso   1.000  N
  C749     1.0000 0.39800  0.36536  0.68070  Biso   1.000  C
  C750     1.0000 0.42041  0.35608  0.69420  Biso   1.000  C
  H647     1.0000 0.42240  0.35520  0.71230  Biso   1.000  H
  C751     1.0000 0.43921  0.34831  0.67530  Biso   1.000  C
  H648     1.0000 0.45570  0.34150  0.67880  Biso   1.000  H
  C752     1.0000 0.42842  0.35280  0.65012  Biso   1.000  C
  C753     1.0000 0.43859  0.34860  0.62509  Biso   1.000  C
  N70      1.0000 0.40283  0.36341  0.59672  Biso   1.000  N
  C754     1.0000 0.42829  0.35290  0.60020  Biso   1.000  C
  C755     1.0000 0.43922  0.34841  0.57508  Biso   1.000  C
  H649     1.0000 0.45570  0.34160  0.57170  Biso   1.000  H
  C756     1.0000 0.42052  0.35614  0.55607  Biso   1.000  C
  H650     1.0000 0.42260  0.35530  0.53800  Biso   1.000  H
  C757     1.0000 0.39803  0.36542  0.56945  Biso   1.000  C
  C758     1.0000 0.39030  0.39280  0.73475  Biso   1.000  C
  H651     1.0000 0.40050  0.40480  0.72570  Biso   1.000  H
  C759     1.0000 0.39020  0.39270  0.76193  Biso   1.000  C
  H652     1.0000 0.40040  0.40470  0.77110  Biso   1.000  H
  O69      1.0000 0.38930  0.39070  0.81699  Biso   1.000  O
  C760     1.0000 0.36290  0.35480  0.51559  Biso   1.000  C
  H653     1.0000 0.35480  0.34130  0.52470  Biso   1.000  H
  C761     1.0000 0.36280  0.35470  0.48841  Biso   1.000  C
  H654     1.0000 0.35470  0.34110  0.47940  Biso   1.000  H
  O70      1.0000 0.36080  0.35910  0.43313  Biso   1.000  O
  C762     1.0000 0.46565  0.33741  0.62508  Biso   1.000  C
  C763     1.0000 0.46930  0.31065  0.62800  Biso   1.000  C
  C764     1.0000 0.49440  0.30028  0.62800  Biso   1.000  C
  H655     1.0000 0.49690  0.28240  0.63000  Biso   1.000  H
  C765     1.0000 0.51590  0.31670  0.62507  Biso   1.000  C
  C766     1.0000 0.51224  0.34350  0.62215  Biso   1.000  C
  H656     1.0000 0.52660  0.35440  0.62020  Biso   1.000  H
  C767     1.0000 0.48710  0.35383  0.62216  Biso   1.000  C
  C768     1.0000 0.44600  0.29282  0.63117  Biso   1.000  C
  H657     1.0000 0.45190  0.27510  0.63290  Biso   1.000  H
  H658     1.0000 0.43490  0.29430  0.61610  Biso   1.000  H
  H659     1.0000 0.43640  0.29780  0.64650  Biso   1.000  H
  C769     1.0000 0.54320  0.30540  0.62506  Biso   1.000  C
  H660     1.0000 0.54230  0.28680  0.62720  Biso   1.000  H
  H661     1.0000 0.55310  0.31290  0.63920  Biso   1.000  H
  H662     1.0000 0.55160  0.30940  0.60870  Biso   1.000  H
  C770     1.0000 0.48320  0.38291  0.61899  Biso   1.000  C
  H663     1.0000 0.49980  0.39130  0.61720  Biso   1.000  H
  H664     1.0000 0.47430  0.38970  0.63410  Biso   1.000  H
  H665     1.0000 0.47280  0.38620  0.60370  Biso   1.000  H
  Zn36     1.0000 0.37070  0.86760  0.12515  Biso   1.000  Zn
  N71      1.0000 0.40295  0.86333  0.15345  Biso   1.000  N
  C771     1.0000 0.39800  0.86536  0.18070  Biso   1.000  C
  C772     1.0000 0.42041  0.85608  0.19420  Biso   1.000  C
  H666     1.0000 0.42240  0.85520  0.21230  Biso   1.000  H
  C773     1.0000 0.43921  0.84831  0.17530  Biso   1.000  C
  H667     1.0000 0.45570  0.84150  0.17880  Biso   1.000  H
  C774     1.0000 0.42842  0.85280  0.15012  Biso   1.000  C
  C775     1.0000 0.43859  0.84860  0.12509  Biso   1.000  C
  N72      1.0000 0.40283  0.86341  0.09672  Biso   1.000  N
  C776     1.0000 0.42829  0.85290  0.10020  Biso   1.000  C
  C777     1.0000 0.43922  0.84841  0.07508  Biso   1.000  C
  H668     1.0000 0.45570  0.84160  0.07170  Biso   1.000  H
  C778     1.0000 0.42052  0.85614  0.05607  Biso   1.000  C
  H669     1.0000 0.42260  0.85530  0.03800  Biso   1.000  H
  C779     1.0000 0.39803  0.86542  0.06945  Biso   1.000  C
  C780     1.0000 0.39030  0.89280  0.23475  Biso   1.000  C
  H670     1.0000 0.40050  0.90480  0.22570  Biso   1.000  H
  C781     1.0000 0.39020  0.89270  0.26193  Biso   1.000  C
  H671     1.0000 0.40040  0.90470  0.27110  Biso   1.000  H
  O71      1.0000 0.38930  0.89070  0.31699  Biso   1.000  O
  C782     1.0000 0.36290  0.85480  0.01559  Biso   1.000  C
  H672     1.0000 0.35480  0.84130  0.02470  Biso   1.000  H
  C783     1.0000 0.36280  0.85470  0.98841  Biso   1.000  C
  H673     1.0000 0.35470  0.84110  0.97940  Biso   1.000  H
  O72      1.0000 0.36080  0.85910  0.93313  Biso   1.000  O
  C784     1.0000 0.46565  0.83741  0.12508  Biso   1.000  C
  C785     1.0000 0.46930  0.81065  0.12800  Biso   1.000  C
  C786     1.0000 0.49440  0.80028  0.12800  Biso   1.000  C
  H674     1.0000 0.49690  0.78240  0.13000  Biso   1.000  H
  C787     1.0000 0.51590  0.81670  0.12507  Biso   1.000  C
  C788     1.0000 0.51224  0.84350  0.12215  Biso   1.000  C
  H675     1.0000 0.52660  0.85440  0.12020  Biso   1.000  H
  C789     1.0000 0.48710  0.85383  0.12216  Biso   1.000  C
  C790     1.0000 0.44600  0.79282  0.13117  Biso   1.000  C
  H676     1.0000 0.45190  0.77510  0.13290  Biso   1.000  H
  H677     1.0000 0.43490  0.79430  0.11610  Biso   1.000  H
  H678     1.0000 0.43640  0.79780  0.14650  Biso   1.000  H
  C791     1.0000 0.54320  0.80540  0.12506  Biso   1.000  C
  H679     1.0000 0.54230  0.78680  0.12720  Biso   1.000  H
  H680     1.0000 0.55310  0.81290  0.13920  Biso   1.000  H
  H681     1.0000 0.55160  0.80940  0.10870  Biso   1.000  H
  C792     1.0000 0.48320  0.88291  0.11899  Biso   1.000  C
  H682     1.0000 0.49980  0.89130  0.11720  Biso   1.000  H
  H683     1.0000 0.47430  0.88970  0.13410  Biso   1.000  H
  H684     1.0000 0.47280  0.88620  0.10370  Biso   1.000  H
  Zn37     1.0000 0.37930  0.36760  0.12485  Biso   1.000  Zn
  N73      1.0000 0.34705  0.36333  0.09655  Biso   1.000  N
  C793     1.0000 0.35200  0.36536  0.06930  Biso   1.000  C
  C794     1.0000 0.32959  0.35608  0.05580  Biso   1.000  C
  H685     1.0000 0.32760  0.35520  0.03770  Biso   1.000  H
  C795     1.0000 0.31079  0.34831  0.07470  Biso   1.000  C
  H686     1.0000 0.29430  0.34150  0.07120  Biso   1.000  H
  C796     1.0000 0.32158  0.35280  0.09988  Biso   1.000  C
  C797     1.0000 0.31141  0.34860  0.12491  Biso   1.000  C
  N74      1.0000 0.34717  0.36341  0.15328  Biso   1.000  N
  C798     1.0000 0.32171  0.35290  0.14980  Biso   1.000  C
  C799     1.0000 0.31078  0.34841  0.17492  Biso   1.000  C
  H687     1.0000 0.29430  0.34160  0.17830  Biso   1.000  H
  C800     1.0000 0.32948  0.35614  0.19393  Biso   1.000  C
  H688     1.0000 0.32740  0.35530  0.21200  Biso   1.000  H
  C801     1.0000 0.35197  0.36542  0.18055  Biso   1.000  C
  C802     1.0000 0.35970  0.39280  0.01525  Biso   1.000  C
  H689     1.0000 0.34950  0.40480  0.02430  Biso   1.000  H
  C803     1.0000 0.35980  0.39270  0.98807  Biso   1.000  C
  H690     1.0000 0.34960  0.40470  0.97890  Biso   1.000  H
  O73      1.0000 0.36070  0.39070  0.93301  Biso   1.000  O
  C804     1.0000 0.38710  0.35480  0.23441  Biso   1.000  C
  H691     1.0000 0.39520  0.34130  0.22530  Biso   1.000  H
  C805     1.0000 0.38720  0.35470  0.26159  Biso   1.000  C
  H692     1.0000 0.39530  0.34110  0.27060  Biso   1.000  H
  O74      1.0000 0.38920  0.35910  0.31687  Biso   1.000  O
  C806     1.0000 0.28435  0.33741  0.12492  Biso   1.000  C
  C807     1.0000 0.28070  0.31065  0.12200  Biso   1.000  C
  C808     1.0000 0.25560  0.30028  0.12200  Biso   1.000  C
  H693     1.0000 0.25310  0.28240  0.12000  Biso   1.000  H
  C809     1.0000 0.23410  0.31670  0.12493  Biso   1.000  C
  C810     1.0000 0.23776  0.34350  0.12785  Biso   1.000  C
  H694     1.0000 0.22340  0.35440  0.12980  Biso   1.000  H
  C811     1.0000 0.26290  0.35383  0.12784  Biso   1.000  C
  C812     1.0000 0.30400  0.29282  0.11883  Biso   1.000  C
  H695     1.0000 0.29810  0.27510  0.11710  Biso   1.000  H
  H696     1.0000 0.31510  0.29430  0.13390  Biso   1.000  H
  H697     1.0000 0.31360  0.29780  0.10350  Biso   1.000  H
  C813     1.0000 0.20680  0.30540  0.12494  Biso   1.000  C
  H698     1.0000 0.20770  0.28680  0.12280  Biso   1.000  H
  H699     1.0000 0.19690  0.31290  0.11080  Biso   1.000  H
  H700     1.0000 0.19840  0.30940  0.14130  Biso   1.000  H
  C814     1.0000 0.26680  0.38291  0.13101  Biso   1.000  C
  H701     1.0000 0.25020  0.39130  0.13280  Biso   1.000  H
  H702     1.0000 0.27570  0.38970  0.11590  Biso   1.000  H
  H703     1.0000 0.27720  0.38620  0.14630  Biso   1.000  H
  Zn38     1.0000 0.37930  0.86760  0.62485  Biso   1.000  Zn
  N75      1.0000 0.34705  0.86333  0.59655  Biso   1.000  N
  C815     1.0000 0.35200  0.86536  0.56930  Biso   1.000  C
  C816     1.0000 0.32959  0.85608  0.55580  Biso   1.000  C
  H704     1.0000 0.32760  0.85520  0.53770  Biso   1.000  H
  C817     1.0000 0.31079  0.84831  0.57470  Biso   1.000  C
  H705     1.0000 0.29430  0.84150  0.57120  Biso   1.000  H
  C818     1.0000 0.32158  0.85280  0.59988  Biso   1.000  C
  C819     1.0000 0.31141  0.84860  0.62491  Biso   1.000  C
  N76      1.0000 0.34717  0.86341  0.65328  Biso   1.000  N
  C820     1.0000 0.32171  0.85290  0.64980  Biso   1.000  C
  C821     1.0000 0.31078  0.84841  0.67492  Biso   1.000  C
  H706     1.0000 0.29430  0.84160  0.67830  Biso   1.000  H
  C822     1.0000 0.32948  0.85614  0.69393  Biso   1.000  C
  H707     1.0000 0.32740  0.85530  0.71200  Biso   1.000  H
  C823     1.0000 0.35197  0.86542  0.68055  Biso   1.000  C
  C824     1.0000 0.35970  0.89280  0.51525  Biso   1.000  C
  H708     1.0000 0.34950  0.90480  0.52430  Biso   1.000  H
  C825     1.0000 0.35980  0.89270  0.48807  Biso   1.000  C
  H709     1.0000 0.34960  0.90470  0.47890  Biso   1.000  H
  O75      1.0000 0.36070  0.89070  0.43301  Biso   1.000  O
  C826     1.0000 0.38710  0.85480  0.73441  Biso   1.000  C
  H710     1.0000 0.39520  0.84130  0.72530  Biso   1.000  H
  C827     1.0000 0.38720  0.85470  0.76159  Biso   1.000  C
  H711     1.0000 0.39530  0.84110  0.77060  Biso   1.000  H
  O76      1.0000 0.38920  0.85910  0.81687  Biso   1.000  O
  C828     1.0000 0.28435  0.83741  0.62492  Biso   1.000  C
  C829     1.0000 0.28070  0.81065  0.62200  Biso   1.000  C
  C830     1.0000 0.25560  0.80028  0.62200  Biso   1.000  C
  H712     1.0000 0.25310  0.78240  0.62000  Biso   1.000  H
  C831     1.0000 0.23410  0.81670  0.62493  Biso   1.000  C
  C832     1.0000 0.23776  0.84350  0.62785  Biso   1.000  C
  H713     1.0000 0.22340  0.85440  0.62980  Biso   1.000  H
  C833     1.0000 0.26290  0.85383  0.62784  Biso   1.000  C
  C834     1.0000 0.30400  0.79282  0.61883  Biso   1.000  C
  H714     1.0000 0.29810  0.77510  0.61710  Biso   1.000  H
  H715     1.0000 0.31510  0.79430  0.63390  Biso   1.000  H
  H716     1.0000 0.31360  0.79780  0.60350  Biso   1.000  H
  C835     1.0000 0.20680  0.80540  0.62494  Biso   1.000  C
  H717     1.0000 0.20770  0.78680  0.62280  Biso   1.000  H
  H718     1.0000 0.19690  0.81290  0.61080  Biso   1.000  H
  H719     1.0000 0.19840  0.80940  0.64130  Biso   1.000  H
  C836     1.0000 0.26680  0.88291  0.63101  Biso   1.000  C
  H720     1.0000 0.25020  0.89130  0.63280  Biso   1.000  H
  H721     1.0000 0.27570  0.88970  0.61590  Biso   1.000  H
  H722     1.0000 0.27720  0.88620  0.64630  Biso   1.000  H
  Zn39     1.0000 0.87930  0.36760  0.62485  Biso   1.000  Zn
  N77      1.0000 0.84705  0.36333  0.59655  Biso   1.000  N
  C837     1.0000 0.85200  0.36536  0.56930  Biso   1.000  C
  C838     1.0000 0.82959  0.35608  0.55580  Biso   1.000  C
  H723     1.0000 0.82760  0.35520  0.53770  Biso   1.000  H
  C839     1.0000 0.81079  0.34831  0.57470  Biso   1.000  C
  H724     1.0000 0.79430  0.34150  0.57120  Biso   1.000  H
  C840     1.0000 0.82158  0.35280  0.59988  Biso   1.000  C
  C841     1.0000 0.81141  0.34860  0.62491  Biso   1.000  C
  N78      1.0000 0.84717  0.36341  0.65328  Biso   1.000  N
  C842     1.0000 0.82171  0.35290  0.64980  Biso   1.000  C
  C843     1.0000 0.81078  0.34841  0.67492  Biso   1.000  C
  H725     1.0000 0.79430  0.34160  0.67830  Biso   1.000  H
  C844     1.0000 0.82948  0.35614  0.69393  Biso   1.000  C
  H726     1.0000 0.82740  0.35530  0.71200  Biso   1.000  H
  C845     1.0000 0.85197  0.36542  0.68055  Biso   1.000  C
  C846     1.0000 0.85970  0.39280  0.51525  Biso   1.000  C
  H727     1.0000 0.84950  0.40480  0.52430  Biso   1.000  H
  C847     1.0000 0.85980  0.39270  0.48807  Biso   1.000  C
  H728     1.0000 0.84960  0.40470  0.47890  Biso   1.000  H
  O77      1.0000 0.86070  0.39070  0.43301  Biso   1.000  O
  C848     1.0000 0.88710  0.35480  0.73441  Biso   1.000  C
  H729     1.0000 0.89520  0.34130  0.72530  Biso   1.000  H
  C849     1.0000 0.88720  0.35470  0.76159  Biso   1.000  C
  H730     1.0000 0.89530  0.34110  0.77060  Biso   1.000  H
  O78      1.0000 0.88920  0.35910  0.81687  Biso   1.000  O
  C850     1.0000 0.78435  0.33741  0.62492  Biso   1.000  C
  C851     1.0000 0.78070  0.31065  0.62200  Biso   1.000  C
  C852     1.0000 0.75560  0.30028  0.62200  Biso   1.000  C
  H731     1.0000 0.75310  0.28240  0.62000  Biso   1.000  H
  C853     1.0000 0.73410  0.31670  0.62493  Biso   1.000  C
  C854     1.0000 0.73776  0.34350  0.62785  Biso   1.000  C
  H732     1.0000 0.72340  0.35440  0.62980  Biso   1.000  H
  C855     1.0000 0.76290  0.35383  0.62784  Biso   1.000  C
  C856     1.0000 0.80400  0.29282  0.61883  Biso   1.000  C
  H733     1.0000 0.79810  0.27510  0.61710  Biso   1.000  H
  H734     1.0000 0.81510  0.29430  0.63390  Biso   1.000  H
  H735     1.0000 0.81360  0.29780  0.60350  Biso   1.000  H
  C857     1.0000 0.70680  0.30540  0.62494  Biso   1.000  C
  H736     1.0000 0.70770  0.28680  0.62280  Biso   1.000  H
  H737     1.0000 0.69690  0.31290  0.61080  Biso   1.000  H
  H738     1.0000 0.69840  0.30940  0.64130  Biso   1.000  H
  C858     1.0000 0.76680  0.38291  0.63101  Biso   1.000  C
  H739     1.0000 0.75020  0.39130  0.63280  Biso   1.000  H
  H740     1.0000 0.77570  0.38970  0.61590  Biso   1.000  H
  H741     1.0000 0.77720  0.38620  0.64630  Biso   1.000  H
  Zn40     1.0000 0.87930  0.86760  0.12485  Biso   1.000  Zn
  N79      1.0000 0.84705  0.86333  0.09655  Biso   1.000  N
  C859     1.0000 0.85200  0.86536  0.06930  Biso   1.000  C
  C860     1.0000 0.82959  0.85608  0.05580  Biso   1.000  C
  H742     1.0000 0.82760  0.85520  0.03770  Biso   1.000  H
  C861     1.0000 0.81079  0.84831  0.07470  Biso   1.000  C
  H743     1.0000 0.79430  0.84150  0.07120  Biso   1.000  H
  C862     1.0000 0.82158  0.85280  0.09988  Biso   1.000  C
  C863     1.0000 0.81141  0.84860  0.12491  Biso   1.000  C
  N80      1.0000 0.84717  0.86341  0.15328  Biso   1.000  N
  C864     1.0000 0.82171  0.85290  0.14980  Biso   1.000  C
  C865     1.0000 0.81078  0.84841  0.17492  Biso   1.000  C
  H744     1.0000 0.79430  0.84160  0.17830  Biso   1.000  H
  C866     1.0000 0.82948  0.85614  0.19393  Biso   1.000  C
  H745     1.0000 0.82740  0.85530  0.21200  Biso   1.000  H
  C867     1.0000 0.85197  0.86542  0.18055  Biso   1.000  C
  C868     1.0000 0.85970  0.89280  0.01525  Biso   1.000  C
  H746     1.0000 0.84950  0.90480  0.02430  Biso   1.000  H
  C869     1.0000 0.85980  0.89270  0.98807  Biso   1.000  C
  H747     1.0000 0.84960  0.90470  0.97890  Biso   1.000  H
  O79      1.0000 0.86070  0.89070  0.93301  Biso   1.000  O
  C870     1.0000 0.88710  0.85480  0.23441  Biso   1.000  C
  H748     1.0000 0.89520  0.84130  0.22530  Biso   1.000  H
  C871     1.0000 0.88720  0.85470  0.26159  Biso   1.000  C
  H749     1.0000 0.89530  0.84110  0.27060  Biso   1.000  H
  O80      1.0000 0.88920  0.85910  0.31687  Biso   1.000  O
  C872     1.0000 0.78435  0.83741  0.12492  Biso   1.000  C
  C873     1.0000 0.78070  0.81065  0.12200  Biso   1.000  C
  C874     1.0000 0.75560  0.80028  0.12200  Biso   1.000  C
  H750     1.0000 0.75310  0.78240  0.12000  Biso   1.000  H
  C875     1.0000 0.73410  0.81670  0.12493  Biso   1.000  C
  C876     1.0000 0.73776  0.84350  0.12785  Biso   1.000  C
  H751     1.0000 0.72340  0.85440  0.12980  Biso   1.000  H
  C877     1.0000 0.76290  0.85383  0.12784  Biso   1.000  C
  C878     1.0000 0.80400  0.79282  0.11883  Biso   1.000  C
  H752     1.0000 0.79810  0.77510  0.11710  Biso   1.000  H
  H753     1.0000 0.81510  0.79430  0.13390  Biso   1.000  H
  H754     1.0000 0.81360  0.79780  0.10350  Biso   1.000  H
  C879     1.0000 0.70680  0.80540  0.12494  Biso   1.000  C
  H755     1.0000 0.70770  0.78680  0.12280  Biso   1.000  H
  H756     1.0000 0.69690  0.81290  0.11080  Biso   1.000  H
  H757     1.0000 0.69840  0.80940  0.14130  Biso   1.000  H
  C880     1.0000 0.76680  0.88291  0.13101  Biso   1.000  C
  H758     1.0000 0.75020  0.89130  0.13280  Biso   1.000  H
  H759     1.0000 0.77570  0.88970  0.11590  Biso   1.000  H
  H760     1.0000 0.77720  0.88620  0.14630  Biso   1.000  H
  Zn41     1.0000 0.87070  0.88240  0.12485  Biso   1.000  Zn
  N81      1.0000 0.90295  0.88667  0.09655  Biso   1.000  N
  C881     1.0000 0.89800  0.88464  0.06930  Biso   1.000  C
  C882     1.0000 0.92041  0.89392  0.05580  Biso   1.000  C
  H761     1.0000 0.92240  0.89480  0.03770  Biso   1.000  H
  C883     1.0000 0.93921  0.90169  0.07470  Biso   1.000  C
  H762     1.0000 0.95570  0.90850  0.07120  Biso   1.000  H
  C884     1.0000 0.92842  0.89720  0.09988  Biso   1.000  C
  C885     1.0000 0.93859  0.90140  0.12491  Biso   1.000  C
  N82      1.0000 0.90283  0.88659  0.15328  Biso   1.000  N
  C886     1.0000 0.92829  0.89710  0.14980  Biso   1.000  C
  C887     1.0000 0.93922  0.90159  0.17492  Biso   1.000  C
  H763     1.0000 0.95570  0.90840  0.17830  Biso   1.000  H
  C888     1.0000 0.92052  0.89386  0.19393  Biso   1.000  C
  H764     1.0000 0.92260  0.89470  0.21200  Biso   1.000  H
  C889     1.0000 0.89803  0.88458  0.18055  Biso   1.000  C
  C890     1.0000 0.89030  0.85720  0.01525  Biso   1.000  C
  H765     1.0000 0.90050  0.84520  0.02430  Biso   1.000  H
  C891     1.0000 0.89020  0.85730  0.98807  Biso   1.000  C
  H766     1.0000 0.90040  0.84530  0.97890  Biso   1.000  H
  O81      1.0000 0.88930  0.85930  0.93301  Biso   1.000  O
  C892     1.0000 0.86290  0.89520  0.23441  Biso   1.000  C
  H767     1.0000 0.85480  0.90870  0.22530  Biso   1.000  H
  C893     1.0000 0.86280  0.89530  0.26159  Biso   1.000  C
  H768     1.0000 0.85470  0.90890  0.27060  Biso   1.000  H
  O82      1.0000 0.86080  0.89090  0.31687  Biso   1.000  O
  C894     1.0000 0.96565  0.91259  0.12492  Biso   1.000  C
  C895     1.0000 0.96930  0.93935  0.12200  Biso   1.000  C
  C896     1.0000 0.99440  0.94972  0.12200  Biso   1.000  C
  H769     1.0000 0.99690  0.96760  0.12000  Biso   1.000  H
  C897     1.0000 0.01590  0.93330  0.12493  Biso   1.000  C
  C898     1.0000 0.01224  0.90650  0.12785  Biso   1.000  C
  H770     1.0000 0.02660  0.89560  0.12980  Biso   1.000  H
  C899     1.0000 0.98710  0.89617  0.12784  Biso   1.000  C
  C900     1.0000 0.94600  0.95718  0.11883  Biso   1.000  C
  H771     1.0000 0.95190  0.97490  0.11710  Biso   1.000  H
  H772     1.0000 0.93490  0.95570  0.13390  Biso   1.000  H
  H773     1.0000 0.93640  0.95220  0.10350  Biso   1.000  H
  C901     1.0000 0.04320  0.94460  0.12494  Biso   1.000  C
  H774     1.0000 0.04230  0.96320  0.12280  Biso   1.000  H
  H775     1.0000 0.05310  0.93710  0.11080  Biso   1.000  H
  H776     1.0000 0.05160  0.94060  0.14130  Biso   1.000  H
  C902     1.0000 0.98320  0.86709  0.13101  Biso   1.000  C
  H777     1.0000 0.99980  0.85870  0.13280  Biso   1.000  H
  H778     1.0000 0.97430  0.86030  0.11590  Biso   1.000  H
  H779     1.0000 0.97280  0.86380  0.14630  Biso   1.000  H
  Zn42     1.0000 0.87070  0.38240  0.62485  Biso   1.000  Zn
  N83      1.0000 0.90295  0.38667  0.59655  Biso   1.000  N
  C903     1.0000 0.89800  0.38464  0.56930  Biso   1.000  C
  C904     1.0000 0.92041  0.39392  0.55580  Biso   1.000  C
  H780     1.0000 0.92240  0.39480  0.53770  Biso   1.000  H
  C905     1.0000 0.93921  0.40169  0.57470  Biso   1.000  C
  H781     1.0000 0.95570  0.40850  0.57120  Biso   1.000  H
  C906     1.0000 0.92842  0.39720  0.59988  Biso   1.000  C
  C907     1.0000 0.93859  0.40140  0.62491  Biso   1.000  C
  N84      1.0000 0.90283  0.38659  0.65328  Biso   1.000  N
  C908     1.0000 0.92829  0.39710  0.64980  Biso   1.000  C
  C909     1.0000 0.93922  0.40159  0.67492  Biso   1.000  C
  H782     1.0000 0.95570  0.40840  0.67830  Biso   1.000  H
  C910     1.0000 0.92052  0.39386  0.69393  Biso   1.000  C
  H783     1.0000 0.92260  0.39470  0.71200  Biso   1.000  H
  C911     1.0000 0.89803  0.38458  0.68055  Biso   1.000  C
  C912     1.0000 0.89030  0.35720  0.51525  Biso   1.000  C
  H784     1.0000 0.90050  0.34520  0.52430  Biso   1.000  H
  C913     1.0000 0.89020  0.35730  0.48807  Biso   1.000  C
  H785     1.0000 0.90040  0.34530  0.47890  Biso   1.000  H
  O83      1.0000 0.88930  0.35930  0.43301  Biso   1.000  O
  C914     1.0000 0.86290  0.39520  0.73441  Biso   1.000  C
  H786     1.0000 0.85480  0.40870  0.72530  Biso   1.000  H
  C915     1.0000 0.86280  0.39530  0.76159  Biso   1.000  C
  H787     1.0000 0.85470  0.40890  0.77060  Biso   1.000  H
  O84      1.0000 0.86080  0.39090  0.81687  Biso   1.000  O
  C916     1.0000 0.96565  0.41259  0.62492  Biso   1.000  C
  C917     1.0000 0.96930  0.43935  0.62200  Biso   1.000  C
  C918     1.0000 0.99440  0.44972  0.62200  Biso   1.000  C
  H788     1.0000 0.99690  0.46760  0.62000  Biso   1.000  H
  C919     1.0000 0.01590  0.43330  0.62493  Biso   1.000  C
  C920     1.0000 0.01224  0.40650  0.62785  Biso   1.000  C
  H789     1.0000 0.02660  0.39560  0.62980  Biso   1.000  H
  C921     1.0000 0.98710  0.39617  0.62784  Biso   1.000  C
  C922     1.0000 0.94600  0.45718  0.61883  Biso   1.000  C
  H790     1.0000 0.95190  0.47490  0.61710  Biso   1.000  H
  H791     1.0000 0.93490  0.45570  0.63390  Biso   1.000  H
  H792     1.0000 0.93640  0.45220  0.60350  Biso   1.000  H
  C923     1.0000 0.04320  0.44460  0.62494  Biso   1.000  C
  H793     1.0000 0.04230  0.46320  0.62280  Biso   1.000  H
  H794     1.0000 0.05310  0.43710  0.61080  Biso   1.000  H
  H795     1.0000 0.05160  0.44060  0.64130  Biso   1.000  H
  C924     1.0000 0.98320  0.36709  0.63101  Biso   1.000  C
  H796     1.0000 0.99980  0.35870  0.63280  Biso   1.000  H
  H797     1.0000 0.97430  0.36030  0.61590  Biso   1.000  H
  H798     1.0000 0.97280  0.36380  0.64630  Biso   1.000  H
  Zn43     1.0000 0.37070  0.88240  0.62485  Biso   1.000  Zn
  N85      1.0000 0.40295  0.88667  0.59655  Biso   1.000  N
  C925     1.0000 0.39800  0.88464  0.56930  Biso   1.000  C
  C926     1.0000 0.42041  0.89392  0.55580  Biso   1.000  C
  H799     1.0000 0.42240  0.89480  0.53770  Biso   1.000  H
  C927     1.0000 0.43921  0.90169  0.57470  Biso   1.000  C
  H800     1.0000 0.45570  0.90850  0.57120  Biso   1.000  H
  C928     1.0000 0.42842  0.89720  0.59988  Biso   1.000  C
  C929     1.0000 0.43859  0.90140  0.62491  Biso   1.000  C
  N86      1.0000 0.40283  0.88659  0.65328  Biso   1.000  N
  C930     1.0000 0.42829  0.89710  0.64980  Biso   1.000  C
  C931     1.0000 0.43922  0.90159  0.67492  Biso   1.000  C
  H801     1.0000 0.45570  0.90840  0.67830  Biso   1.000  H
  C932     1.0000 0.42052  0.89386  0.69393  Biso   1.000  C
  H802     1.0000 0.42260  0.89470  0.71200  Biso   1.000  H
  C933     1.0000 0.39803  0.88458  0.68055  Biso   1.000  C
  C934     1.0000 0.39030  0.85720  0.51525  Biso   1.000  C
  H803     1.0000 0.40050  0.84520  0.52430  Biso   1.000  H
  C935     1.0000 0.39020  0.85730  0.48807  Biso   1.000  C
  H804     1.0000 0.40040  0.84530  0.47890  Biso   1.000  H
  O85      1.0000 0.38930  0.85930  0.43301  Biso   1.000  O
  C936     1.0000 0.36290  0.89520  0.73441  Biso   1.000  C
  H805     1.0000 0.35480  0.90870  0.72530  Biso   1.000  H
  C937     1.0000 0.36280  0.89530  0.76159  Biso   1.000  C
  H806     1.0000 0.35470  0.90890  0.77060  Biso   1.000  H
  O86      1.0000 0.36080  0.89090  0.81687  Biso   1.000  O
  C938     1.0000 0.46565  0.91259  0.62492  Biso   1.000  C
  C939     1.0000 0.46930  0.93935  0.62200  Biso   1.000  C
  C940     1.0000 0.49440  0.94972  0.62200  Biso   1.000  C
  H807     1.0000 0.49690  0.96760  0.62000  Biso   1.000  H
  C941     1.0000 0.51590  0.93330  0.62493  Biso   1.000  C
  C942     1.0000 0.51224  0.90650  0.62785  Biso   1.000  C
  H808     1.0000 0.52660  0.89560  0.62980  Biso   1.000  H
  C943     1.0000 0.48710  0.89617  0.62784  Biso   1.000  C
  C944     1.0000 0.44600  0.95718  0.61883  Biso   1.000  C
  H809     1.0000 0.45190  0.97490  0.61710  Biso   1.000  H
  H810     1.0000 0.43490  0.95570  0.63390  Biso   1.000  H
  H811     1.0000 0.43640  0.95220  0.60350  Biso   1.000  H
  C945     1.0000 0.54320  0.94460  0.62494  Biso   1.000  C
  H812     1.0000 0.54230  0.96320  0.62280  Biso   1.000  H
  H813     1.0000 0.55310  0.93710  0.61080  Biso   1.000  H
  H814     1.0000 0.55160  0.94060  0.64130  Biso   1.000  H
  C946     1.0000 0.48320  0.86709  0.63101  Biso   1.000  C
  H815     1.0000 0.49980  0.85870  0.63280  Biso   1.000  H
  H816     1.0000 0.47430  0.86030  0.61590  Biso   1.000  H
  H817     1.0000 0.47280  0.86380  0.64630  Biso   1.000  H
  Zn44     1.0000 0.37070  0.38240  0.12485  Biso   1.000  Zn
  N87      1.0000 0.40295  0.38667  0.09655  Biso   1.000  N
  C947     1.0000 0.39800  0.38464  0.06930  Biso   1.000  C
  C948     1.0000 0.42041  0.39392  0.05580  Biso   1.000  C
  H818     1.0000 0.42240  0.39480  0.03770  Biso   1.000  H
  C949     1.0000 0.43921  0.40169  0.07470  Biso   1.000  C
  H819     1.0000 0.45570  0.40850  0.07120  Biso   1.000  H
  C950     1.0000 0.42842  0.39720  0.09988  Biso   1.000  C
  C951     1.0000 0.43859  0.40140  0.12491  Biso   1.000  C
  N88      1.0000 0.40283  0.38659  0.15328  Biso   1.000  N
  C952     1.0000 0.42829  0.39710  0.14980  Biso   1.000  C
  C953     1.0000 0.43922  0.40159  0.17492  Biso   1.000  C
  H820     1.0000 0.45570  0.40840  0.17830  Biso   1.000  H
  C954     1.0000 0.42052  0.39386  0.19393  Biso   1.000  C
  H821     1.0000 0.42260  0.39470  0.21200  Biso   1.000  H
  C955     1.0000 0.39803  0.38458  0.18055  Biso   1.000  C
  C956     1.0000 0.39030  0.35720  0.01525  Biso   1.000  C
  H822     1.0000 0.40050  0.34520  0.02430  Biso   1.000  H
  C957     1.0000 0.39020  0.35730  0.98807  Biso   1.000  C
  H823     1.0000 0.40040  0.34530  0.97890  Biso   1.000  H
  O87      1.0000 0.38930  0.35930  0.93301  Biso   1.000  O
  C958     1.0000 0.36290  0.39520  0.23441  Biso   1.000  C
  H824     1.0000 0.35480  0.40870  0.22530  Biso   1.000  H
  C959     1.0000 0.36280  0.39530  0.26159  Biso   1.000  C
  H825     1.0000 0.35470  0.40890  0.27060  Biso   1.000  H
  O88      1.0000 0.36080  0.39090  0.31687  Biso   1.000  O
  C960     1.0000 0.46565  0.41259  0.12492  Biso   1.000  C
  C961     1.0000 0.46930  0.43935  0.12200  Biso   1.000  C
  C962     1.0000 0.49440  0.44972  0.12200  Biso   1.000  C
  H826     1.0000 0.49690  0.46760  0.12000  Biso   1.000  H
  C963     1.0000 0.51590  0.43330  0.12493  Biso   1.000  C
  C964     1.0000 0.51224  0.40650  0.12785  Biso   1.000  C
  H827     1.0000 0.52660  0.39560  0.12980  Biso   1.000  H
  C965     1.0000 0.48710  0.39617  0.12784  Biso   1.000  C
  C966     1.0000 0.44600  0.45718  0.11883  Biso   1.000  C
  H828     1.0000 0.45190  0.47490  0.11710  Biso   1.000  H
  H829     1.0000 0.43490  0.45570  0.13390  Biso   1.000  H
  H830     1.0000 0.43640  0.45220  0.10350  Biso   1.000  H
  C967     1.0000 0.54320  0.44460  0.12494  Biso   1.000  C
  H831     1.0000 0.54230  0.46320  0.12280  Biso   1.000  H
  H832     1.0000 0.55310  0.43710  0.11080  Biso   1.000  H
  H833     1.0000 0.55160  0.44060  0.14130  Biso   1.000  H
  C968     1.0000 0.48320  0.36709  0.13101  Biso   1.000  C
  H834     1.0000 0.49980  0.35870  0.13280  Biso   1.000  H
  H835     1.0000 0.47430  0.36030  0.11590  Biso   1.000  H
  H836     1.0000 0.47280  0.36380  0.14630  Biso   1.000  H
  Zn45     1.0000 0.37930  0.88240  0.12515  Biso   1.000  Zn
  N89      1.0000 0.34705  0.88667  0.15345  Biso   1.000  N
  C969     1.0000 0.35200  0.88464  0.18070  Biso   1.000  C
  C970     1.0000 0.32959  0.89392  0.19420  Biso   1.000  C
  H837     1.0000 0.32760  0.89480  0.21230  Biso   1.000  H
  C971     1.0000 0.31079  0.90169  0.17530  Biso   1.000  C
  H838     1.0000 0.29430  0.90850  0.17880  Biso   1.000  H
  C972     1.0000 0.32158  0.89720  0.15012  Biso   1.000  C
  C973     1.0000 0.31141  0.90140  0.12509  Biso   1.000  C
  N90      1.0000 0.34717  0.88659  0.09672  Biso   1.000  N
  C974     1.0000 0.32171  0.89710  0.10020  Biso   1.000  C
  C975     1.0000 0.31078  0.90159  0.07508  Biso   1.000  C
  H839     1.0000 0.29430  0.90840  0.07170  Biso   1.000  H
  C976     1.0000 0.32948  0.89386  0.05607  Biso   1.000  C
  H840     1.0000 0.32740  0.89470  0.03800  Biso   1.000  H
  C977     1.0000 0.35197  0.88458  0.06945  Biso   1.000  C
  C978     1.0000 0.35970  0.85720  0.23475  Biso   1.000  C
  H841     1.0000 0.34950  0.84520  0.22570  Biso   1.000  H
  C979     1.0000 0.35980  0.85730  0.26193  Biso   1.000  C
  H842     1.0000 0.34960  0.84530  0.27110  Biso   1.000  H
  O89      1.0000 0.36070  0.85930  0.31699  Biso   1.000  O
  C980     1.0000 0.38710  0.89520  0.01559  Biso   1.000  C
  H843     1.0000 0.39520  0.90870  0.02470  Biso   1.000  H
  C981     1.0000 0.38720  0.89530  0.98841  Biso   1.000  C
  H844     1.0000 0.39530  0.90890  0.97940  Biso   1.000  H
  O90      1.0000 0.38920  0.89090  0.93313  Biso   1.000  O
  C982     1.0000 0.28435  0.91259  0.12508  Biso   1.000  C
  C983     1.0000 0.28070  0.93935  0.12800  Biso   1.000  C
  C984     1.0000 0.25560  0.94972  0.12800  Biso   1.000  C
  H845     1.0000 0.25310  0.96760  0.13000  Biso   1.000  H
  C985     1.0000 0.23410  0.93330  0.12507  Biso   1.000  C
  C986     1.0000 0.23776  0.90650  0.12215  Biso   1.000  C
  H846     1.0000 0.22340  0.89560  0.12020  Biso   1.000  H
  C987     1.0000 0.26290  0.89617  0.12216  Biso   1.000  C
  C988     1.0000 0.30400  0.95718  0.13117  Biso   1.000  C
  H847     1.0000 0.29810  0.97490  0.13290  Biso   1.000  H
  H848     1.0000 0.31510  0.95570  0.11610  Biso   1.000  H
  H849     1.0000 0.31360  0.95220  0.14650  Biso   1.000  H
  C989     1.0000 0.20680  0.94460  0.12506  Biso   1.000  C
  H850     1.0000 0.20770  0.96320  0.12720  Biso   1.000  H
  H851     1.0000 0.19690  0.93710  0.13920  Biso   1.000  H
  H852     1.0000 0.19840  0.94060  0.10870  Biso   1.000  H
  C990     1.0000 0.26680  0.86709  0.11899  Biso   1.000  C
  H853     1.0000 0.25020  0.85870  0.11720  Biso   1.000  H
  H854     1.0000 0.27570  0.86030  0.13410  Biso   1.000  H
  H855     1.0000 0.27720  0.86380  0.10370  Biso   1.000  H
  Zn46     1.0000 0.37930  0.38240  0.62515  Biso   1.000  Zn
  N91      1.0000 0.34705  0.38667  0.65345  Biso   1.000  N
  C991     1.0000 0.35200  0.38464  0.68070  Biso   1.000  C
  C992     1.0000 0.32959  0.39392  0.69420  Biso   1.000  C
  H856     1.0000 0.32760  0.39480  0.71230  Biso   1.000  H
  C993     1.0000 0.31079  0.40169  0.67530  Biso   1.000  C
  H857     1.0000 0.29430  0.40850  0.67880  Biso   1.000  H
  C994     1.0000 0.32158  0.39720  0.65012  Biso   1.000  C
  C995     1.0000 0.31141  0.40140  0.62509  Biso   1.000  C
  N92      1.0000 0.34717  0.38659  0.59672  Biso   1.000  N
  C996     1.0000 0.32171  0.39710  0.60020  Biso   1.000  C
  C997     1.0000 0.31078  0.40159  0.57508  Biso   1.000  C
  H858     1.0000 0.29430  0.40840  0.57170  Biso   1.000  H
  C998     1.0000 0.32948  0.39386  0.55607  Biso   1.000  C
  H859     1.0000 0.32740  0.39470  0.53800  Biso   1.000  H
  C999     1.0000 0.35197  0.38458  0.56945  Biso   1.000  C
  C1000    1.0000 0.35970  0.35720  0.73475  Biso   1.000  C
  H860     1.0000 0.34950  0.34520  0.72570  Biso   1.000  H
  C1001    1.0000 0.35980  0.35730  0.76193  Biso   1.000  C
  H861     1.0000 0.34960  0.34530  0.77110  Biso   1.000  H
  O91      1.0000 0.36070  0.35930  0.81699  Biso   1.000  O
  C1002    1.0000 0.38710  0.39520  0.51559  Biso   1.000  C
  H862     1.0000 0.39520  0.40870  0.52470  Biso   1.000  H
  C1003    1.0000 0.38720  0.39530  0.48841  Biso   1.000  C
  H863     1.0000 0.39530  0.40890  0.47940  Biso   1.000  H
  O92      1.0000 0.38920  0.39090  0.43313  Biso   1.000  O
  C1004    1.0000 0.28435  0.41259  0.62508  Biso   1.000  C
  C1005    1.0000 0.28070  0.43935  0.62800  Biso   1.000  C
  C1006    1.0000 0.25560  0.44972  0.62800  Biso   1.000  C
  H864     1.0000 0.25310  0.46760  0.63000  Biso   1.000  H
  C1007    1.0000 0.23410  0.43330  0.62507  Biso   1.000  C
  C1008    1.0000 0.23776  0.40650  0.62215  Biso   1.000  C
  H865     1.0000 0.22340  0.39560  0.62020  Biso   1.000  H
  C1009    1.0000 0.26290  0.39617  0.62216  Biso   1.000  C
  C1010    1.0000 0.30400  0.45718  0.63117  Biso   1.000  C
  H866     1.0000 0.29810  0.47490  0.63290  Biso   1.000  H
  H867     1.0000 0.31510  0.45570  0.61610  Biso   1.000  H
  H868     1.0000 0.31360  0.45220  0.64650  Biso   1.000  H
  C1011    1.0000 0.20680  0.44460  0.62506  Biso   1.000  C
  H869     1.0000 0.20770  0.46320  0.62720  Biso   1.000  H
  H870     1.0000 0.19690  0.43710  0.63920  Biso   1.000  H
  H871     1.0000 0.19840  0.44060  0.60870  Biso   1.000  H
  C1012    1.0000 0.26680  0.36709  0.61899  Biso   1.000  C
  H872     1.0000 0.25020  0.35870  0.61720  Biso   1.000  H
  H873     1.0000 0.27570  0.36030  0.63410  Biso   1.000  H
  H874     1.0000 0.27720  0.36380  0.60370  Biso   1.000  H
  Zn47     1.0000 0.87930  0.88240  0.62515  Biso   1.000  Zn
  N93      1.0000 0.84705  0.88667  0.65345  Biso   1.000  N
  C1013    1.0000 0.85200  0.88464  0.68070  Biso   1.000  C
  C1014    1.0000 0.82959  0.89392  0.69420  Biso   1.000  C
  H875     1.0000 0.82760  0.89480  0.71230  Biso   1.000  H
  C1015    1.0000 0.81079  0.90169  0.67530  Biso   1.000  C
  H876     1.0000 0.79430  0.90850  0.67880  Biso   1.000  H
  C1016    1.0000 0.82158  0.89720  0.65012  Biso   1.000  C
  C1017    1.0000 0.81141  0.90140  0.62509  Biso   1.000  C
  N94      1.0000 0.84717  0.88659  0.59672  Biso   1.000  N
  C1018    1.0000 0.82171  0.89710  0.60020  Biso   1.000  C
  C1019    1.0000 0.81078  0.90159  0.57508  Biso   1.000  C
  H877     1.0000 0.79430  0.90840  0.57170  Biso   1.000  H
  C1020    1.0000 0.82948  0.89386  0.55607  Biso   1.000  C
  H878     1.0000 0.82740  0.89470  0.53800  Biso   1.000  H
  C1021    1.0000 0.85197  0.88458  0.56945  Biso   1.000  C
  C1022    1.0000 0.85970  0.85720  0.73475  Biso   1.000  C
  H879     1.0000 0.84950  0.84520  0.72570  Biso   1.000  H
  C1023    1.0000 0.85980  0.85730  0.76193  Biso   1.000  C
  H880     1.0000 0.84960  0.84530  0.77110  Biso   1.000  H
  O93      1.0000 0.86070  0.85930  0.81699  Biso   1.000  O
  C1024    1.0000 0.88710  0.89520  0.51559  Biso   1.000  C
  H881     1.0000 0.89520  0.90870  0.52470  Biso   1.000  H
  C1025    1.0000 0.88720  0.89530  0.48841  Biso   1.000  C
  H882     1.0000 0.89530  0.90890  0.47940  Biso   1.000  H
  O94      1.0000 0.88920  0.89090  0.43313  Biso   1.000  O
  C1026    1.0000 0.78435  0.91259  0.62508  Biso   1.000  C
  C1027    1.0000 0.78070  0.93935  0.62800  Biso   1.000  C
  C1028    1.0000 0.75560  0.94972  0.62800  Biso   1.000  C
  H883     1.0000 0.75310  0.96760  0.63000  Biso   1.000  H
  C1029    1.0000 0.73410  0.93330  0.62507  Biso   1.000  C
  C1030    1.0000 0.73776  0.90650  0.62215  Biso   1.000  C
  H884     1.0000 0.72340  0.89560  0.62020  Biso   1.000  H
  C1031    1.0000 0.76290  0.89617  0.62216  Biso   1.000  C
  C1032    1.0000 0.80400  0.95718  0.63117  Biso   1.000  C
  H885     1.0000 0.79810  0.97490  0.63290  Biso   1.000  H
  H886     1.0000 0.81510  0.95570  0.61610  Biso   1.000  H
  H887     1.0000 0.81360  0.95220  0.64650  Biso   1.000  H
  C1033    1.0000 0.70680  0.94460  0.62506  Biso   1.000  C
  H888     1.0000 0.70770  0.96320  0.62720  Biso   1.000  H
  H889     1.0000 0.69690  0.93710  0.63920  Biso   1.000  H
  H890     1.0000 0.69840  0.94060  0.60870  Biso   1.000  H
  C1034    1.0000 0.76680  0.86709  0.61899  Biso   1.000  C
  H891     1.0000 0.75020  0.85870  0.61720  Biso   1.000  H
  H892     1.0000 0.77570  0.86030  0.63410  Biso   1.000  H
  H893     1.0000 0.77720  0.86380  0.60370  Biso   1.000  H
  Zn48     1.0000 0.87930  0.38240  0.12515  Biso   1.000  Zn
  N95      1.0000 0.84705  0.38667  0.15345  Biso   1.000  N
  C1035    1.0000 0.85200  0.38464  0.18070  Biso   1.000  C
  C1036    1.0000 0.82959  0.39392  0.19420  Biso   1.000  C
  H894     1.0000 0.82760  0.39480  0.21230  Biso   1.000  H
  C1037    1.0000 0.81079  0.40169  0.17530  Biso   1.000  C
  H895     1.0000 0.79430  0.40850  0.17880  Biso   1.000  H
  C1038    1.0000 0.82158  0.39720  0.15012  Biso   1.000  C
  C1039    1.0000 0.81141  0.40140  0.12509  Biso   1.000  C
  N96      1.0000 0.84717  0.38659  0.09672  Biso   1.000  N
  C1040    1.0000 0.82171  0.39710  0.10020  Biso   1.000  C
  C1041    1.0000 0.81078  0.40159  0.07508  Biso   1.000  C
  H896     1.0000 0.79430  0.40840  0.07170  Biso   1.000  H
  C1042    1.0000 0.82948  0.39386  0.05607  Biso   1.000  C
  H897     1.0000 0.82740  0.39470  0.03800  Biso   1.000  H
  C1043    1.0000 0.85197  0.38458  0.06945  Biso   1.000  C
  C1044    1.0000 0.85970  0.35720  0.23475  Biso   1.000  C
  H898     1.0000 0.84950  0.34520  0.22570  Biso   1.000  H
  C1045    1.0000 0.85980  0.35730  0.26193  Biso   1.000  C
  H899     1.0000 0.84960  0.34530  0.27110  Biso   1.000  H
  O95      1.0000 0.86070  0.35930  0.31699  Biso   1.000  O
  C1046    1.0000 0.88710  0.39520  0.01559  Biso   1.000  C
  H900     1.0000 0.89520  0.40870  0.02470  Biso   1.000  H
  C1047    1.0000 0.88720  0.39530  0.98841  Biso   1.000  C
  H901     1.0000 0.89530  0.40890  0.97940  Biso   1.000  H
  O96      1.0000 0.88920  0.39090  0.93313  Biso   1.000  O
  C1048    1.0000 0.78435  0.41259  0.12508  Biso   1.000  C
  C1049    1.0000 0.78070  0.43935  0.12800  Biso   1.000  C
  C1050    1.0000 0.75560  0.44972  0.12800  Biso   1.000  C
  H902     1.0000 0.75310  0.46760  0.13000  Biso   1.000  H
  C1051    1.0000 0.73410  0.43330  0.12507  Biso   1.000  C
  C1052    1.0000 0.73776  0.40650  0.12215  Biso   1.000  C
  H903     1.0000 0.72340  0.39560  0.12020  Biso   1.000  H
  C1053    1.0000 0.76290  0.39617  0.12216  Biso   1.000  C
  C1054    1.0000 0.80400  0.45718  0.13117  Biso   1.000  C
  H904     1.0000 0.79810  0.47490  0.13290  Biso   1.000  H
  H905     1.0000 0.81510  0.45570  0.11610  Biso   1.000  H
  H906     1.0000 0.81360  0.45220  0.14650  Biso   1.000  H
  C1055    1.0000 0.70680  0.44460  0.12506  Biso   1.000  C
  H907     1.0000 0.70770  0.46320  0.12720  Biso   1.000  H
  H908     1.0000 0.69690  0.43710  0.13920  Biso   1.000  H
  H909     1.0000 0.69840  0.44060  0.10870  Biso   1.000  H
  C1056    1.0000 0.76680  0.36709  0.11899  Biso   1.000  C
  H910     1.0000 0.75020  0.35870  0.11720  Biso   1.000  H
  H911     1.0000 0.77570  0.36030  0.13410  Biso   1.000  H
  H912     1.0000 0.77720  0.36380  0.10370  Biso   1.000  H
  O97      1.0000 0.37500  0.87500  0.37500  Biso   1.000  O
  O98      1.0000 0.87500  0.37500  0.37500  Biso   1.000  O
  O99      1.0000 0.87500  0.87500  0.87500  Biso   1.000  O
  O100     1.0000 0.37500  0.37500  0.87500  Biso   1.000  O
  Zn49     1.0000 0.35328  0.89672  0.39672  Biso   1.000  Zn
  Zn50     1.0000 0.89672  0.35328  0.39672  Biso   1.000  Zn
  Zn51     1.0000 0.89672  0.89672  0.85328  Biso   1.000  Zn
  Zn52     1.0000 0.35328  0.35328  0.85328  Biso   1.000  Zn
  Zn53     1.0000 0.39672  0.35328  0.89672  Biso   1.000  Zn
  Zn54     1.0000 0.39672  0.85328  0.39672  Biso   1.000  Zn
  Zn55     1.0000 0.39672  0.89672  0.35328  Biso   1.000  Zn
  Zn56     1.0000 0.39672  0.39672  0.85328  Biso   1.000  Zn
  Zn57     1.0000 0.85328  0.89672  0.89672  Biso   1.000  Zn
  Zn58     1.0000 0.85328  0.39672  0.39672  Biso   1.000  Zn
  Zn59     1.0000 0.85328  0.35328  0.35328  Biso   1.000  Zn
  Zn60     1.0000 0.85328  0.85328  0.85328  Biso   1.000  Zn
  Zn61     1.0000 0.89672  0.39672  0.35328  Biso   1.000  Zn
  Zn62     1.0000 0.35328  0.39672  0.89672  Biso   1.000  Zn
  Zn63     1.0000 0.89672  0.85328  0.89672  Biso   1.000  Zn
  Zn64     1.0000 0.35328  0.85328  0.35328  Biso   1.000  Zn
  O101     1.0000 0.87500  0.87500  0.37500  Biso   1.000  O
  O102     1.0000 0.37500  0.37500  0.37500  Biso   1.000  O
  O103     1.0000 0.37500  0.87500  0.87500  Biso   1.000  O
  O104     1.0000 0.87500  0.37500  0.87500  Biso   1.000  O
  Zn65     1.0000 0.89692  0.85308  0.35308  Biso   1.000  Zn
  Zn66     1.0000 0.35308  0.39692  0.35308  Biso   1.000  Zn
  Zn67     1.0000 0.35308  0.89692  0.85308  Biso   1.000  Zn
  Zn68     1.0000 0.85308  0.89692  0.35308  Biso   1.000  Zn
  Zn69     1.0000 0.35308  0.85308  0.89692  Biso   1.000  Zn
  Zn70     1.0000 0.85308  0.85308  0.39692  Biso   1.000  Zn
  Zn71     1.0000 0.89692  0.39692  0.89692  Biso   1.000  Zn
  Zn72     1.0000 0.85308  0.39692  0.85308  Biso   1.000  Zn
  Zn73     1.0000 0.35308  0.35308  0.39692  Biso   1.000  Zn
  Zn74     1.0000 0.85308  0.35308  0.89692  Biso   1.000  Zn
  Zn75     1.0000 0.89692  0.35308  0.85308  Biso   1.000  Zn
  Zn76     1.0000 0.89692  0.89692  0.39692  Biso   1.000  Zn
  Zn77     1.0000 0.39692  0.35308  0.35308  Biso   1.000  Zn
  Zn78     1.0000 0.39692  0.85308  0.85308  Biso   1.000  Zn
  Zn79     1.0000 0.39692  0.89692  0.89692  Biso   1.000  Zn
  Zn80     1.0000 0.39692  0.39692  0.39692  Biso   1.000  Zn
  C1057    1.0000 0.19180  0.87500  0.37500  Biso   1.000  C
  C1058    1.0000 0.05843  0.87500  0.37500  Biso   1.000  C
  C1059    1.0000 0.22105  0.87500  0.37500  Biso   1.000  C
  C1060    1.0000 0.27540  0.87500  0.37500  Biso   1.000  C
  C1061    1.0000 0.30480  0.87500  0.37500  Biso   1.000  C
  C1062    1.0000 0.02908  0.87500  0.37500  Biso   1.000  C
  C1063    1.0000 0.97473  0.87500  0.37500  Biso   1.000  C
  C1064    1.0000 0.94530  0.87500  0.37500  Biso   1.000  C
  C1065    1.0000 0.69180  0.87500  0.87500  Biso   1.000  C
  C1066    1.0000 0.55843  0.87500  0.87500  Biso   1.000  C
  C1067    1.0000 0.72105  0.87500  0.87500  Biso   1.000  C
  C1068    1.0000 0.77540  0.87500  0.87500  Biso   1.000  C
  C1069    1.0000 0.80480  0.87500  0.87500  Biso   1.000  C
  C1070    1.0000 0.52908  0.87500  0.87500  Biso   1.000  C
  C1071    1.0000 0.47473  0.87500  0.87500  Biso   1.000  C
  C1072    1.0000 0.44530  0.87500  0.87500  Biso   1.000  C
  C1073    1.0000 0.05820  0.37500  0.37500  Biso   1.000  C
  C1074    1.0000 0.19157  0.37500  0.37500  Biso   1.000  C
  C1075    1.0000 0.02895  0.37500  0.37500  Biso   1.000  C
  C1076    1.0000 0.97460  0.37500  0.37500  Biso   1.000  C
  C1077    1.0000 0.94520  0.37500  0.37500  Biso   1.000  C
  C1078    1.0000 0.22092  0.37500  0.37500  Biso   1.000  C
  C1079    1.0000 0.27527  0.37500  0.37500  Biso   1.000  C
  C1080    1.0000 0.30470  0.37500  0.37500  Biso   1.000  C
  C1081    1.0000 0.55820  0.37500  0.87500  Biso   1.000  C
  C1082    1.0000 0.69157  0.37500  0.87500  Biso   1.000  C
  C1083    1.0000 0.52895  0.37500  0.87500  Biso   1.000  C
  C1084    1.0000 0.47460  0.37500  0.87500  Biso   1.000  C
  C1085    1.0000 0.44520  0.37500  0.87500  Biso   1.000  C
  C1086    1.0000 0.72092  0.37500  0.87500  Biso   1.000  C
  C1087    1.0000 0.77527  0.37500  0.87500  Biso   1.000  C
  C1088    1.0000 0.80470  0.37500  0.87500  Biso   1.000  C
  C1089    1.0000 0.05820  0.87500  0.87500  Biso   1.000  C
  C1090    1.0000 0.19157  0.87500  0.87500  Biso   1.000  C
  C1091    1.0000 0.02895  0.87500  0.87500  Biso   1.000  C
  C1092    1.0000 0.97460  0.87500  0.87500  Biso   1.000  C
  C1093    1.0000 0.94520  0.87500  0.87500  Biso   1.000  C
  C1094    1.0000 0.22092  0.87500  0.87500  Biso   1.000  C
  C1095    1.0000 0.27527  0.87500  0.87500  Biso   1.000  C
  C1096    1.0000 0.30470  0.87500  0.87500  Biso   1.000  C
  C1097    1.0000 0.55820  0.87500  0.37500  Biso   1.000  C
  C1098    1.0000 0.69157  0.87500  0.37500  Biso   1.000  C
  C1099    1.0000 0.52895  0.87500  0.37500  Biso   1.000  C
  C1100    1.0000 0.47460  0.87500  0.37500  Biso   1.000  C
  C1101    1.0000 0.44520  0.87500  0.37500  Biso   1.000  C
  C1102    1.0000 0.72092  0.87500  0.37500  Biso   1.000  C
  C1103    1.0000 0.77527  0.87500  0.37500  Biso   1.000  C
  C1104    1.0000 0.80470  0.87500  0.37500  Biso   1.000  C
  C1105    1.0000 0.19180  0.37500  0.87500  Biso   1.000  C
  C1106    1.0000 0.05843  0.37500  0.87500  Biso   1.000  C
  C1107    1.0000 0.22105  0.37500  0.87500  Biso   1.000  C
  C1108    1.0000 0.27540  0.37500  0.87500  Biso   1.000  C
  C1109    1.0000 0.30480  0.37500  0.87500  Biso   1.000  C
  C1110    1.0000 0.02908  0.37500  0.87500  Biso   1.000  C
  C1111    1.0000 0.97473  0.37500  0.87500  Biso   1.000  C
  C1112    1.0000 0.94530  0.37500  0.87500  Biso   1.000  C
  C1113    1.0000 0.69180  0.37500  0.37500  Biso   1.000  C
  C1114    1.0000 0.55843  0.37500  0.37500  Biso   1.000  C
  C1115    1.0000 0.72105  0.37500  0.37500  Biso   1.000  C
  C1116    1.0000 0.77540  0.37500  0.37500  Biso   1.000  C
  C1117    1.0000 0.80480  0.37500  0.37500  Biso   1.000  C
  C1118    1.0000 0.52908  0.37500  0.37500  Biso   1.000  C
  C1119    1.0000 0.47473  0.37500  0.37500  Biso   1.000  C
  C1120    1.0000 0.44530  0.37500  0.37500  Biso   1.000  C
  C1121    1.0000 0.37500  0.19180  0.87500  Biso   1.000  C
  C1122    1.0000 0.37500  0.05843  0.87500  Biso   1.000  C
  C1123    1.0000 0.37500  0.22105  0.87500  Biso   1.000  C
  C1124    1.0000 0.37500  0.27540  0.87500  Biso   1.000  C
  C1125    1.0000 0.37500  0.30480  0.87500  Biso   1.000  C
  C1126    1.0000 0.37500  0.02908  0.87500  Biso   1.000  C
  C1127    1.0000 0.37500  0.97473  0.87500  Biso   1.000  C
  C1128    1.0000 0.37500  0.94530  0.87500  Biso   1.000  C
  C1129    1.0000 0.37500  0.69180  0.37500  Biso   1.000  C
  C1130    1.0000 0.37500  0.55843  0.37500  Biso   1.000  C
  C1131    1.0000 0.37500  0.72105  0.37500  Biso   1.000  C
  C1132    1.0000 0.37500  0.77540  0.37500  Biso   1.000  C
  C1133    1.0000 0.37500  0.80480  0.37500  Biso   1.000  C
  C1134    1.0000 0.37500  0.52908  0.37500  Biso   1.000  C
  C1135    1.0000 0.37500  0.47473  0.37500  Biso   1.000  C
  C1136    1.0000 0.37500  0.44530  0.37500  Biso   1.000  C
  C1137    1.0000 0.37500  0.05820  0.37500  Biso   1.000  C
  C1138    1.0000 0.37500  0.19157  0.37500  Biso   1.000  C
  C1139    1.0000 0.37500  0.02895  0.37500  Biso   1.000  C
  C1140    1.0000 0.37500  0.97460  0.37500  Biso   1.000  C
  C1141    1.0000 0.37500  0.94520  0.37500  Biso   1.000  C
  C1142    1.0000 0.37500  0.22092  0.37500  Biso   1.000  C
  C1143    1.0000 0.37500  0.27527  0.37500  Biso   1.000  C
  C1144    1.0000 0.37500  0.30470  0.37500  Biso   1.000  C
  C1145    1.0000 0.37500  0.55820  0.87500  Biso   1.000  C
  C1146    1.0000 0.37500  0.69157  0.87500  Biso   1.000  C
  C1147    1.0000 0.37500  0.52895  0.87500  Biso   1.000  C
  C1148    1.0000 0.37500  0.47460  0.87500  Biso   1.000  C
  C1149    1.0000 0.37500  0.44520  0.87500  Biso   1.000  C
  C1150    1.0000 0.37500  0.72092  0.87500  Biso   1.000  C
  C1151    1.0000 0.37500  0.77527  0.87500  Biso   1.000  C
  C1152    1.0000 0.37500  0.80470  0.87500  Biso   1.000  C
  C1153    1.0000 0.87500  0.05820  0.87500  Biso   1.000  C
  C1154    1.0000 0.87500  0.19157  0.87500  Biso   1.000  C
  C1155    1.0000 0.87500  0.02895  0.87500  Biso   1.000  C
  C1156    1.0000 0.87500  0.97460  0.87500  Biso   1.000  C
  C1157    1.0000 0.87500  0.94520  0.87500  Biso   1.000  C
  C1158    1.0000 0.87500  0.22092  0.87500  Biso   1.000  C
  C1159    1.0000 0.87500  0.27527  0.87500  Biso   1.000  C
  C1160    1.0000 0.87500  0.30470  0.87500  Biso   1.000  C
  C1161    1.0000 0.87500  0.55820  0.37500  Biso   1.000  C
  C1162    1.0000 0.87500  0.69157  0.37500  Biso   1.000  C
  C1163    1.0000 0.87500  0.52895  0.37500  Biso   1.000  C
  C1164    1.0000 0.87500  0.47460  0.37500  Biso   1.000  C
  C1165    1.0000 0.87500  0.44520  0.37500  Biso   1.000  C
  C1166    1.0000 0.87500  0.72092  0.37500  Biso   1.000  C
  C1167    1.0000 0.87500  0.77527  0.37500  Biso   1.000  C
  C1168    1.0000 0.87500  0.80470  0.37500  Biso   1.000  C
  C1169    1.0000 0.87500  0.19180  0.37500  Biso   1.000  C
  C1170    1.0000 0.87500  0.05843  0.37500  Biso   1.000  C
  C1171    1.0000 0.87500  0.22105  0.37500  Biso   1.000  C
  C1172    1.0000 0.87500  0.27540  0.37500  Biso   1.000  C
  C1173    1.0000 0.87500  0.30480  0.37500  Biso   1.000  C
  C1174    1.0000 0.87500  0.02908  0.37500  Biso   1.000  C
  C1175    1.0000 0.87500  0.97473  0.37500  Biso   1.000  C
  C1176    1.0000 0.87500  0.94530  0.37500  Biso   1.000  C
  C1177    1.0000 0.87500  0.69180  0.87500  Biso   1.000  C
  C1178    1.0000 0.87500  0.55843  0.87500  Biso   1.000  C
  C1179    1.0000 0.87500  0.72105  0.87500  Biso   1.000  C
  C1180    1.0000 0.87500  0.77540  0.87500  Biso   1.000  C
  C1181    1.0000 0.87500  0.80480  0.87500  Biso   1.000  C
  C1182    1.0000 0.87500  0.52908  0.87500  Biso   1.000  C
  C1183    1.0000 0.87500  0.47473  0.87500  Biso   1.000  C
  C1184    1.0000 0.87500  0.44530  0.87500  Biso   1.000  C
  C1185    1.0000 0.87500  0.37500  0.19180  Biso   1.000  C
  C1186    1.0000 0.87500  0.37500  0.05843  Biso   1.000  C
  C1187    1.0000 0.87500  0.37500  0.22105  Biso   1.000  C
  C1188    1.0000 0.87500  0.37500  0.27540  Biso   1.000  C
  C1189    1.0000 0.87500  0.37500  0.30480  Biso   1.000  C
  C1190    1.0000 0.87500  0.37500  0.02908  Biso   1.000  C
  C1191    1.0000 0.87500  0.37500  0.97473  Biso   1.000  C
  C1192    1.0000 0.87500  0.37500  0.94530  Biso   1.000  C
  C1193    1.0000 0.87500  0.87500  0.69180  Biso   1.000  C
  C1194    1.0000 0.87500  0.87500  0.55843  Biso   1.000  C
  C1195    1.0000 0.87500  0.87500  0.72105  Biso   1.000  C
  C1196    1.0000 0.87500  0.87500  0.77540  Biso   1.000  C
  C1197    1.0000 0.87500  0.87500  0.80480  Biso   1.000  C
  C1198    1.0000 0.87500  0.87500  0.52908  Biso   1.000  C
  C1199    1.0000 0.87500  0.87500  0.47473  Biso   1.000  C
  C1200    1.0000 0.87500  0.87500  0.44530  Biso   1.000  C
  C1201    1.0000 0.37500  0.37500  0.05820  Biso   1.000  C
  C1202    1.0000 0.37500  0.37500  0.19157  Biso   1.000  C
  C1203    1.0000 0.37500  0.37500  0.02895  Biso   1.000  C
  C1204    1.0000 0.37500  0.37500  0.97460  Biso   1.000  C
  C1205    1.0000 0.37500  0.37500  0.94520  Biso   1.000  C
  C1206    1.0000 0.37500  0.37500  0.22092  Biso   1.000  C
  C1207    1.0000 0.37500  0.37500  0.27527  Biso   1.000  C
  C1208    1.0000 0.37500  0.37500  0.30470  Biso   1.000  C
  C1209    1.0000 0.37500  0.87500  0.55820  Biso   1.000  C
  C1210    1.0000 0.37500  0.87500  0.69157  Biso   1.000  C
  C1211    1.0000 0.37500  0.87500  0.52895  Biso   1.000  C
  C1212    1.0000 0.37500  0.87500  0.47460  Biso   1.000  C
  C1213    1.0000 0.37500  0.87500  0.44520  Biso   1.000  C
  C1214    1.0000 0.37500  0.87500  0.72092  Biso   1.000  C
  C1215    1.0000 0.37500  0.87500  0.77527  Biso   1.000  C
  C1216    1.0000 0.37500  0.87500  0.80470  Biso   1.000  C
  C1217    1.0000 0.87500  0.87500  0.05820  Biso   1.000  C
  C1218    1.0000 0.87500  0.87500  0.19157  Biso   1.000  C
  C1219    1.0000 0.87500  0.87500  0.02895  Biso   1.000  C
  C1220    1.0000 0.87500  0.87500  0.97460  Biso   1.000  C
  C1221    1.0000 0.87500  0.87500  0.94520  Biso   1.000  C
  C1222    1.0000 0.87500  0.87500  0.22092  Biso   1.000  C
  C1223    1.0000 0.87500  0.87500  0.27527  Biso   1.000  C
  C1224    1.0000 0.87500  0.87500  0.30470  Biso   1.000  C
  C1225    1.0000 0.87500  0.37500  0.55820  Biso   1.000  C
  C1226    1.0000 0.87500  0.37500  0.69157  Biso   1.000  C
  C1227    1.0000 0.87500  0.37500  0.52895  Biso   1.000  C
  C1228    1.0000 0.87500  0.37500  0.47460  Biso   1.000  C
  C1229    1.0000 0.87500  0.37500  0.44520  Biso   1.000  C
  C1230    1.0000 0.87500  0.37500  0.72092  Biso   1.000  C
  C1231    1.0000 0.87500  0.37500  0.77527  Biso   1.000  C
  C1232    1.0000 0.87500  0.37500  0.80470  Biso   1.000  C
  C1233    1.0000 0.37500  0.87500  0.19180  Biso   1.000  C
  C1234    1.0000 0.37500  0.87500  0.05843  Biso   1.000  C
  C1235    1.0000 0.37500  0.87500  0.22105  Biso   1.000  C
  C1236    1.0000 0.37500  0.87500  0.27540  Biso   1.000  C
  C1237    1.0000 0.37500  0.87500  0.30480  Biso   1.000  C
  C1238    1.0000 0.37500  0.87500  0.02908  Biso   1.000  C
  C1239    1.0000 0.37500  0.87500  0.97473  Biso   1.000  C
  C1240    1.0000 0.37500  0.87500  0.94530  Biso   1.000  C
  C1241    1.0000 0.37500  0.37500  0.69180  Biso   1.000  C
  C1242    1.0000 0.37500  0.37500  0.55843  Biso   1.000  C
  C1243    1.0000 0.37500  0.37500  0.72105  Biso   1.000  C
  C1244    1.0000 0.37500  0.37500  0.77540  Biso   1.000  C
  C1245    1.0000 0.37500  0.37500  0.80480  Biso   1.000  C
  C1246    1.0000 0.37500  0.37500  0.52908  Biso   1.000  C
  C1247    1.0000 0.37500  0.37500  0.47473  Biso   1.000  C
  C1248    1.0000 0.37500  0.37500  0.44530  Biso   1.000  C
  Zn81     1.0000 0.87485  0.12930  0.63240  Biso   1.000  Zn
  N97      1.0000 0.84655  0.09705  0.63667  Biso   1.000  N
  C1249    1.0000 0.81930  0.10200  0.63464  Biso   1.000  C
  C1250    1.0000 0.80580  0.07959  0.64392  Biso   1.000  C
  H913     1.0000 0.78770  0.07760  0.64480  Biso   1.000  H
  C1251    1.0000 0.82470  0.06079  0.65169  Biso   1.000  C
  H914     1.0000 0.82120  0.04430  0.65850  Biso   1.000  H
  C1252    1.0000 0.84988  0.07158  0.64720  Biso   1.000  C
  C1253    1.0000 0.87491  0.06141  0.65140  Biso   1.000  C
  N98      1.0000 0.90328  0.09717  0.63659  Biso   1.000  N
  C1254    1.0000 0.89980  0.07171  0.64710  Biso   1.000  C
  C1255    1.0000 0.92492  0.06078  0.65159  Biso   1.000  C
  H915     1.0000 0.92830  0.04430  0.65840  Biso   1.000  H
  C1256    1.0000 0.94393  0.07948  0.64386  Biso   1.000  C
  H916     1.0000 0.96200  0.07740  0.64470  Biso   1.000  H
  C1257    1.0000 0.93055  0.10197  0.63458  Biso   1.000  C
  C1258    1.0000 0.76525  0.10970  0.60720  Biso   1.000  C
  H917     1.0000 0.77430  0.09950  0.59520  Biso   1.000  H
  C1259    1.0000 0.73807  0.10980  0.60730  Biso   1.000  C
  H918     1.0000 0.72890  0.09960  0.59530  Biso   1.000  H
  O105     1.0000 0.68301  0.11070  0.60930  Biso   1.000  O
  C1260    1.0000 0.98441  0.13710  0.64520  Biso   1.000  C
  H919     1.0000 0.97530  0.14520  0.65870  Biso   1.000  H
  C1261    1.0000 0.01159  0.13720  0.64530  Biso   1.000  C
  H920     1.0000 0.02060  0.14530  0.65890  Biso   1.000  H
  O106     1.0000 0.06687  0.13920  0.64090  Biso   1.000  O
  C1262    1.0000 0.87492  0.03435  0.66259  Biso   1.000  C
  C1263    1.0000 0.87200  0.03070  0.68935  Biso   1.000  C
  C1264    1.0000 0.87200  0.00560  0.69972  Biso   1.000  C
  H921     1.0000 0.87000  0.00310  0.71760  Biso   1.000  H
  C1265    1.0000 0.87493  0.98410  0.68330  Biso   1.000  C
  C1266    1.0000 0.87785  0.98776  0.65650  Biso   1.000  C
  H922     1.0000 0.87980  0.97340  0.64560  Biso   1.000  H
  C1267    1.0000 0.87784  0.01290  0.64617  Biso   1.000  C
  C1268    1.0000 0.86883  0.05400  0.70718  Biso   1.000  C
  H923     1.0000 0.86710  0.04810  0.72490  Biso   1.000  H
  H924     1.0000 0.88390  0.06510  0.70570  Biso   1.000  H
  H925     1.0000 0.85350  0.06360  0.70220  Biso   1.000  H
  C1269    1.0000 0.87494  0.95680  0.69460  Biso   1.000  C
  H926     1.0000 0.87280  0.95770  0.71320  Biso   1.000  H
  H927     1.0000 0.86080  0.94690  0.68710  Biso   1.000  H
  H928     1.0000 0.89130  0.94840  0.69060  Biso   1.000  H
  C1270    1.0000 0.88101  0.01680  0.61709  Biso   1.000  C
  H929     1.0000 0.88280  0.00020  0.60870  Biso   1.000  H
  H930     1.0000 0.86590  0.02570  0.61030  Biso   1.000  H
  H931     1.0000 0.89630  0.02720  0.61380  Biso   1.000  H
  Zn82     1.0000 0.87485  0.62930  0.13240  Biso   1.000  Zn
  N99      1.0000 0.84655  0.59705  0.13667  Biso   1.000  N
  C1271    1.0000 0.81930  0.60200  0.13464  Biso   1.000  C
  C1272    1.0000 0.80580  0.57959  0.14392  Biso   1.000  C
  H932     1.0000 0.78770  0.57760  0.14480  Biso   1.000  H
  C1273    1.0000 0.82470  0.56079  0.15169  Biso   1.000  C
  H933     1.0000 0.82120  0.54430  0.15850  Biso   1.000  H
  C1274    1.0000 0.84988  0.57158  0.14720  Biso   1.000  C
  C1275    1.0000 0.87491  0.56141  0.15140  Biso   1.000  C
  N100     1.0000 0.90328  0.59717  0.13659  Biso   1.000  N
  C1276    1.0000 0.89980  0.57171  0.14710  Biso   1.000  C
  C1277    1.0000 0.92492  0.56078  0.15159  Biso   1.000  C
  H934     1.0000 0.92830  0.54430  0.15840  Biso   1.000  H
  C1278    1.0000 0.94393  0.57948  0.14386  Biso   1.000  C
  H935     1.0000 0.96200  0.57740  0.14470  Biso   1.000  H
  C1279    1.0000 0.93055  0.60197  0.13458  Biso   1.000  C
  C1280    1.0000 0.76525  0.60970  0.10720  Biso   1.000  C
  H936     1.0000 0.77430  0.59950  0.09520  Biso   1.000  H
  C1281    1.0000 0.73807  0.60980  0.10730  Biso   1.000  C
  H937     1.0000 0.72890  0.59960  0.09530  Biso   1.000  H
  O107     1.0000 0.68301  0.61070  0.10930  Biso   1.000  O
  C1282    1.0000 0.98441  0.63710  0.14520  Biso   1.000  C
  H938     1.0000 0.97530  0.64520  0.15870  Biso   1.000  H
  C1283    1.0000 0.01159  0.63720  0.14530  Biso   1.000  C
  H939     1.0000 0.02060  0.64530  0.15890  Biso   1.000  H
  O108     1.0000 0.06687  0.63920  0.14090  Biso   1.000  O
  C1284    1.0000 0.87492  0.53435  0.16259  Biso   1.000  C
  C1285    1.0000 0.87200  0.53070  0.18935  Biso   1.000  C
  C1286    1.0000 0.87200  0.50560  0.19972  Biso   1.000  C
  H940     1.0000 0.87000  0.50310  0.21760  Biso   1.000  H
  C1287    1.0000 0.87493  0.48410  0.18330  Biso   1.000  C
  C1288    1.0000 0.87785  0.48776  0.15650  Biso   1.000  C
  H941     1.0000 0.87980  0.47340  0.14560  Biso   1.000  H
  C1289    1.0000 0.87784  0.51290  0.14617  Biso   1.000  C
  C1290    1.0000 0.86883  0.55400  0.20718  Biso   1.000  C
  H942     1.0000 0.86710  0.54810  0.22490  Biso   1.000  H
  H943     1.0000 0.88390  0.56510  0.20570  Biso   1.000  H
  H944     1.0000 0.85350  0.56360  0.20220  Biso   1.000  H
  C1291    1.0000 0.87494  0.45680  0.19460  Biso   1.000  C
  H945     1.0000 0.87280  0.45770  0.21320  Biso   1.000  H
  H946     1.0000 0.86080  0.44690  0.18710  Biso   1.000  H
  H947     1.0000 0.89130  0.44840  0.19060  Biso   1.000  H
  C1292    1.0000 0.88101  0.51680  0.11709  Biso   1.000  C
  H948     1.0000 0.88280  0.50020  0.10870  Biso   1.000  H
  H949     1.0000 0.86590  0.52570  0.11030  Biso   1.000  H
  H950     1.0000 0.89630  0.52720  0.11380  Biso   1.000  H
  Zn83     1.0000 0.37485  0.12930  0.13240  Biso   1.000  Zn
  N101     1.0000 0.34655  0.09705  0.13667  Biso   1.000  N
  C1293    1.0000 0.31930  0.10200  0.13464  Biso   1.000  C
  C1294    1.0000 0.30580  0.07959  0.14392  Biso   1.000  C
  H951     1.0000 0.28770  0.07760  0.14480  Biso   1.000  H
  C1295    1.0000 0.32470  0.06079  0.15169  Biso   1.000  C
  H952     1.0000 0.32120  0.04430  0.15850  Biso   1.000  H
  C1296    1.0000 0.34988  0.07158  0.14720  Biso   1.000  C
  C1297    1.0000 0.37491  0.06141  0.15140  Biso   1.000  C
  N102     1.0000 0.40328  0.09717  0.13659  Biso   1.000  N
  C1298    1.0000 0.39980  0.07171  0.14710  Biso   1.000  C
  C1299    1.0000 0.42492  0.06078  0.15159  Biso   1.000  C
  H953     1.0000 0.42830  0.04430  0.15840  Biso   1.000  H
  C1300    1.0000 0.44393  0.07948  0.14386  Biso   1.000  C
  H954     1.0000 0.46200  0.07740  0.14470  Biso   1.000  H
  C1301    1.0000 0.43055  0.10197  0.13458  Biso   1.000  C
  C1302    1.0000 0.26525  0.10970  0.10720  Biso   1.000  C
  H955     1.0000 0.27430  0.09950  0.09520  Biso   1.000  H
  C1303    1.0000 0.23807  0.10980  0.10730  Biso   1.000  C
  H956     1.0000 0.22890  0.09960  0.09530  Biso   1.000  H
  O109     1.0000 0.18301  0.11070  0.10930  Biso   1.000  O
  C1304    1.0000 0.48441  0.13710  0.14520  Biso   1.000  C
  H957     1.0000 0.47530  0.14520  0.15870  Biso   1.000  H
  C1305    1.0000 0.51159  0.13720  0.14530  Biso   1.000  C
  H958     1.0000 0.52060  0.14530  0.15890  Biso   1.000  H
  O110     1.0000 0.56687  0.13920  0.14090  Biso   1.000  O
  C1306    1.0000 0.37492  0.03435  0.16259  Biso   1.000  C
  C1307    1.0000 0.37200  0.03070  0.18935  Biso   1.000  C
  C1308    1.0000 0.37200  0.00560  0.19972  Biso   1.000  C
  H959     1.0000 0.37000  0.00310  0.21760  Biso   1.000  H
  C1309    1.0000 0.37493  0.98410  0.18330  Biso   1.000  C
  C1310    1.0000 0.37785  0.98776  0.15650  Biso   1.000  C
  H960     1.0000 0.37980  0.97340  0.14560  Biso   1.000  H
  C1311    1.0000 0.37784  0.01290  0.14617  Biso   1.000  C
  C1312    1.0000 0.36883  0.05400  0.20718  Biso   1.000  C
  H961     1.0000 0.36710  0.04810  0.22490  Biso   1.000  H
  H962     1.0000 0.38390  0.06510  0.20570  Biso   1.000  H
  H963     1.0000 0.35350  0.06360  0.20220  Biso   1.000  H
  C1313    1.0000 0.37494  0.95680  0.19460  Biso   1.000  C
  H964     1.0000 0.37280  0.95770  0.21320  Biso   1.000  H
  H965     1.0000 0.36080  0.94690  0.18710  Biso   1.000  H
  H966     1.0000 0.39130  0.94840  0.19060  Biso   1.000  H
  C1314    1.0000 0.38101  0.01680  0.11709  Biso   1.000  C
  H967     1.0000 0.38280  0.00020  0.10870  Biso   1.000  H
  H968     1.0000 0.36590  0.02570  0.11030  Biso   1.000  H
  H969     1.0000 0.39630  0.02720  0.11380  Biso   1.000  H
  Zn84     1.0000 0.37485  0.62930  0.63240  Biso   1.000  Zn
  N103     1.0000 0.34655  0.59705  0.63667  Biso   1.000  N
  C1315    1.0000 0.31930  0.60200  0.63464  Biso   1.000  C
  C1316    1.0000 0.30580  0.57959  0.64392  Biso   1.000  C
  H970     1.0000 0.28770  0.57760  0.64480  Biso   1.000  H
  C1317    1.0000 0.32470  0.56079  0.65169  Biso   1.000  C
  H971     1.0000 0.32120  0.54430  0.65850  Biso   1.000  H
  C1318    1.0000 0.34988  0.57158  0.64720  Biso   1.000  C
  C1319    1.0000 0.37491  0.56141  0.65140  Biso   1.000  C
  N104     1.0000 0.40328  0.59717  0.63659  Biso   1.000  N
  C1320    1.0000 0.39980  0.57171  0.64710  Biso   1.000  C
  C1321    1.0000 0.42492  0.56078  0.65159  Biso   1.000  C
  H972     1.0000 0.42830  0.54430  0.65840  Biso   1.000  H
  C1322    1.0000 0.44393  0.57948  0.64386  Biso   1.000  C
  H973     1.0000 0.46200  0.57740  0.64470  Biso   1.000  H
  C1323    1.0000 0.43055  0.60197  0.63458  Biso   1.000  C
  C1324    1.0000 0.26525  0.60970  0.60720  Biso   1.000  C
  H974     1.0000 0.27430  0.59950  0.59520  Biso   1.000  H
  C1325    1.0000 0.23807  0.60980  0.60730  Biso   1.000  C
  H975     1.0000 0.22890  0.59960  0.59530  Biso   1.000  H
  O111     1.0000 0.18301  0.61070  0.60930  Biso   1.000  O
  C1326    1.0000 0.48441  0.63710  0.64520  Biso   1.000  C
  H976     1.0000 0.47530  0.64520  0.65870  Biso   1.000  H
  C1327    1.0000 0.51159  0.63720  0.64530  Biso   1.000  C
  H977     1.0000 0.52060  0.64530  0.65890  Biso   1.000  H
  O112     1.0000 0.56687  0.63920  0.64090  Biso   1.000  O
  C1328    1.0000 0.37492  0.53435  0.66259  Biso   1.000  C
  C1329    1.0000 0.37200  0.53070  0.68935  Biso   1.000  C
  C1330    1.0000 0.37200  0.50560  0.69972  Biso   1.000  C
  H978     1.0000 0.37000  0.50310  0.71760  Biso   1.000  H
  C1331    1.0000 0.37493  0.48410  0.68330  Biso   1.000  C
  C1332    1.0000 0.37785  0.48776  0.65650  Biso   1.000  C
  H979     1.0000 0.37980  0.47340  0.64560  Biso   1.000  H
  C1333    1.0000 0.37784  0.51290  0.64617  Biso   1.000  C
  C1334    1.0000 0.36883  0.55400  0.70718  Biso   1.000  C
  H980     1.0000 0.36710  0.54810  0.72490  Biso   1.000  H
  H981     1.0000 0.38390  0.56510  0.70570  Biso   1.000  H
  H982     1.0000 0.35350  0.56360  0.70220  Biso   1.000  H
  C1335    1.0000 0.37494  0.45680  0.69460  Biso   1.000  C
  H983     1.0000 0.37280  0.45770  0.71320  Biso   1.000  H
  H984     1.0000 0.36080  0.44690  0.68710  Biso   1.000  H
  H985     1.0000 0.39130  0.44840  0.69060  Biso   1.000  H
  C1336    1.0000 0.38101  0.51680  0.61709  Biso   1.000  C
  H986     1.0000 0.38280  0.50020  0.60870  Biso   1.000  H
  H987     1.0000 0.36590  0.52570  0.61030  Biso   1.000  H
  H988     1.0000 0.39630  0.52720  0.61380  Biso   1.000  H
  Zn85     1.0000 0.87515  0.62070  0.63240  Biso   1.000  Zn
  N105     1.0000 0.90345  0.65295  0.63667  Biso   1.000  N
  C1337    1.0000 0.93070  0.64800  0.63464  Biso   1.000  C
  C1338    1.0000 0.94420  0.67041  0.64392  Biso   1.000  C
  H989     1.0000 0.96230  0.67240  0.64480  Biso   1.000  H
  C1339    1.0000 0.92530  0.68921  0.65169  Biso   1.000  C
  H990     1.0000 0.92880  0.70570  0.65850  Biso   1.000  H
  C1340    1.0000 0.90012  0.67842  0.64720  Biso   1.000  C
  C1341    1.0000 0.87509  0.68859  0.65140  Biso   1.000  C
  N106     1.0000 0.84672  0.65283  0.63659  Biso   1.000  N
  C1342    1.0000 0.85020  0.67829  0.64710  Biso   1.000  C
  C1343    1.0000 0.82508  0.68922  0.65159  Biso   1.000  C
  H991     1.0000 0.82170  0.70570  0.65840  Biso   1.000  H
  C1344    1.0000 0.80607  0.67052  0.64386  Biso   1.000  C
  H992     1.0000 0.78800  0.67260  0.64470  Biso   1.000  H
  C1345    1.0000 0.81945  0.64803  0.63458  Biso   1.000  C
  C1346    1.0000 0.98475  0.64030  0.60720  Biso   1.000  C
  H993     1.0000 0.97570  0.65050  0.59520  Biso   1.000  H
  C1347    1.0000 0.01193  0.64020  0.60730  Biso   1.000  C
  H994     1.0000 0.02110  0.65040  0.59530  Biso   1.000  H
  O113     1.0000 0.06699  0.63930  0.60930  Biso   1.000  O
  C1348    1.0000 0.76559  0.61290  0.64520  Biso   1.000  C
  H995     1.0000 0.77470  0.60480  0.65870  Biso   1.000  H
  C1349    1.0000 0.73841  0.61280  0.64530  Biso   1.000  C
  H996     1.0000 0.72940  0.60470  0.65890  Biso   1.000  H
  O114     1.0000 0.68313  0.61080  0.64090  Biso   1.000  O
  C1350    1.0000 0.87508  0.71565  0.66259  Biso   1.000  C
  C1351    1.0000 0.87800  0.71930  0.68935  Biso   1.000  C
  C1352    1.0000 0.87800  0.74440  0.69972  Biso   1.000  C
  H997     1.0000 0.88000  0.74690  0.71760  Biso   1.000  H
  C1353    1.0000 0.87507  0.76590  0.68330  Biso   1.000  C
  C1354    1.0000 0.87215  0.76224  0.65650  Biso   1.000  C
  H998     1.0000 0.87020  0.77660  0.64560  Biso   1.000  H
  C1355    1.0000 0.87216  0.73710  0.64617  Biso   1.000  C
  C1356    1.0000 0.88117  0.69600  0.70718  Biso   1.000  C
  H999     1.0000 0.88290  0.70190  0.72490  Biso   1.000  H
  H1000    1.0000 0.86610  0.68490  0.70570  Biso   1.000  H
  H1001    1.0000 0.89650  0.68640  0.70220  Biso   1.000  H
  C1357    1.0000 0.87506  0.79320  0.69460  Biso   1.000  C
  H1002    1.0000 0.87720  0.79230  0.71320  Biso   1.000  H
  H1003    1.0000 0.88920  0.80310  0.68710  Biso   1.000  H
  H1004    1.0000 0.85870  0.80160  0.69060  Biso   1.000  H
  C1358    1.0000 0.86899  0.73320  0.61709  Biso   1.000  C
  H1005    1.0000 0.86720  0.74980  0.60870  Biso   1.000  H
  H1006    1.0000 0.88410  0.72430  0.61030  Biso   1.000  H
  H1007    1.0000 0.85370  0.72280  0.61380  Biso   1.000  H
  Zn86     1.0000 0.87515  0.12070  0.13240  Biso   1.000  Zn
  N107     1.0000 0.90345  0.15295  0.13667  Biso   1.000  N
  C1359    1.0000 0.93070  0.14800  0.13464  Biso   1.000  C
  C1360    1.0000 0.94420  0.17041  0.14392  Biso   1.000  C
  H1008    1.0000 0.96230  0.17240  0.14480  Biso   1.000  H
  C1361    1.0000 0.92530  0.18921  0.15169  Biso   1.000  C
  H1009    1.0000 0.92880  0.20570  0.15850  Biso   1.000  H
  C1362    1.0000 0.90012  0.17842  0.14720  Biso   1.000  C
  C1363    1.0000 0.87509  0.18859  0.15140  Biso   1.000  C
  N108     1.0000 0.84672  0.15283  0.13659  Biso   1.000  N
  C1364    1.0000 0.85020  0.17829  0.14710  Biso   1.000  C
  C1365    1.0000 0.82508  0.18922  0.15159  Biso   1.000  C
  H1010    1.0000 0.82170  0.20570  0.15840  Biso   1.000  H
  C1366    1.0000 0.80607  0.17052  0.14386  Biso   1.000  C
  H1011    1.0000 0.78800  0.17260  0.14470  Biso   1.000  H
  C1367    1.0000 0.81945  0.14803  0.13458  Biso   1.000  C
  C1368    1.0000 0.98475  0.14030  0.10720  Biso   1.000  C
  H1012    1.0000 0.97570  0.15050  0.09520  Biso   1.000  H
  C1369    1.0000 0.01193  0.14020  0.10730  Biso   1.000  C
  H1013    1.0000 0.02110  0.15040  0.09530  Biso   1.000  H
  O115     1.0000 0.06699  0.13930  0.10930  Biso   1.000  O
  C1370    1.0000 0.76559  0.11290  0.14520  Biso   1.000  C
  H1014    1.0000 0.77470  0.10480  0.15870  Biso   1.000  H
  C1371    1.0000 0.73841  0.11280  0.14530  Biso   1.000  C
  H1015    1.0000 0.72940  0.10470  0.15890  Biso   1.000  H
  O116     1.0000 0.68313  0.11080  0.14090  Biso   1.000  O
  C1372    1.0000 0.87508  0.21565  0.16259  Biso   1.000  C
  C1373    1.0000 0.87800  0.21930  0.18935  Biso   1.000  C
  C1374    1.0000 0.87800  0.24440  0.19972  Biso   1.000  C
  H1016    1.0000 0.88000  0.24690  0.21760  Biso   1.000  H
  C1375    1.0000 0.87507  0.26590  0.18330  Biso   1.000  C
  C1376    1.0000 0.87215  0.26224  0.15650  Biso   1.000  C
  H1017    1.0000 0.87020  0.27660  0.14560  Biso   1.000  H
  C1377    1.0000 0.87216  0.23710  0.14617  Biso   1.000  C
  C1378    1.0000 0.88117  0.19600  0.20718  Biso   1.000  C
  H1018    1.0000 0.88290  0.20190  0.22490  Biso   1.000  H
  H1019    1.0000 0.86610  0.18490  0.20570  Biso   1.000  H
  H1020    1.0000 0.89650  0.18640  0.20220  Biso   1.000  H
  C1379    1.0000 0.87506  0.29320  0.19460  Biso   1.000  C
  H1021    1.0000 0.87720  0.29230  0.21320  Biso   1.000  H
  H1022    1.0000 0.88920  0.30310  0.18710  Biso   1.000  H
  H1023    1.0000 0.85870  0.30160  0.19060  Biso   1.000  H
  C1380    1.0000 0.86899  0.23320  0.11709  Biso   1.000  C
  H1024    1.0000 0.86720  0.24980  0.10870  Biso   1.000  H
  H1025    1.0000 0.88410  0.22430  0.11030  Biso   1.000  H
  H1026    1.0000 0.85370  0.22280  0.11380  Biso   1.000  H
  Zn87     1.0000 0.37515  0.62070  0.13240  Biso   1.000  Zn
  N109     1.0000 0.40345  0.65295  0.13667  Biso   1.000  N
  C1381    1.0000 0.43070  0.64800  0.13464  Biso   1.000  C
  C1382    1.0000 0.44420  0.67041  0.14392  Biso   1.000  C
  H1027    1.0000 0.46230  0.67240  0.14480  Biso   1.000  H
  C1383    1.0000 0.42530  0.68921  0.15169  Biso   1.000  C
  H1028    1.0000 0.42880  0.70570  0.15850  Biso   1.000  H
  C1384    1.0000 0.40012  0.67842  0.14720  Biso   1.000  C
  C1385    1.0000 0.37509  0.68859  0.15140  Biso   1.000  C
  N110     1.0000 0.34672  0.65283  0.13659  Biso   1.000  N
  C1386    1.0000 0.35020  0.67829  0.14710  Biso   1.000  C
  C1387    1.0000 0.32508  0.68922  0.15159  Biso   1.000  C
  H1029    1.0000 0.32170  0.70570  0.15840  Biso   1.000  H
  C1388    1.0000 0.30607  0.67052  0.14386  Biso   1.000  C
  H1030    1.0000 0.28800  0.67260  0.14470  Biso   1.000  H
  C1389    1.0000 0.31945  0.64803  0.13458  Biso   1.000  C
  C1390    1.0000 0.48475  0.64030  0.10720  Biso   1.000  C
  H1031    1.0000 0.47570  0.65050  0.09520  Biso   1.000  H
  C1391    1.0000 0.51193  0.64020  0.10730  Biso   1.000  C
  H1032    1.0000 0.52110  0.65040  0.09530  Biso   1.000  H
  O117     1.0000 0.56699  0.63930  0.10930  Biso   1.000  O
  C1392    1.0000 0.26559  0.61290  0.14520  Biso   1.000  C
  H1033    1.0000 0.27470  0.60480  0.15870  Biso   1.000  H
  C1393    1.0000 0.23841  0.61280  0.14530  Biso   1.000  C
  H1034    1.0000 0.22940  0.60470  0.15890  Biso   1.000  H
  O118     1.0000 0.18313  0.61080  0.14090  Biso   1.000  O
  C1394    1.0000 0.37508  0.71565  0.16259  Biso   1.000  C
  C1395    1.0000 0.37800  0.71930  0.18935  Biso   1.000  C
  C1396    1.0000 0.37800  0.74440  0.19972  Biso   1.000  C
  H1035    1.0000 0.38000  0.74690  0.21760  Biso   1.000  H
  C1397    1.0000 0.37507  0.76590  0.18330  Biso   1.000  C
  C1398    1.0000 0.37215  0.76224  0.15650  Biso   1.000  C
  H1036    1.0000 0.37020  0.77660  0.14560  Biso   1.000  H
  C1399    1.0000 0.37216  0.73710  0.14617  Biso   1.000  C
  C1400    1.0000 0.38117  0.69600  0.20718  Biso   1.000  C
  H1037    1.0000 0.38290  0.70190  0.22490  Biso   1.000  H
  H1038    1.0000 0.36610  0.68490  0.20570  Biso   1.000  H
  H1039    1.0000 0.39650  0.68640  0.20220  Biso   1.000  H
  C1401    1.0000 0.37506  0.79320  0.19460  Biso   1.000  C
  H1040    1.0000 0.37720  0.79230  0.21320  Biso   1.000  H
  H1041    1.0000 0.38920  0.80310  0.18710  Biso   1.000  H
  H1042    1.0000 0.35870  0.80160  0.19060  Biso   1.000  H
  C1402    1.0000 0.36899  0.73320  0.11709  Biso   1.000  C
  H1043    1.0000 0.36720  0.74980  0.10870  Biso   1.000  H
  H1044    1.0000 0.38410  0.72430  0.11030  Biso   1.000  H
  H1045    1.0000 0.35370  0.72280  0.11380  Biso   1.000  H
  Zn88     1.0000 0.37515  0.12070  0.63240  Biso   1.000  Zn
  N111     1.0000 0.40345  0.15295  0.63667  Biso   1.000  N
  C1403    1.0000 0.43070  0.14800  0.63464  Biso   1.000  C
  C1404    1.0000 0.44420  0.17041  0.64392  Biso   1.000  C
  H1046    1.0000 0.46230  0.17240  0.64480  Biso   1.000  H
  C1405    1.0000 0.42530  0.18921  0.65169  Biso   1.000  C
  H1047    1.0000 0.42880  0.20570  0.65850  Biso   1.000  H
  C1406    1.0000 0.40012  0.17842  0.64720  Biso   1.000  C
  C1407    1.0000 0.37509  0.18859  0.65140  Biso   1.000  C
  N112     1.0000 0.34672  0.15283  0.63659  Biso   1.000  N
  C1408    1.0000 0.35020  0.17829  0.64710  Biso   1.000  C
  C1409    1.0000 0.32508  0.18922  0.65159  Biso   1.000  C
  H1048    1.0000 0.32170  0.20570  0.65840  Biso   1.000  H
  C1410    1.0000 0.30607  0.17052  0.64386  Biso   1.000  C
  H1049    1.0000 0.28800  0.17260  0.64470  Biso   1.000  H
  C1411    1.0000 0.31945  0.14803  0.63458  Biso   1.000  C
  C1412    1.0000 0.48475  0.14030  0.60720  Biso   1.000  C
  H1050    1.0000 0.47570  0.15050  0.59520  Biso   1.000  H
  C1413    1.0000 0.51193  0.14020  0.60730  Biso   1.000  C
  H1051    1.0000 0.52110  0.15040  0.59530  Biso   1.000  H
  O119     1.0000 0.56699  0.13930  0.60930  Biso   1.000  O
  C1414    1.0000 0.26559  0.11290  0.64520  Biso   1.000  C
  H1052    1.0000 0.27470  0.10480  0.65870  Biso   1.000  H
  C1415    1.0000 0.23841  0.11280  0.64530  Biso   1.000  C
  H1053    1.0000 0.22940  0.10470  0.65890  Biso   1.000  H
  O120     1.0000 0.18313  0.11080  0.64090  Biso   1.000  O
  C1416    1.0000 0.37508  0.21565  0.66259  Biso   1.000  C
  C1417    1.0000 0.37800  0.21930  0.68935  Biso   1.000  C
  C1418    1.0000 0.37800  0.24440  0.69972  Biso   1.000  C
  H1054    1.0000 0.38000  0.24690  0.71760  Biso   1.000  H
  C1419    1.0000 0.37507  0.26590  0.68330  Biso   1.000  C
  C1420    1.0000 0.37215  0.26224  0.65650  Biso   1.000  C
  H1055    1.0000 0.37020  0.27660  0.64560  Biso   1.000  H
  C1421    1.0000 0.37216  0.23710  0.64617  Biso   1.000  C
  C1422    1.0000 0.38117  0.19600  0.70718  Biso   1.000  C
  H1056    1.0000 0.38290  0.20190  0.72490  Biso   1.000  H
  H1057    1.0000 0.36610  0.18490  0.70570  Biso   1.000  H
  H1058    1.0000 0.39650  0.18640  0.70220  Biso   1.000  H
  C1423    1.0000 0.37506  0.29320  0.69460  Biso   1.000  C
  H1059    1.0000 0.37720  0.29230  0.71320  Biso   1.000  H
  H1060    1.0000 0.38920  0.30310  0.68710  Biso   1.000  H
  H1061    1.0000 0.35870  0.30160  0.69060  Biso   1.000  H
  C1424    1.0000 0.36899  0.23320  0.61709  Biso   1.000  C
  H1062    1.0000 0.36720  0.24980  0.60870  Biso   1.000  H
  H1063    1.0000 0.38410  0.22430  0.61030  Biso   1.000  H
  H1064    1.0000 0.35370  0.22280  0.61380  Biso   1.000  H
  Zn89     1.0000 0.87515  0.12930  0.11760  Biso   1.000  Zn
  N113     1.0000 0.90345  0.09705  0.11333  Biso   1.000  N
  C1425    1.0000 0.93070  0.10200  0.11536  Biso   1.000  C
  C1426    1.0000 0.94420  0.07959  0.10608  Biso   1.000  C
  H1065    1.0000 0.96230  0.07760  0.10520  Biso   1.000  H
  C1427    1.0000 0.92530  0.06079  0.09831  Biso   1.000  C
  H1066    1.0000 0.92880  0.04430  0.09150  Biso   1.000  H
  C1428    1.0000 0.90012  0.07158  0.10280  Biso   1.000  C
  C1429    1.0000 0.87509  0.06141  0.09860  Biso   1.000  C
  N114     1.0000 0.84672  0.09717  0.11341  Biso   1.000  N
  C1430    1.0000 0.85020  0.07171  0.10290  Biso   1.000  C
  C1431    1.0000 0.82508  0.06078  0.09841  Biso   1.000  C
  H1067    1.0000 0.82170  0.04430  0.09160  Biso   1.000  H
  C1432    1.0000 0.80607  0.07948  0.10614  Biso   1.000  C
  H1068    1.0000 0.78800  0.07740  0.10530  Biso   1.000  H
  C1433    1.0000 0.81945  0.10197  0.11542  Biso   1.000  C
  C1434    1.0000 0.98475  0.10970  0.14280  Biso   1.000  C
  H1069    1.0000 0.97570  0.09950  0.15480  Biso   1.000  H
  C1435    1.0000 0.01193  0.10980  0.14270  Biso   1.000  C
  H1070    1.0000 0.02110  0.09960  0.15470  Biso   1.000  H
  O121     1.0000 0.06699  0.11070  0.14070  Biso   1.000  O
  C1436    1.0000 0.76559  0.13710  0.10480  Biso   1.000  C
  H1071    1.0000 0.77470  0.14520  0.09130  Biso   1.000  H
  C1437    1.0000 0.73841  0.13720  0.10470  Biso   1.000  C
  H1072    1.0000 0.72940  0.14530  0.09110  Biso   1.000  H
  O122     1.0000 0.68313  0.13920  0.10910  Biso   1.000  O
  C1438    1.0000 0.87508  0.03435  0.08741  Biso   1.000  C
  C1439    1.0000 0.87800  0.03070  0.06065  Biso   1.000  C
  C1440    1.0000 0.87800  0.00560  0.05028  Biso   1.000  C
  H1073    1.0000 0.88000  0.00310  0.03240  Biso   1.000  H
  C1441    1.0000 0.87507  0.98410  0.06670  Biso   1.000  C
  C1442    1.0000 0.87215  0.98776  0.09350  Biso   1.000  C
  H1074    1.0000 0.87020  0.97340  0.10440  Biso   1.000  H
  C1443    1.0000 0.87216  0.01290  0.10383  Biso   1.000  C
  C1444    1.0000 0.88117  0.05400  0.04282  Biso   1.000  C
  H1075    1.0000 0.88290  0.04810  0.02510  Biso   1.000  H
  H1076    1.0000 0.86610  0.06510  0.04430  Biso   1.000  H
  H1077    1.0000 0.89650  0.06360  0.04780  Biso   1.000  H
  C1445    1.0000 0.87506  0.95680  0.05540  Biso   1.000  C
  H1078    1.0000 0.87720  0.95770  0.03680  Biso   1.000  H
  H1079    1.0000 0.88920  0.94690  0.06290  Biso   1.000  H
  H1080    1.0000 0.85870  0.94840  0.05940  Biso   1.000  H
  C1446    1.0000 0.86899  0.01680  0.13291  Biso   1.000  C
  H1081    1.0000 0.86720  0.00020  0.14130  Biso   1.000  H
  H1082    1.0000 0.88410  0.02570  0.13970  Biso   1.000  H
  H1083    1.0000 0.85370  0.02720  0.13620  Biso   1.000  H
  Zn90     1.0000 0.87515  0.62930  0.61760  Biso   1.000  Zn
  N115     1.0000 0.90345  0.59705  0.61333  Biso   1.000  N
  C1447    1.0000 0.93070  0.60200  0.61536  Biso   1.000  C
  C1448    1.0000 0.94420  0.57959  0.60608  Biso   1.000  C
  H1084    1.0000 0.96230  0.57760  0.60520  Biso   1.000  H
  C1449    1.0000 0.92530  0.56079  0.59831  Biso   1.000  C
  H1085    1.0000 0.92880  0.54430  0.59150  Biso   1.000  H
  C1450    1.0000 0.90012  0.57158  0.60280  Biso   1.000  C
  C1451    1.0000 0.87509  0.56141  0.59860  Biso   1.000  C
  N116     1.0000 0.84672  0.59717  0.61341  Biso   1.000  N
  C1452    1.0000 0.85020  0.57171  0.60290  Biso   1.000  C
  C1453    1.0000 0.82508  0.56078  0.59841  Biso   1.000  C
  H1086    1.0000 0.82170  0.54430  0.59160  Biso   1.000  H
  C1454    1.0000 0.80607  0.57948  0.60614  Biso   1.000  C
  H1087    1.0000 0.78800  0.57740  0.60530  Biso   1.000  H
  C1455    1.0000 0.81945  0.60197  0.61542  Biso   1.000  C
  C1456    1.0000 0.98475  0.60970  0.64280  Biso   1.000  C
  H1088    1.0000 0.97570  0.59950  0.65480  Biso   1.000  H
  C1457    1.0000 0.01193  0.60980  0.64270  Biso   1.000  C
  H1089    1.0000 0.02110  0.59960  0.65470  Biso   1.000  H
  O123     1.0000 0.06699  0.61070  0.64070  Biso   1.000  O
  C1458    1.0000 0.76559  0.63710  0.60480  Biso   1.000  C
  H1090    1.0000 0.77470  0.64520  0.59130  Biso   1.000  H
  C1459    1.0000 0.73841  0.63720  0.60470  Biso   1.000  C
  H1091    1.0000 0.72940  0.64530  0.59110  Biso   1.000  H
  O124     1.0000 0.68313  0.63920  0.60910  Biso   1.000  O
  C1460    1.0000 0.87508  0.53435  0.58741  Biso   1.000  C
  C1461    1.0000 0.87800  0.53070  0.56065  Biso   1.000  C
  C1462    1.0000 0.87800  0.50560  0.55028  Biso   1.000  C
  H1092    1.0000 0.88000  0.50310  0.53240  Biso   1.000  H
  C1463    1.0000 0.87507  0.48410  0.56670  Biso   1.000  C
  C1464    1.0000 0.87215  0.48776  0.59350  Biso   1.000  C
  H1093    1.0000 0.87020  0.47340  0.60440  Biso   1.000  H
  C1465    1.0000 0.87216  0.51290  0.60383  Biso   1.000  C
  C1466    1.0000 0.88117  0.55400  0.54282  Biso   1.000  C
  H1094    1.0000 0.88290  0.54810  0.52510  Biso   1.000  H
  H1095    1.0000 0.86610  0.56510  0.54430  Biso   1.000  H
  H1096    1.0000 0.89650  0.56360  0.54780  Biso   1.000  H
  C1467    1.0000 0.87506  0.45680  0.55540  Biso   1.000  C
  H1097    1.0000 0.87720  0.45770  0.53680  Biso   1.000  H
  H1098    1.0000 0.88920  0.44690  0.56290  Biso   1.000  H
  H1099    1.0000 0.85870  0.44840  0.55940  Biso   1.000  H
  C1468    1.0000 0.86899  0.51680  0.63291  Biso   1.000  C
  H1100    1.0000 0.86720  0.50020  0.64130  Biso   1.000  H
  H1101    1.0000 0.88410  0.52570  0.63970  Biso   1.000  H
  H1102    1.0000 0.85370  0.52720  0.63620  Biso   1.000  H
  Zn91     1.0000 0.37515  0.12930  0.61760  Biso   1.000  Zn
  N117     1.0000 0.40345  0.09705  0.61333  Biso   1.000  N
  C1469    1.0000 0.43070  0.10200  0.61536  Biso   1.000  C
  C1470    1.0000 0.44420  0.07959  0.60608  Biso   1.000  C
  H1103    1.0000 0.46230  0.07760  0.60520  Biso   1.000  H
  C1471    1.0000 0.42530  0.06079  0.59831  Biso   1.000  C
  H1104    1.0000 0.42880  0.04430  0.59150  Biso   1.000  H
  C1472    1.0000 0.40012  0.07158  0.60280  Biso   1.000  C
  C1473    1.0000 0.37509  0.06141  0.59860  Biso   1.000  C
  N118     1.0000 0.34672  0.09717  0.61341  Biso   1.000  N
  C1474    1.0000 0.35020  0.07171  0.60290  Biso   1.000  C
  C1475    1.0000 0.32508  0.06078  0.59841  Biso   1.000  C
  H1105    1.0000 0.32170  0.04430  0.59160  Biso   1.000  H
  C1476    1.0000 0.30607  0.07948  0.60614  Biso   1.000  C
  H1106    1.0000 0.28800  0.07740  0.60530  Biso   1.000  H
  C1477    1.0000 0.31945  0.10197  0.61542  Biso   1.000  C
  C1478    1.0000 0.48475  0.10970  0.64280  Biso   1.000  C
  H1107    1.0000 0.47570  0.09950  0.65480  Biso   1.000  H
  C1479    1.0000 0.51193  0.10980  0.64270  Biso   1.000  C
  H1108    1.0000 0.52110  0.09960  0.65470  Biso   1.000  H
  O125     1.0000 0.56699  0.11070  0.64070  Biso   1.000  O
  C1480    1.0000 0.26559  0.13710  0.60480  Biso   1.000  C
  H1109    1.0000 0.27470  0.14520  0.59130  Biso   1.000  H
  C1481    1.0000 0.23841  0.13720  0.60470  Biso   1.000  C
  H1110    1.0000 0.22940  0.14530  0.59110  Biso   1.000  H
  O126     1.0000 0.18313  0.13920  0.60910  Biso   1.000  O
  C1482    1.0000 0.37508  0.03435  0.58741  Biso   1.000  C
  C1483    1.0000 0.37800  0.03070  0.56065  Biso   1.000  C
  C1484    1.0000 0.37800  0.00560  0.55028  Biso   1.000  C
  H1111    1.0000 0.38000  0.00310  0.53240  Biso   1.000  H
  C1485    1.0000 0.37507  0.98410  0.56670  Biso   1.000  C
  C1486    1.0000 0.37215  0.98776  0.59350  Biso   1.000  C
  H1112    1.0000 0.37020  0.97340  0.60440  Biso   1.000  H
  C1487    1.0000 0.37216  0.01290  0.60383  Biso   1.000  C
  C1488    1.0000 0.38117  0.05400  0.54282  Biso   1.000  C
  H1113    1.0000 0.38290  0.04810  0.52510  Biso   1.000  H
  H1114    1.0000 0.36610  0.06510  0.54430  Biso   1.000  H
  H1115    1.0000 0.39650  0.06360  0.54780  Biso   1.000  H
  C1489    1.0000 0.37506  0.95680  0.55540  Biso   1.000  C
  H1116    1.0000 0.37720  0.95770  0.53680  Biso   1.000  H
  H1117    1.0000 0.38920  0.94690  0.56290  Biso   1.000  H
  H1118    1.0000 0.35870  0.94840  0.55940  Biso   1.000  H
  C1490    1.0000 0.36899  0.01680  0.63291  Biso   1.000  C
  H1119    1.0000 0.36720  0.00020  0.64130  Biso   1.000  H
  H1120    1.0000 0.38410  0.02570  0.63970  Biso   1.000  H
  H1121    1.0000 0.35370  0.02720  0.63620  Biso   1.000  H
  Zn92     1.0000 0.37515  0.62930  0.11760  Biso   1.000  Zn
  N119     1.0000 0.40345  0.59705  0.11333  Biso   1.000  N
  C1491    1.0000 0.43070  0.60200  0.11536  Biso   1.000  C
  C1492    1.0000 0.44420  0.57959  0.10608  Biso   1.000  C
  H1122    1.0000 0.46230  0.57760  0.10520  Biso   1.000  H
  C1493    1.0000 0.42530  0.56079  0.09831  Biso   1.000  C
  H1123    1.0000 0.42880  0.54430  0.09150  Biso   1.000  H
  C1494    1.0000 0.40012  0.57158  0.10280  Biso   1.000  C
  C1495    1.0000 0.37509  0.56141  0.09860  Biso   1.000  C
  N120     1.0000 0.34672  0.59717  0.11341  Biso   1.000  N
  C1496    1.0000 0.35020  0.57171  0.10290  Biso   1.000  C
  C1497    1.0000 0.32508  0.56078  0.09841  Biso   1.000  C
  H1124    1.0000 0.32170  0.54430  0.09160  Biso   1.000  H
  C1498    1.0000 0.30607  0.57948  0.10614  Biso   1.000  C
  H1125    1.0000 0.28800  0.57740  0.10530  Biso   1.000  H
  C1499    1.0000 0.31945  0.60197  0.11542  Biso   1.000  C
  C1500    1.0000 0.48475  0.60970  0.14280  Biso   1.000  C
  H1126    1.0000 0.47570  0.59950  0.15480  Biso   1.000  H
  C1501    1.0000 0.51193  0.60980  0.14270  Biso   1.000  C
  H1127    1.0000 0.52110  0.59960  0.15470  Biso   1.000  H
  O127     1.0000 0.56699  0.61070  0.14070  Biso   1.000  O
  C1502    1.0000 0.26559  0.63710  0.10480  Biso   1.000  C
  H1128    1.0000 0.27470  0.64520  0.09130  Biso   1.000  H
  C1503    1.0000 0.23841  0.63720  0.10470  Biso   1.000  C
  H1129    1.0000 0.22940  0.64530  0.09110  Biso   1.000  H
  O128     1.0000 0.18313  0.63920  0.10910  Biso   1.000  O
  C1504    1.0000 0.37508  0.53435  0.08741  Biso   1.000  C
  C1505    1.0000 0.37800  0.53070  0.06065  Biso   1.000  C
  C1506    1.0000 0.37800  0.50560  0.05028  Biso   1.000  C
  H1130    1.0000 0.38000  0.50310  0.03240  Biso   1.000  H
  C1507    1.0000 0.37507  0.48410  0.06670  Biso   1.000  C
  C1508    1.0000 0.37215  0.48776  0.09350  Biso   1.000  C
  H1131    1.0000 0.37020  0.47340  0.10440  Biso   1.000  H
  C1509    1.0000 0.37216  0.51290  0.10383  Biso   1.000  C
  C1510    1.0000 0.38117  0.55400  0.04282  Biso   1.000  C
  H1132    1.0000 0.38290  0.54810  0.02510  Biso   1.000  H
  H1133    1.0000 0.36610  0.56510  0.04430  Biso   1.000  H
  H1134    1.0000 0.39650  0.56360  0.04780  Biso   1.000  H
  C1511    1.0000 0.37506  0.45680  0.05540  Biso   1.000  C
  H1135    1.0000 0.37720  0.45770  0.03680  Biso   1.000  H
  H1136    1.0000 0.38920  0.44690  0.06290  Biso   1.000  H
  H1137    1.0000 0.35870  0.44840  0.05940  Biso   1.000  H
  C1512    1.0000 0.36899  0.51680  0.13291  Biso   1.000  C
  H1138    1.0000 0.36720  0.50020  0.14130  Biso   1.000  H
  H1139    1.0000 0.38410  0.52570  0.13970  Biso   1.000  H
  H1140    1.0000 0.35370  0.52720  0.13620  Biso   1.000  H
  Zn93     1.0000 0.87485  0.62070  0.11760  Biso   1.000  Zn
  N121     1.0000 0.84655  0.65295  0.11333  Biso   1.000  N
  C1513    1.0000 0.81930  0.64800  0.11536  Biso   1.000  C
  C1514    1.0000 0.80580  0.67041  0.10608  Biso   1.000  C
  H1141    1.0000 0.78770  0.67240  0.10520  Biso   1.000  H
  C1515    1.0000 0.82470  0.68921  0.09831  Biso   1.000  C
  H1142    1.0000 0.82120  0.70570  0.09150  Biso   1.000  H
  C1516    1.0000 0.84988  0.67842  0.10280  Biso   1.000  C
  C1517    1.0000 0.87491  0.68859  0.09860  Biso   1.000  C
  N122     1.0000 0.90328  0.65283  0.11341  Biso   1.000  N
  C1518    1.0000 0.89980  0.67829  0.10290  Biso   1.000  C
  C1519    1.0000 0.92492  0.68922  0.09841  Biso   1.000  C
  H1143    1.0000 0.92830  0.70570  0.09160  Biso   1.000  H
  C1520    1.0000 0.94393  0.67052  0.10614  Biso   1.000  C
  H1144    1.0000 0.96200  0.67260  0.10530  Biso   1.000  H
  C1521    1.0000 0.93055  0.64803  0.11542  Biso   1.000  C
  C1522    1.0000 0.76525  0.64030  0.14280  Biso   1.000  C
  H1145    1.0000 0.77430  0.65050  0.15480  Biso   1.000  H
  C1523    1.0000 0.73807  0.64020  0.14270  Biso   1.000  C
  H1146    1.0000 0.72890  0.65040  0.15470  Biso   1.000  H
  O129     1.0000 0.68301  0.63930  0.14070  Biso   1.000  O
  C1524    1.0000 0.98441  0.61290  0.10480  Biso   1.000  C
  H1147    1.0000 0.97530  0.60480  0.09130  Biso   1.000  H
  C1525    1.0000 0.01159  0.61280  0.10470  Biso   1.000  C
  H1148    1.0000 0.02060  0.60470  0.09110  Biso   1.000  H
  O130     1.0000 0.06687  0.61080  0.10910  Biso   1.000  O
  C1526    1.0000 0.87492  0.71565  0.08741  Biso   1.000  C
  C1527    1.0000 0.87200  0.71930  0.06065  Biso   1.000  C
  C1528    1.0000 0.87200  0.74440  0.05028  Biso   1.000  C
  H1149    1.0000 0.87000  0.74690  0.03240  Biso   1.000  H
  C1529    1.0000 0.87493  0.76590  0.06670  Biso   1.000  C
  C1530    1.0000 0.87785  0.76224  0.09350  Biso   1.000  C
  H1150    1.0000 0.87980  0.77660  0.10440  Biso   1.000  H
  C1531    1.0000 0.87784  0.73710  0.10383  Biso   1.000  C
  C1532    1.0000 0.86883  0.69600  0.04282  Biso   1.000  C
  H1151    1.0000 0.86710  0.70190  0.02510  Biso   1.000  H
  H1152    1.0000 0.88390  0.68490  0.04430  Biso   1.000  H
  H1153    1.0000 0.85350  0.68640  0.04780  Biso   1.000  H
  C1533    1.0000 0.87494  0.79320  0.05540  Biso   1.000  C
  H1154    1.0000 0.87280  0.79230  0.03680  Biso   1.000  H
  H1155    1.0000 0.86080  0.80310  0.06290  Biso   1.000  H
  H1156    1.0000 0.89130  0.80160  0.05940  Biso   1.000  H
  C1534    1.0000 0.88101  0.73320  0.13291  Biso   1.000  C
  H1157    1.0000 0.88280  0.74980  0.14130  Biso   1.000  H
  H1158    1.0000 0.86590  0.72430  0.13970  Biso   1.000  H
  H1159    1.0000 0.89630  0.72280  0.13620  Biso   1.000  H
  Zn94     1.0000 0.87485  0.12070  0.61760  Biso   1.000  Zn
  N123     1.0000 0.84655  0.15295  0.61333  Biso   1.000  N
  C1535    1.0000 0.81930  0.14800  0.61536  Biso   1.000  C
  C1536    1.0000 0.80580  0.17041  0.60608  Biso   1.000  C
  H1160    1.0000 0.78770  0.17240  0.60520  Biso   1.000  H
  C1537    1.0000 0.82470  0.18921  0.59831  Biso   1.000  C
  H1161    1.0000 0.82120  0.20570  0.59150  Biso   1.000  H
  C1538    1.0000 0.84988  0.17842  0.60280  Biso   1.000  C
  C1539    1.0000 0.87491  0.18859  0.59860  Biso   1.000  C
  N124     1.0000 0.90328  0.15283  0.61341  Biso   1.000  N
  C1540    1.0000 0.89980  0.17829  0.60290  Biso   1.000  C
  C1541    1.0000 0.92492  0.18922  0.59841  Biso   1.000  C
  H1162    1.0000 0.92830  0.20570  0.59160  Biso   1.000  H
  C1542    1.0000 0.94393  0.17052  0.60614  Biso   1.000  C
  H1163    1.0000 0.96200  0.17260  0.60530  Biso   1.000  H
  C1543    1.0000 0.93055  0.14803  0.61542  Biso   1.000  C
  C1544    1.0000 0.76525  0.14030  0.64280  Biso   1.000  C
  H1164    1.0000 0.77430  0.15050  0.65480  Biso   1.000  H
  C1545    1.0000 0.73807  0.14020  0.64270  Biso   1.000  C
  H1165    1.0000 0.72890  0.15040  0.65470  Biso   1.000  H
  O131     1.0000 0.68301  0.13930  0.64070  Biso   1.000  O
  C1546    1.0000 0.98441  0.11290  0.60480  Biso   1.000  C
  H1166    1.0000 0.97530  0.10480  0.59130  Biso   1.000  H
  C1547    1.0000 0.01159  0.11280  0.60470  Biso   1.000  C
  H1167    1.0000 0.02060  0.10470  0.59110  Biso   1.000  H
  O132     1.0000 0.06687  0.11080  0.60910  Biso   1.000  O
  C1548    1.0000 0.87492  0.21565  0.58741  Biso   1.000  C
  C1549    1.0000 0.87200  0.21930  0.56065  Biso   1.000  C
  C1550    1.0000 0.87200  0.24440  0.55028  Biso   1.000  C
  H1168    1.0000 0.87000  0.24690  0.53240  Biso   1.000  H
  C1551    1.0000 0.87493  0.26590  0.56670  Biso   1.000  C
  C1552    1.0000 0.87785  0.26224  0.59350  Biso   1.000  C
  H1169    1.0000 0.87980  0.27660  0.60440  Biso   1.000  H
  C1553    1.0000 0.87784  0.23710  0.60383  Biso   1.000  C
  C1554    1.0000 0.86883  0.19600  0.54282  Biso   1.000  C
  H1170    1.0000 0.86710  0.20190  0.52510  Biso   1.000  H
  H1171    1.0000 0.88390  0.18490  0.54430  Biso   1.000  H
  H1172    1.0000 0.85350  0.18640  0.54780  Biso   1.000  H
  C1555    1.0000 0.87494  0.29320  0.55540  Biso   1.000  C
  H1173    1.0000 0.87280  0.29230  0.53680  Biso   1.000  H
  H1174    1.0000 0.86080  0.30310  0.56290  Biso   1.000  H
  H1175    1.0000 0.89130  0.30160  0.55940  Biso   1.000  H
  C1556    1.0000 0.88101  0.23320  0.63291  Biso   1.000  C
  H1176    1.0000 0.88280  0.24980  0.64130  Biso   1.000  H
  H1177    1.0000 0.86590  0.22430  0.63970  Biso   1.000  H
  H1178    1.0000 0.89630  0.22280  0.63620  Biso   1.000  H
  Zn95     1.0000 0.37485  0.62070  0.61760  Biso   1.000  Zn
  N125     1.0000 0.34655  0.65295  0.61333  Biso   1.000  N
  C1557    1.0000 0.31930  0.64800  0.61536  Biso   1.000  C
  C1558    1.0000 0.30580  0.67041  0.60608  Biso   1.000  C
  H1179    1.0000 0.28770  0.67240  0.60520  Biso   1.000  H
  C1559    1.0000 0.32470  0.68921  0.59831  Biso   1.000  C
  H1180    1.0000 0.32120  0.70570  0.59150  Biso   1.000  H
  C1560    1.0000 0.34988  0.67842  0.60280  Biso   1.000  C
  C1561    1.0000 0.37491  0.68859  0.59860  Biso   1.000  C
  N126     1.0000 0.40328  0.65283  0.61341  Biso   1.000  N
  C1562    1.0000 0.39980  0.67829  0.60290  Biso   1.000  C
  C1563    1.0000 0.42492  0.68922  0.59841  Biso   1.000  C
  H1181    1.0000 0.42830  0.70570  0.59160  Biso   1.000  H
  C1564    1.0000 0.44393  0.67052  0.60614  Biso   1.000  C
  H1182    1.0000 0.46200  0.67260  0.60530  Biso   1.000  H
  C1565    1.0000 0.43055  0.64803  0.61542  Biso   1.000  C
  C1566    1.0000 0.26525  0.64030  0.64280  Biso   1.000  C
  H1183    1.0000 0.27430  0.65050  0.65480  Biso   1.000  H
  C1567    1.0000 0.23807  0.64020  0.64270  Biso   1.000  C
  H1184    1.0000 0.22890  0.65040  0.65470  Biso   1.000  H
  O133     1.0000 0.18301  0.63930  0.64070  Biso   1.000  O
  C1568    1.0000 0.48441  0.61290  0.60480  Biso   1.000  C
  H1185    1.0000 0.47530  0.60480  0.59130  Biso   1.000  H
  C1569    1.0000 0.51159  0.61280  0.60470  Biso   1.000  C
  H1186    1.0000 0.52060  0.60470  0.59110  Biso   1.000  H
  O134     1.0000 0.56687  0.61080  0.60910  Biso   1.000  O
  C1570    1.0000 0.37492  0.71565  0.58741  Biso   1.000  C
  C1571    1.0000 0.37200  0.71930  0.56065  Biso   1.000  C
  C1572    1.0000 0.37200  0.74440  0.55028  Biso   1.000  C
  H1187    1.0000 0.37000  0.74690  0.53240  Biso   1.000  H
  C1573    1.0000 0.37493  0.76590  0.56670  Biso   1.000  C
  C1574    1.0000 0.37785  0.76224  0.59350  Biso   1.000  C
  H1188    1.0000 0.37980  0.77660  0.60440  Biso   1.000  H
  C1575    1.0000 0.37784  0.73710  0.60383  Biso   1.000  C
  C1576    1.0000 0.36883  0.69600  0.54282  Biso   1.000  C
  H1189    1.0000 0.36710  0.70190  0.52510  Biso   1.000  H
  H1190    1.0000 0.38390  0.68490  0.54430  Biso   1.000  H
  H1191    1.0000 0.35350  0.68640  0.54780  Biso   1.000  H
  C1577    1.0000 0.37494  0.79320  0.55540  Biso   1.000  C
  H1192    1.0000 0.37280  0.79230  0.53680  Biso   1.000  H
  H1193    1.0000 0.36080  0.80310  0.56290  Biso   1.000  H
  H1194    1.0000 0.39130  0.80160  0.55940  Biso   1.000  H
  C1578    1.0000 0.38101  0.73320  0.63291  Biso   1.000  C
  H1195    1.0000 0.38280  0.74980  0.64130  Biso   1.000  H
  H1196    1.0000 0.36590  0.72430  0.63970  Biso   1.000  H
  H1197    1.0000 0.39630  0.72280  0.63620  Biso   1.000  H
  Zn96     1.0000 0.37485  0.12070  0.11760  Biso   1.000  Zn
  N127     1.0000 0.34655  0.15295  0.11333  Biso   1.000  N
  C1579    1.0000 0.31930  0.14800  0.11536  Biso   1.000  C
  C1580    1.0000 0.30580  0.17041  0.10608  Biso   1.000  C
  H1198    1.0000 0.28770  0.17240  0.10520  Biso   1.000  H
  C1581    1.0000 0.32470  0.18921  0.09831  Biso   1.000  C
  H1199    1.0000 0.32120  0.20570  0.09150  Biso   1.000  H
  C1582    1.0000 0.34988  0.17842  0.10280  Biso   1.000  C
  C1583    1.0000 0.37491  0.18859  0.09860  Biso   1.000  C
  N128     1.0000 0.40328  0.15283  0.11341  Biso   1.000  N
  C1584    1.0000 0.39980  0.17829  0.10290  Biso   1.000  C
  C1585    1.0000 0.42492  0.18922  0.09841  Biso   1.000  C
  H1200    1.0000 0.42830  0.20570  0.09160  Biso   1.000  H
  C1586    1.0000 0.44393  0.17052  0.10614  Biso   1.000  C
  H1201    1.0000 0.46200  0.17260  0.10530  Biso   1.000  H
  C1587    1.0000 0.43055  0.14803  0.11542  Biso   1.000  C
  C1588    1.0000 0.26525  0.14030  0.14280  Biso   1.000  C
  H1202    1.0000 0.27430  0.15050  0.15480  Biso   1.000  H
  C1589    1.0000 0.23807  0.14020  0.14270  Biso   1.000  C
  H1203    1.0000 0.22890  0.15040  0.15470  Biso   1.000  H
  O135     1.0000 0.18301  0.13930  0.14070  Biso   1.000  O
  C1590    1.0000 0.48441  0.11290  0.10480  Biso   1.000  C
  H1204    1.0000 0.47530  0.10480  0.09130  Biso   1.000  H
  C1591    1.0000 0.51159  0.11280  0.10470  Biso   1.000  C
  H1205    1.0000 0.52060  0.10470  0.09110  Biso   1.000  H
  O136     1.0000 0.56687  0.11080  0.10910  Biso   1.000  O
  C1592    1.0000 0.37492  0.21565  0.08741  Biso   1.000  C
  C1593    1.0000 0.37200  0.21930  0.06065  Biso   1.000  C
  C1594    1.0000 0.37200  0.24440  0.05028  Biso   1.000  C
  H1206    1.0000 0.37000  0.24690  0.03240  Biso   1.000  H
  C1595    1.0000 0.37493  0.26590  0.06670  Biso   1.000  C
  C1596    1.0000 0.37785  0.26224  0.09350  Biso   1.000  C
  H1207    1.0000 0.37980  0.27660  0.10440  Biso   1.000  H
  C1597    1.0000 0.37784  0.23710  0.10383  Biso   1.000  C
  C1598    1.0000 0.36883  0.19600  0.04282  Biso   1.000  C
  H1208    1.0000 0.36710  0.20190  0.02510  Biso   1.000  H
  H1209    1.0000 0.38390  0.18490  0.04430  Biso   1.000  H
  H1210    1.0000 0.35350  0.18640  0.04780  Biso   1.000  H
  C1599    1.0000 0.37494  0.29320  0.05540  Biso   1.000  C
  H1211    1.0000 0.37280  0.29230  0.03680  Biso   1.000  H
  H1212    1.0000 0.36080  0.30310  0.06290  Biso   1.000  H
  H1213    1.0000 0.39130  0.30160  0.05940  Biso   1.000  H
  C1600    1.0000 0.38101  0.23320  0.13291  Biso   1.000  C
  H1214    1.0000 0.38280  0.24980  0.14130  Biso   1.000  H
  H1215    1.0000 0.36590  0.22430  0.13970  Biso   1.000  H
  H1216    1.0000 0.39630  0.22280  0.13620  Biso   1.000  H
  Zn97     1.0000 0.63240  0.87485  0.12930  Biso   1.000  Zn
  N129     1.0000 0.63667  0.84655  0.09705  Biso   1.000  N
  C1601    1.0000 0.63464  0.81930  0.10200  Biso   1.000  C
  C1602    1.0000 0.64392  0.80580  0.07959  Biso   1.000  C
  H1217    1.0000 0.64480  0.78770  0.07760  Biso   1.000  H
  C1603    1.0000 0.65169  0.82470  0.06079  Biso   1.000  C
  H1218    1.0000 0.65850  0.82120  0.04430  Biso   1.000  H
  C1604    1.0000 0.64720  0.84988  0.07158  Biso   1.000  C
  C1605    1.0000 0.65140  0.87491  0.06141  Biso   1.000  C
  N130     1.0000 0.63659  0.90328  0.09717  Biso   1.000  N
  C1606    1.0000 0.64710  0.89980  0.07171  Biso   1.000  C
  C1607    1.0000 0.65159  0.92492  0.06078  Biso   1.000  C
  H1219    1.0000 0.65840  0.92830  0.04430  Biso   1.000  H
  C1608    1.0000 0.64386  0.94393  0.07948  Biso   1.000  C
  H1220    1.0000 0.64470  0.96200  0.07740  Biso   1.000  H
  C1609    1.0000 0.63458  0.93055  0.10197  Biso   1.000  C
  C1610    1.0000 0.60720  0.76525  0.10970  Biso   1.000  C
  H1221    1.0000 0.59520  0.77430  0.09950  Biso   1.000  H
  C1611    1.0000 0.60730  0.73807  0.10980  Biso   1.000  C
  H1222    1.0000 0.59530  0.72890  0.09960  Biso   1.000  H
  O137     1.0000 0.60930  0.68301  0.11070  Biso   1.000  O
  C1612    1.0000 0.64520  0.98441  0.13710  Biso   1.000  C
  H1223    1.0000 0.65870  0.97530  0.14520  Biso   1.000  H
  C1613    1.0000 0.64530  0.01159  0.13720  Biso   1.000  C
  H1224    1.0000 0.65890  0.02060  0.14530  Biso   1.000  H
  O138     1.0000 0.64090  0.06687  0.13920  Biso   1.000  O
  C1614    1.0000 0.66259  0.87492  0.03435  Biso   1.000  C
  C1615    1.0000 0.68935  0.87200  0.03070  Biso   1.000  C
  C1616    1.0000 0.69972  0.87200  0.00560  Biso   1.000  C
  H1225    1.0000 0.71760  0.87000  0.00310  Biso   1.000  H
  C1617    1.0000 0.68330  0.87493  0.98410  Biso   1.000  C
  C1618    1.0000 0.65650  0.87785  0.98776  Biso   1.000  C
  H1226    1.0000 0.64560  0.87980  0.97340  Biso   1.000  H
  C1619    1.0000 0.64617  0.87784  0.01290  Biso   1.000  C
  C1620    1.0000 0.70718  0.86883  0.05400  Biso   1.000  C
  H1227    1.0000 0.72490  0.86710  0.04810  Biso   1.000  H
  H1228    1.0000 0.70570  0.88390  0.06510  Biso   1.000  H
  H1229    1.0000 0.70220  0.85350  0.06360  Biso   1.000  H
  C1621    1.0000 0.69460  0.87494  0.95680  Biso   1.000  C
  H1230    1.0000 0.71320  0.87280  0.95770  Biso   1.000  H
  H1231    1.0000 0.68710  0.86080  0.94690  Biso   1.000  H
  H1232    1.0000 0.69060  0.89130  0.94840  Biso   1.000  H
  C1622    1.0000 0.61709  0.88101  0.01680  Biso   1.000  C
  H1233    1.0000 0.60870  0.88280  0.00020  Biso   1.000  H
  H1234    1.0000 0.61030  0.86590  0.02570  Biso   1.000  H
  H1235    1.0000 0.61380  0.89630  0.02720  Biso   1.000  H
  Zn98     1.0000 0.63240  0.37485  0.62930  Biso   1.000  Zn
  N131     1.0000 0.63667  0.34655  0.59705  Biso   1.000  N
  C1623    1.0000 0.63464  0.31930  0.60200  Biso   1.000  C
  C1624    1.0000 0.64392  0.30580  0.57959  Biso   1.000  C
  H1236    1.0000 0.64480  0.28770  0.57760  Biso   1.000  H
  C1625    1.0000 0.65169  0.32470  0.56079  Biso   1.000  C
  H1237    1.0000 0.65850  0.32120  0.54430  Biso   1.000  H
  C1626    1.0000 0.64720  0.34988  0.57158  Biso   1.000  C
  C1627    1.0000 0.65140  0.37491  0.56141  Biso   1.000  C
  N132     1.0000 0.63659  0.40328  0.59717  Biso   1.000  N
  C1628    1.0000 0.64710  0.39980  0.57171  Biso   1.000  C
  C1629    1.0000 0.65159  0.42492  0.56078  Biso   1.000  C
  H1238    1.0000 0.65840  0.42830  0.54430  Biso   1.000  H
  C1630    1.0000 0.64386  0.44393  0.57948  Biso   1.000  C
  H1239    1.0000 0.64470  0.46200  0.57740  Biso   1.000  H
  C1631    1.0000 0.63458  0.43055  0.60197  Biso   1.000  C
  C1632    1.0000 0.60720  0.26525  0.60970  Biso   1.000  C
  H1240    1.0000 0.59520  0.27430  0.59950  Biso   1.000  H
  C1633    1.0000 0.60730  0.23807  0.60980  Biso   1.000  C
  H1241    1.0000 0.59530  0.22890  0.59960  Biso   1.000  H
  O139     1.0000 0.60930  0.18301  0.61070  Biso   1.000  O
  C1634    1.0000 0.64520  0.48441  0.63710  Biso   1.000  C
  H1242    1.0000 0.65870  0.47530  0.64520  Biso   1.000  H
  C1635    1.0000 0.64530  0.51159  0.63720  Biso   1.000  C
  H1243    1.0000 0.65890  0.52060  0.64530  Biso   1.000  H
  O140     1.0000 0.64090  0.56687  0.63920  Biso   1.000  O
  C1636    1.0000 0.66259  0.37492  0.53435  Biso   1.000  C
  C1637    1.0000 0.68935  0.37200  0.53070  Biso   1.000  C
  C1638    1.0000 0.69972  0.37200  0.50560  Biso   1.000  C
  H1244    1.0000 0.71760  0.37000  0.50310  Biso   1.000  H
  C1639    1.0000 0.68330  0.37493  0.48410  Biso   1.000  C
  C1640    1.0000 0.65650  0.37785  0.48776  Biso   1.000  C
  H1245    1.0000 0.64560  0.37980  0.47340  Biso   1.000  H
  C1641    1.0000 0.64617  0.37784  0.51290  Biso   1.000  C
  C1642    1.0000 0.70718  0.36883  0.55400  Biso   1.000  C
  H1246    1.0000 0.72490  0.36710  0.54810  Biso   1.000  H
  H1247    1.0000 0.70570  0.38390  0.56510  Biso   1.000  H
  H1248    1.0000 0.70220  0.35350  0.56360  Biso   1.000  H
  C1643    1.0000 0.69460  0.37494  0.45680  Biso   1.000  C
  H1249    1.0000 0.71320  0.37280  0.45770  Biso   1.000  H
  H1250    1.0000 0.68710  0.36080  0.44690  Biso   1.000  H
  H1251    1.0000 0.69060  0.39130  0.44840  Biso   1.000  H
  C1644    1.0000 0.61709  0.38101  0.51680  Biso   1.000  C
  H1252    1.0000 0.60870  0.38280  0.50020  Biso   1.000  H
  H1253    1.0000 0.61030  0.36590  0.52570  Biso   1.000  H
  H1254    1.0000 0.61380  0.39630  0.52720  Biso   1.000  H
  Zn99     1.0000 0.13240  0.87485  0.62930  Biso   1.000  Zn
  N133     1.0000 0.13667  0.84655  0.59705  Biso   1.000  N
  C1645    1.0000 0.13464  0.81930  0.60200  Biso   1.000  C
  C1646    1.0000 0.14392  0.80580  0.57959  Biso   1.000  C
  H1255    1.0000 0.14480  0.78770  0.57760  Biso   1.000  H
  C1647    1.0000 0.15169  0.82470  0.56079  Biso   1.000  C
  H1256    1.0000 0.15850  0.82120  0.54430  Biso   1.000  H
  C1648    1.0000 0.14720  0.84988  0.57158  Biso   1.000  C
  C1649    1.0000 0.15140  0.87491  0.56141  Biso   1.000  C
  N134     1.0000 0.13659  0.90328  0.59717  Biso   1.000  N
  C1650    1.0000 0.14710  0.89980  0.57171  Biso   1.000  C
  C1651    1.0000 0.15159  0.92492  0.56078  Biso   1.000  C
  H1257    1.0000 0.15840  0.92830  0.54430  Biso   1.000  H
  C1652    1.0000 0.14386  0.94393  0.57948  Biso   1.000  C
  H1258    1.0000 0.14470  0.96200  0.57740  Biso   1.000  H
  C1653    1.0000 0.13458  0.93055  0.60197  Biso   1.000  C
  C1654    1.0000 0.10720  0.76525  0.60970  Biso   1.000  C
  H1259    1.0000 0.09520  0.77430  0.59950  Biso   1.000  H
  C1655    1.0000 0.10730  0.73807  0.60980  Biso   1.000  C
  H1260    1.0000 0.09530  0.72890  0.59960  Biso   1.000  H
  O141     1.0000 0.10930  0.68301  0.61070  Biso   1.000  O
  C1656    1.0000 0.14520  0.98441  0.63710  Biso   1.000  C
  H1261    1.0000 0.15870  0.97530  0.64520  Biso   1.000  H
  C1657    1.0000 0.14530  0.01159  0.63720  Biso   1.000  C
  H1262    1.0000 0.15890  0.02060  0.64530  Biso   1.000  H
  O142     1.0000 0.14090  0.06687  0.63920  Biso   1.000  O
  C1658    1.0000 0.16259  0.87492  0.53435  Biso   1.000  C
  C1659    1.0000 0.18935  0.87200  0.53070  Biso   1.000  C
  C1660    1.0000 0.19972  0.87200  0.50560  Biso   1.000  C
  H1263    1.0000 0.21760  0.87000  0.50310  Biso   1.000  H
  C1661    1.0000 0.18330  0.87493  0.48410  Biso   1.000  C
  C1662    1.0000 0.15650  0.87785  0.48776  Biso   1.000  C
  H1264    1.0000 0.14560  0.87980  0.47340  Biso   1.000  H
  C1663    1.0000 0.14617  0.87784  0.51290  Biso   1.000  C
  C1664    1.0000 0.20718  0.86883  0.55400  Biso   1.000  C
  H1265    1.0000 0.22490  0.86710  0.54810  Biso   1.000  H
  H1266    1.0000 0.20570  0.88390  0.56510  Biso   1.000  H
  H1267    1.0000 0.20220  0.85350  0.56360  Biso   1.000  H
  C1665    1.0000 0.19460  0.87494  0.45680  Biso   1.000  C
  H1268    1.0000 0.21320  0.87280  0.45770  Biso   1.000  H
  H1269    1.0000 0.18710  0.86080  0.44690  Biso   1.000  H
  H1270    1.0000 0.19060  0.89130  0.44840  Biso   1.000  H
  C1666    1.0000 0.11709  0.88101  0.51680  Biso   1.000  C
  H1271    1.0000 0.10870  0.88280  0.50020  Biso   1.000  H
  H1272    1.0000 0.11030  0.86590  0.52570  Biso   1.000  H
  H1273    1.0000 0.11380  0.89630  0.52720  Biso   1.000  H
  Zn100    1.0000 0.13240  0.37485  0.12930  Biso   1.000  Zn
  N135     1.0000 0.13667  0.34655  0.09705  Biso   1.000  N
  C1667    1.0000 0.13464  0.31930  0.10200  Biso   1.000  C
  C1668    1.0000 0.14392  0.30580  0.07959  Biso   1.000  C
  H1274    1.0000 0.14480  0.28770  0.07760  Biso   1.000  H
  C1669    1.0000 0.15169  0.32470  0.06079  Biso   1.000  C
  H1275    1.0000 0.15850  0.32120  0.04430  Biso   1.000  H
  C1670    1.0000 0.14720  0.34988  0.07158  Biso   1.000  C
  C1671    1.0000 0.15140  0.37491  0.06141  Biso   1.000  C
  N136     1.0000 0.13659  0.40328  0.09717  Biso   1.000  N
  C1672    1.0000 0.14710  0.39980  0.07171  Biso   1.000  C
  C1673    1.0000 0.15159  0.42492  0.06078  Biso   1.000  C
  H1276    1.0000 0.15840  0.42830  0.04430  Biso   1.000  H
  C1674    1.0000 0.14386  0.44393  0.07948  Biso   1.000  C
  H1277    1.0000 0.14470  0.46200  0.07740  Biso   1.000  H
  C1675    1.0000 0.13458  0.43055  0.10197  Biso   1.000  C
  C1676    1.0000 0.10720  0.26525  0.10970  Biso   1.000  C
  H1278    1.0000 0.09520  0.27430  0.09950  Biso   1.000  H
  C1677    1.0000 0.10730  0.23807  0.10980  Biso   1.000  C
  H1279    1.0000 0.09530  0.22890  0.09960  Biso   1.000  H
  O143     1.0000 0.10930  0.18301  0.11070  Biso   1.000  O
  C1678    1.0000 0.14520  0.48441  0.13710  Biso   1.000  C
  H1280    1.0000 0.15870  0.47530  0.14520  Biso   1.000  H
  C1679    1.0000 0.14530  0.51159  0.13720  Biso   1.000  C
  H1281    1.0000 0.15890  0.52060  0.14530  Biso   1.000  H
  O144     1.0000 0.14090  0.56687  0.13920  Biso   1.000  O
  C1680    1.0000 0.16259  0.37492  0.03435  Biso   1.000  C
  C1681    1.0000 0.18935  0.37200  0.03070  Biso   1.000  C
  C1682    1.0000 0.19972  0.37200  0.00560  Biso   1.000  C
  H1282    1.0000 0.21760  0.37000  0.00310  Biso   1.000  H
  C1683    1.0000 0.18330  0.37493  0.98410  Biso   1.000  C
  C1684    1.0000 0.15650  0.37785  0.98776  Biso   1.000  C
  H1283    1.0000 0.14560  0.37980  0.97340  Biso   1.000  H
  C1685    1.0000 0.14617  0.37784  0.01290  Biso   1.000  C
  C1686    1.0000 0.20718  0.36883  0.05400  Biso   1.000  C
  H1284    1.0000 0.22490  0.36710  0.04810  Biso   1.000  H
  H1285    1.0000 0.20570  0.38390  0.06510  Biso   1.000  H
  H1286    1.0000 0.20220  0.35350  0.06360  Biso   1.000  H
  C1687    1.0000 0.19460  0.37494  0.95680  Biso   1.000  C
  H1287    1.0000 0.21320  0.37280  0.95770  Biso   1.000  H
  H1288    1.0000 0.18710  0.36080  0.94690  Biso   1.000  H
  H1289    1.0000 0.19060  0.39130  0.94840  Biso   1.000  H
  C1688    1.0000 0.11709  0.38101  0.01680  Biso   1.000  C
  H1290    1.0000 0.10870  0.38280  0.00020  Biso   1.000  H
  H1291    1.0000 0.11030  0.36590  0.02570  Biso   1.000  H
  H1292    1.0000 0.11380  0.39630  0.02720  Biso   1.000  H
  Zn101    1.0000 0.63240  0.87515  0.62070  Biso   1.000  Zn
  N137     1.0000 0.63667  0.90345  0.65295  Biso   1.000  N
  C1689    1.0000 0.63464  0.93070  0.64800  Biso   1.000  C
  C1690    1.0000 0.64392  0.94420  0.67041  Biso   1.000  C
  H1293    1.0000 0.64480  0.96230  0.67240  Biso   1.000  H
  C1691    1.0000 0.65169  0.92530  0.68921  Biso   1.000  C
  H1294    1.0000 0.65850  0.92880  0.70570  Biso   1.000  H
  C1692    1.0000 0.64720  0.90012  0.67842  Biso   1.000  C
  C1693    1.0000 0.65140  0.87509  0.68859  Biso   1.000  C
  N138     1.0000 0.63659  0.84672  0.65283  Biso   1.000  N
  C1694    1.0000 0.64710  0.85020  0.67829  Biso   1.000  C
  C1695    1.0000 0.65159  0.82508  0.68922  Biso   1.000  C
  H1295    1.0000 0.65840  0.82170  0.70570  Biso   1.000  H
  C1696    1.0000 0.64386  0.80607  0.67052  Biso   1.000  C
  H1296    1.0000 0.64470  0.78800  0.67260  Biso   1.000  H
  C1697    1.0000 0.63458  0.81945  0.64803  Biso   1.000  C
  C1698    1.0000 0.60720  0.98475  0.64030  Biso   1.000  C
  H1297    1.0000 0.59520  0.97570  0.65050  Biso   1.000  H
  C1699    1.0000 0.60730  0.01193  0.64020  Biso   1.000  C
  H1298    1.0000 0.59530  0.02110  0.65040  Biso   1.000  H
  O145     1.0000 0.60930  0.06699  0.63930  Biso   1.000  O
  C1700    1.0000 0.64520  0.76559  0.61290  Biso   1.000  C
  H1299    1.0000 0.65870  0.77470  0.60480  Biso   1.000  H
  C1701    1.0000 0.64530  0.73841  0.61280  Biso   1.000  C
  H1300    1.0000 0.65890  0.72940  0.60470  Biso   1.000  H
  O146     1.0000 0.64090  0.68313  0.61080  Biso   1.000  O
  C1702    1.0000 0.66259  0.87508  0.71565  Biso   1.000  C
  C1703    1.0000 0.68935  0.87800  0.71930  Biso   1.000  C
  C1704    1.0000 0.69972  0.87800  0.74440  Biso   1.000  C
  H1301    1.0000 0.71760  0.88000  0.74690  Biso   1.000  H
  C1705    1.0000 0.68330  0.87507  0.76590  Biso   1.000  C
  C1706    1.0000 0.65650  0.87215  0.76224  Biso   1.000  C
  H1302    1.0000 0.64560  0.87020  0.77660  Biso   1.000  H
  C1707    1.0000 0.64617  0.87216  0.73710  Biso   1.000  C
  C1708    1.0000 0.70718  0.88117  0.69600  Biso   1.000  C
  H1303    1.0000 0.72490  0.88290  0.70190  Biso   1.000  H
  H1304    1.0000 0.70570  0.86610  0.68490  Biso   1.000  H
  H1305    1.0000 0.70220  0.89650  0.68640  Biso   1.000  H
  C1709    1.0000 0.69460  0.87506  0.79320  Biso   1.000  C
  H1306    1.0000 0.71320  0.87720  0.79230  Biso   1.000  H
  H1307    1.0000 0.68710  0.88920  0.80310  Biso   1.000  H
  H1308    1.0000 0.69060  0.85870  0.80160  Biso   1.000  H
  C1710    1.0000 0.61709  0.86899  0.73320  Biso   1.000  C
  H1309    1.0000 0.60870  0.86720  0.74980  Biso   1.000  H
  H1310    1.0000 0.61030  0.88410  0.72430  Biso   1.000  H
  H1311    1.0000 0.61380  0.85370  0.72280  Biso   1.000  H
  Zn102    1.0000 0.63240  0.37515  0.12070  Biso   1.000  Zn
  N139     1.0000 0.63667  0.40345  0.15295  Biso   1.000  N
  C1711    1.0000 0.63464  0.43070  0.14800  Biso   1.000  C
  C1712    1.0000 0.64392  0.44420  0.17041  Biso   1.000  C
  H1312    1.0000 0.64480  0.46230  0.17240  Biso   1.000  H
  C1713    1.0000 0.65169  0.42530  0.18921  Biso   1.000  C
  H1313    1.0000 0.65850  0.42880  0.20570  Biso   1.000  H
  C1714    1.0000 0.64720  0.40012  0.17842  Biso   1.000  C
  C1715    1.0000 0.65140  0.37509  0.18859  Biso   1.000  C
  N140     1.0000 0.63659  0.34672  0.15283  Biso   1.000  N
  C1716    1.0000 0.64710  0.35020  0.17829  Biso   1.000  C
  C1717    1.0000 0.65159  0.32508  0.18922  Biso   1.000  C
  H1314    1.0000 0.65840  0.32170  0.20570  Biso   1.000  H
  C1718    1.0000 0.64386  0.30607  0.17052  Biso   1.000  C
  H1315    1.0000 0.64470  0.28800  0.17260  Biso   1.000  H
  C1719    1.0000 0.63458  0.31945  0.14803  Biso   1.000  C
  C1720    1.0000 0.60720  0.48475  0.14030  Biso   1.000  C
  H1316    1.0000 0.59520  0.47570  0.15050  Biso   1.000  H
  C1721    1.0000 0.60730  0.51193  0.14020  Biso   1.000  C
  H1317    1.0000 0.59530  0.52110  0.15040  Biso   1.000  H
  O147     1.0000 0.60930  0.56699  0.13930  Biso   1.000  O
  C1722    1.0000 0.64520  0.26559  0.11290  Biso   1.000  C
  H1318    1.0000 0.65870  0.27470  0.10480  Biso   1.000  H
  C1723    1.0000 0.64530  0.23841  0.11280  Biso   1.000  C
  H1319    1.0000 0.65890  0.22940  0.10470  Biso   1.000  H
  O148     1.0000 0.64090  0.18313  0.11080  Biso   1.000  O
  C1724    1.0000 0.66259  0.37508  0.21565  Biso   1.000  C
  C1725    1.0000 0.68935  0.37800  0.21930  Biso   1.000  C
  C1726    1.0000 0.69972  0.37800  0.24440  Biso   1.000  C
  H1320    1.0000 0.71760  0.38000  0.24690  Biso   1.000  H
  C1727    1.0000 0.68330  0.37507  0.26590  Biso   1.000  C
  C1728    1.0000 0.65650  0.37215  0.26224  Biso   1.000  C
  H1321    1.0000 0.64560  0.37020  0.27660  Biso   1.000  H
  C1729    1.0000 0.64617  0.37216  0.23710  Biso   1.000  C
  C1730    1.0000 0.70718  0.38117  0.19600  Biso   1.000  C
  H1322    1.0000 0.72490  0.38290  0.20190  Biso   1.000  H
  H1323    1.0000 0.70570  0.36610  0.18490  Biso   1.000  H
  H1324    1.0000 0.70220  0.39650  0.18640  Biso   1.000  H
  C1731    1.0000 0.69460  0.37506  0.29320  Biso   1.000  C
  H1325    1.0000 0.71320  0.37720  0.29230  Biso   1.000  H
  H1326    1.0000 0.68710  0.38920  0.30310  Biso   1.000  H
  H1327    1.0000 0.69060  0.35870  0.30160  Biso   1.000  H
  C1732    1.0000 0.61709  0.36899  0.23320  Biso   1.000  C
  H1328    1.0000 0.60870  0.36720  0.24980  Biso   1.000  H
  H1329    1.0000 0.61030  0.38410  0.22430  Biso   1.000  H
  H1330    1.0000 0.61380  0.35370  0.22280  Biso   1.000  H
  Zn103    1.0000 0.13240  0.87515  0.12070  Biso   1.000  Zn
  N141     1.0000 0.13667  0.90345  0.15295  Biso   1.000  N
  C1733    1.0000 0.13464  0.93070  0.14800  Biso   1.000  C
  C1734    1.0000 0.14392  0.94420  0.17041  Biso   1.000  C
  H1331    1.0000 0.14480  0.96230  0.17240  Biso   1.000  H
  C1735    1.0000 0.15169  0.92530  0.18921  Biso   1.000  C
  H1332    1.0000 0.15850  0.92880  0.20570  Biso   1.000  H
  C1736    1.0000 0.14720  0.90012  0.17842  Biso   1.000  C
  C1737    1.0000 0.15140  0.87509  0.18859  Biso   1.000  C
  N142     1.0000 0.13659  0.84672  0.15283  Biso   1.000  N
  C1738    1.0000 0.14710  0.85020  0.17829  Biso   1.000  C
  C1739    1.0000 0.15159  0.82508  0.18922  Biso   1.000  C
  H1333    1.0000 0.15840  0.82170  0.20570  Biso   1.000  H
  C1740    1.0000 0.14386  0.80607  0.17052  Biso   1.000  C
  H1334    1.0000 0.14470  0.78800  0.17260  Biso   1.000  H
  C1741    1.0000 0.13458  0.81945  0.14803  Biso   1.000  C
  C1742    1.0000 0.10720  0.98475  0.14030  Biso   1.000  C
  H1335    1.0000 0.09520  0.97570  0.15050  Biso   1.000  H
  C1743    1.0000 0.10730  0.01193  0.14020  Biso   1.000  C
  H1336    1.0000 0.09530  0.02110  0.15040  Biso   1.000  H
  O149     1.0000 0.10930  0.06699  0.13930  Biso   1.000  O
  C1744    1.0000 0.14520  0.76559  0.11290  Biso   1.000  C
  H1337    1.0000 0.15870  0.77470  0.10480  Biso   1.000  H
  C1745    1.0000 0.14530  0.73841  0.11280  Biso   1.000  C
  H1338    1.0000 0.15890  0.72940  0.10470  Biso   1.000  H
  O150     1.0000 0.14090  0.68313  0.11080  Biso   1.000  O
  C1746    1.0000 0.16259  0.87508  0.21565  Biso   1.000  C
  C1747    1.0000 0.18935  0.87800  0.21930  Biso   1.000  C
  C1748    1.0000 0.19972  0.87800  0.24440  Biso   1.000  C
  H1339    1.0000 0.21760  0.88000  0.24690  Biso   1.000  H
  C1749    1.0000 0.18330  0.87507  0.26590  Biso   1.000  C
  C1750    1.0000 0.15650  0.87215  0.26224  Biso   1.000  C
  H1340    1.0000 0.14560  0.87020  0.27660  Biso   1.000  H
  C1751    1.0000 0.14617  0.87216  0.23710  Biso   1.000  C
  C1752    1.0000 0.20718  0.88117  0.19600  Biso   1.000  C
  H1341    1.0000 0.22490  0.88290  0.20190  Biso   1.000  H
  H1342    1.0000 0.20570  0.86610  0.18490  Biso   1.000  H
  H1343    1.0000 0.20220  0.89650  0.18640  Biso   1.000  H
  C1753    1.0000 0.19460  0.87506  0.29320  Biso   1.000  C
  H1344    1.0000 0.21320  0.87720  0.29230  Biso   1.000  H
  H1345    1.0000 0.18710  0.88920  0.30310  Biso   1.000  H
  H1346    1.0000 0.19060  0.85870  0.30160  Biso   1.000  H
  C1754    1.0000 0.11709  0.86899  0.23320  Biso   1.000  C
  H1347    1.0000 0.10870  0.86720  0.24980  Biso   1.000  H
  H1348    1.0000 0.11030  0.88410  0.22430  Biso   1.000  H
  H1349    1.0000 0.11380  0.85370  0.22280  Biso   1.000  H
  Zn104    1.0000 0.13240  0.37515  0.62070  Biso   1.000  Zn
  N143     1.0000 0.13667  0.40345  0.65295  Biso   1.000  N
  C1755    1.0000 0.13464  0.43070  0.64800  Biso   1.000  C
  C1756    1.0000 0.14392  0.44420  0.67041  Biso   1.000  C
  H1350    1.0000 0.14480  0.46230  0.67240  Biso   1.000  H
  C1757    1.0000 0.15169  0.42530  0.68921  Biso   1.000  C
  H1351    1.0000 0.15850  0.42880  0.70570  Biso   1.000  H
  C1758    1.0000 0.14720  0.40012  0.67842  Biso   1.000  C
  C1759    1.0000 0.15140  0.37509  0.68859  Biso   1.000  C
  N144     1.0000 0.13659  0.34672  0.65283  Biso   1.000  N
  C1760    1.0000 0.14710  0.35020  0.67829  Biso   1.000  C
  C1761    1.0000 0.15159  0.32508  0.68922  Biso   1.000  C
  H1352    1.0000 0.15840  0.32170  0.70570  Biso   1.000  H
  C1762    1.0000 0.14386  0.30607  0.67052  Biso   1.000  C
  H1353    1.0000 0.14470  0.28800  0.67260  Biso   1.000  H
  C1763    1.0000 0.13458  0.31945  0.64803  Biso   1.000  C
  C1764    1.0000 0.10720  0.48475  0.64030  Biso   1.000  C
  H1354    1.0000 0.09520  0.47570  0.65050  Biso   1.000  H
  C1765    1.0000 0.10730  0.51193  0.64020  Biso   1.000  C
  H1355    1.0000 0.09530  0.52110  0.65040  Biso   1.000  H
  O151     1.0000 0.10930  0.56699  0.63930  Biso   1.000  O
  C1766    1.0000 0.14520  0.26559  0.61290  Biso   1.000  C
  H1356    1.0000 0.15870  0.27470  0.60480  Biso   1.000  H
  C1767    1.0000 0.14530  0.23841  0.61280  Biso   1.000  C
  H1357    1.0000 0.15890  0.22940  0.60470  Biso   1.000  H
  O152     1.0000 0.14090  0.18313  0.61080  Biso   1.000  O
  C1768    1.0000 0.16259  0.37508  0.71565  Biso   1.000  C
  C1769    1.0000 0.18935  0.37800  0.71930  Biso   1.000  C
  C1770    1.0000 0.19972  0.37800  0.74440  Biso   1.000  C
  H1358    1.0000 0.21760  0.38000  0.74690  Biso   1.000  H
  C1771    1.0000 0.18330  0.37507  0.76590  Biso   1.000  C
  C1772    1.0000 0.15650  0.37215  0.76224  Biso   1.000  C
  H1359    1.0000 0.14560  0.37020  0.77660  Biso   1.000  H
  C1773    1.0000 0.14617  0.37216  0.73710  Biso   1.000  C
  C1774    1.0000 0.20718  0.38117  0.69600  Biso   1.000  C
  H1360    1.0000 0.22490  0.38290  0.70190  Biso   1.000  H
  H1361    1.0000 0.20570  0.36610  0.68490  Biso   1.000  H
  H1362    1.0000 0.20220  0.39650  0.68640  Biso   1.000  H
  C1775    1.0000 0.19460  0.37506  0.79320  Biso   1.000  C
  H1363    1.0000 0.21320  0.37720  0.79230  Biso   1.000  H
  H1364    1.0000 0.18710  0.38920  0.80310  Biso   1.000  H
  H1365    1.0000 0.19060  0.35870  0.80160  Biso   1.000  H
  C1776    1.0000 0.11709  0.36899  0.73320  Biso   1.000  C
  H1366    1.0000 0.10870  0.36720  0.74980  Biso   1.000  H
  H1367    1.0000 0.11030  0.38410  0.72430  Biso   1.000  H
  H1368    1.0000 0.11380  0.35370  0.72280  Biso   1.000  H
  Zn105    1.0000 0.11760  0.87515  0.12930  Biso   1.000  Zn
  N145     1.0000 0.11333  0.90345  0.09705  Biso   1.000  N
  C1777    1.0000 0.11536  0.93070  0.10200  Biso   1.000  C
  C1778    1.0000 0.10608  0.94420  0.07959  Biso   1.000  C
  H1369    1.0000 0.10520  0.96230  0.07760  Biso   1.000  H
  C1779    1.0000 0.09831  0.92530  0.06079  Biso   1.000  C
  H1370    1.0000 0.09150  0.92880  0.04430  Biso   1.000  H
  C1780    1.0000 0.10280  0.90012  0.07158  Biso   1.000  C
  C1781    1.0000 0.09860  0.87509  0.06141  Biso   1.000  C
  N146     1.0000 0.11341  0.84672  0.09717  Biso   1.000  N
  C1782    1.0000 0.10290  0.85020  0.07171  Biso   1.000  C
  C1783    1.0000 0.09841  0.82508  0.06078  Biso   1.000  C
  H1371    1.0000 0.09160  0.82170  0.04430  Biso   1.000  H
  C1784    1.0000 0.10614  0.80607  0.07948  Biso   1.000  C
  H1372    1.0000 0.10530  0.78800  0.07740  Biso   1.000  H
  C1785    1.0000 0.11542  0.81945  0.10197  Biso   1.000  C
  C1786    1.0000 0.14280  0.98475  0.10970  Biso   1.000  C
  H1373    1.0000 0.15480  0.97570  0.09950  Biso   1.000  H
  C1787    1.0000 0.14270  0.01193  0.10980  Biso   1.000  C
  H1374    1.0000 0.15470  0.02110  0.09960  Biso   1.000  H
  O153     1.0000 0.14070  0.06699  0.11070  Biso   1.000  O
  C1788    1.0000 0.10480  0.76559  0.13710  Biso   1.000  C
  H1375    1.0000 0.09130  0.77470  0.14520  Biso   1.000  H
  C1789    1.0000 0.10470  0.73841  0.13720  Biso   1.000  C
  H1376    1.0000 0.09110  0.72940  0.14530  Biso   1.000  H
  O154     1.0000 0.10910  0.68313  0.13920  Biso   1.000  O
  C1790    1.0000 0.08741  0.87508  0.03435  Biso   1.000  C
  C1791    1.0000 0.06065  0.87800  0.03070  Biso   1.000  C
  C1792    1.0000 0.05028  0.87800  0.00560  Biso   1.000  C
  H1377    1.0000 0.03240  0.88000  0.00310  Biso   1.000  H
  C1793    1.0000 0.06670  0.87507  0.98410  Biso   1.000  C
  C1794    1.0000 0.09350  0.87215  0.98776  Biso   1.000  C
  H1378    1.0000 0.10440  0.87020  0.97340  Biso   1.000  H
  C1795    1.0000 0.10383  0.87216  0.01290  Biso   1.000  C
  C1796    1.0000 0.04282  0.88117  0.05400  Biso   1.000  C
  H1379    1.0000 0.02510  0.88290  0.04810  Biso   1.000  H
  H1380    1.0000 0.04430  0.86610  0.06510  Biso   1.000  H
  H1381    1.0000 0.04780  0.89650  0.06360  Biso   1.000  H
  C1797    1.0000 0.05540  0.87506  0.95680  Biso   1.000  C
  H1382    1.0000 0.03680  0.87720  0.95770  Biso   1.000  H
  H1383    1.0000 0.06290  0.88920  0.94690  Biso   1.000  H
  H1384    1.0000 0.05940  0.85870  0.94840  Biso   1.000  H
  C1798    1.0000 0.13291  0.86899  0.01680  Biso   1.000  C
  H1385    1.0000 0.14130  0.86720  0.00020  Biso   1.000  H
  H1386    1.0000 0.13970  0.88410  0.02570  Biso   1.000  H
  H1387    1.0000 0.13620  0.85370  0.02720  Biso   1.000  H
  Zn106    1.0000 0.11760  0.37515  0.62930  Biso   1.000  Zn
  N147     1.0000 0.11333  0.40345  0.59705  Biso   1.000  N
  C1799    1.0000 0.11536  0.43070  0.60200  Biso   1.000  C
  C1800    1.0000 0.10608  0.44420  0.57959  Biso   1.000  C
  H1388    1.0000 0.10520  0.46230  0.57760  Biso   1.000  H
  C1801    1.0000 0.09831  0.42530  0.56079  Biso   1.000  C
  H1389    1.0000 0.09150  0.42880  0.54430  Biso   1.000  H
  C1802    1.0000 0.10280  0.40012  0.57158  Biso   1.000  C
  C1803    1.0000 0.09860  0.37509  0.56141  Biso   1.000  C
  N148     1.0000 0.11341  0.34672  0.59717  Biso   1.000  N
  C1804    1.0000 0.10290  0.35020  0.57171  Biso   1.000  C
  C1805    1.0000 0.09841  0.32508  0.56078  Biso   1.000  C
  H1390    1.0000 0.09160  0.32170  0.54430  Biso   1.000  H
  C1806    1.0000 0.10614  0.30607  0.57948  Biso   1.000  C
  H1391    1.0000 0.10530  0.28800  0.57740  Biso   1.000  H
  C1807    1.0000 0.11542  0.31945  0.60197  Biso   1.000  C
  C1808    1.0000 0.14280  0.48475  0.60970  Biso   1.000  C
  H1392    1.0000 0.15480  0.47570  0.59950  Biso   1.000  H
  C1809    1.0000 0.14270  0.51193  0.60980  Biso   1.000  C
  H1393    1.0000 0.15470  0.52110  0.59960  Biso   1.000  H
  O155     1.0000 0.14070  0.56699  0.61070  Biso   1.000  O
  C1810    1.0000 0.10480  0.26559  0.63710  Biso   1.000  C
  H1394    1.0000 0.09130  0.27470  0.64520  Biso   1.000  H
  C1811    1.0000 0.10470  0.23841  0.63720  Biso   1.000  C
  H1395    1.0000 0.09110  0.22940  0.64530  Biso   1.000  H
  O156     1.0000 0.10910  0.18313  0.63920  Biso   1.000  O
  C1812    1.0000 0.08741  0.37508  0.53435  Biso   1.000  C
  C1813    1.0000 0.06065  0.37800  0.53070  Biso   1.000  C
  C1814    1.0000 0.05028  0.37800  0.50560  Biso   1.000  C
  H1396    1.0000 0.03240  0.38000  0.50310  Biso   1.000  H
  C1815    1.0000 0.06670  0.37507  0.48410  Biso   1.000  C
  C1816    1.0000 0.09350  0.37215  0.48776  Biso   1.000  C
  H1397    1.0000 0.10440  0.37020  0.47340  Biso   1.000  H
  C1817    1.0000 0.10383  0.37216  0.51290  Biso   1.000  C
  C1818    1.0000 0.04282  0.38117  0.55400  Biso   1.000  C
  H1398    1.0000 0.02510  0.38290  0.54810  Biso   1.000  H
  H1399    1.0000 0.04430  0.36610  0.56510  Biso   1.000  H
  H1400    1.0000 0.04780  0.39650  0.56360  Biso   1.000  H
  C1819    1.0000 0.05540  0.37506  0.45680  Biso   1.000  C
  H1401    1.0000 0.03680  0.37720  0.45770  Biso   1.000  H
  H1402    1.0000 0.06290  0.38920  0.44690  Biso   1.000  H
  H1403    1.0000 0.05940  0.35870  0.44840  Biso   1.000  H
  C1820    1.0000 0.13291  0.36899  0.51680  Biso   1.000  C
  H1404    1.0000 0.14130  0.36720  0.50020  Biso   1.000  H
  H1405    1.0000 0.13970  0.38410  0.52570  Biso   1.000  H
  H1406    1.0000 0.13620  0.35370  0.52720  Biso   1.000  H
  Zn107    1.0000 0.61760  0.87515  0.62930  Biso   1.000  Zn
  N149     1.0000 0.61333  0.90345  0.59705  Biso   1.000  N
  C1821    1.0000 0.61536  0.93070  0.60200  Biso   1.000  C
  C1822    1.0000 0.60608  0.94420  0.57959  Biso   1.000  C
  H1407    1.0000 0.60520  0.96230  0.57760  Biso   1.000  H
  C1823    1.0000 0.59831  0.92530  0.56079  Biso   1.000  C
  H1408    1.0000 0.59150  0.92880  0.54430  Biso   1.000  H
  C1824    1.0000 0.60280  0.90012  0.57158  Biso   1.000  C
  C1825    1.0000 0.59860  0.87509  0.56141  Biso   1.000  C
  N150     1.0000 0.61341  0.84672  0.59717  Biso   1.000  N
  C1826    1.0000 0.60290  0.85020  0.57171  Biso   1.000  C
  C1827    1.0000 0.59841  0.82508  0.56078  Biso   1.000  C
  H1409    1.0000 0.59160  0.82170  0.54430  Biso   1.000  H
  C1828    1.0000 0.60614  0.80607  0.57948  Biso   1.000  C
  H1410    1.0000 0.60530  0.78800  0.57740  Biso   1.000  H
  C1829    1.0000 0.61542  0.81945  0.60197  Biso   1.000  C
  C1830    1.0000 0.64280  0.98475  0.60970  Biso   1.000  C
  H1411    1.0000 0.65480  0.97570  0.59950  Biso   1.000  H
  C1831    1.0000 0.64270  0.01193  0.60980  Biso   1.000  C
  H1412    1.0000 0.65470  0.02110  0.59960  Biso   1.000  H
  O157     1.0000 0.64070  0.06699  0.61070  Biso   1.000  O
  C1832    1.0000 0.60480  0.76559  0.63710  Biso   1.000  C
  H1413    1.0000 0.59130  0.77470  0.64520  Biso   1.000  H
  C1833    1.0000 0.60470  0.73841  0.63720  Biso   1.000  C
  H1414    1.0000 0.59110  0.72940  0.64530  Biso   1.000  H
  O158     1.0000 0.60910  0.68313  0.63920  Biso   1.000  O
  C1834    1.0000 0.58741  0.87508  0.53435  Biso   1.000  C
  C1835    1.0000 0.56065  0.87800  0.53070  Biso   1.000  C
  C1836    1.0000 0.55028  0.87800  0.50560  Biso   1.000  C
  H1415    1.0000 0.53240  0.88000  0.50310  Biso   1.000  H
  C1837    1.0000 0.56670  0.87507  0.48410  Biso   1.000  C
  C1838    1.0000 0.59350  0.87215  0.48776  Biso   1.000  C
  H1416    1.0000 0.60440  0.87020  0.47340  Biso   1.000  H
  C1839    1.0000 0.60383  0.87216  0.51290  Biso   1.000  C
  C1840    1.0000 0.54282  0.88117  0.55400  Biso   1.000  C
  H1417    1.0000 0.52510  0.88290  0.54810  Biso   1.000  H
  H1418    1.0000 0.54430  0.86610  0.56510  Biso   1.000  H
  H1419    1.0000 0.54780  0.89650  0.56360  Biso   1.000  H
  C1841    1.0000 0.55540  0.87506  0.45680  Biso   1.000  C
  H1420    1.0000 0.53680  0.87720  0.45770  Biso   1.000  H
  H1421    1.0000 0.56290  0.88920  0.44690  Biso   1.000  H
  H1422    1.0000 0.55940  0.85870  0.44840  Biso   1.000  H
  C1842    1.0000 0.63291  0.86899  0.51680  Biso   1.000  C
  H1423    1.0000 0.64130  0.86720  0.50020  Biso   1.000  H
  H1424    1.0000 0.63970  0.88410  0.52570  Biso   1.000  H
  H1425    1.0000 0.63620  0.85370  0.52720  Biso   1.000  H
  Zn108    1.0000 0.61760  0.37515  0.12930  Biso   1.000  Zn
  N151     1.0000 0.61333  0.40345  0.09705  Biso   1.000  N
  C1843    1.0000 0.61536  0.43070  0.10200  Biso   1.000  C
  C1844    1.0000 0.60608  0.44420  0.07959  Biso   1.000  C
  H1426    1.0000 0.60520  0.46230  0.07760  Biso   1.000  H
  C1845    1.0000 0.59831  0.42530  0.06079  Biso   1.000  C
  H1427    1.0000 0.59150  0.42880  0.04430  Biso   1.000  H
  C1846    1.0000 0.60280  0.40012  0.07158  Biso   1.000  C
  C1847    1.0000 0.59860  0.37509  0.06141  Biso   1.000  C
  N152     1.0000 0.61341  0.34672  0.09717  Biso   1.000  N
  C1848    1.0000 0.60290  0.35020  0.07171  Biso   1.000  C
  C1849    1.0000 0.59841  0.32508  0.06078  Biso   1.000  C
  H1428    1.0000 0.59160  0.32170  0.04430  Biso   1.000  H
  C1850    1.0000 0.60614  0.30607  0.07948  Biso   1.000  C
  H1429    1.0000 0.60530  0.28800  0.07740  Biso   1.000  H
  C1851    1.0000 0.61542  0.31945  0.10197  Biso   1.000  C
  C1852    1.0000 0.64280  0.48475  0.10970  Biso   1.000  C
  H1430    1.0000 0.65480  0.47570  0.09950  Biso   1.000  H
  C1853    1.0000 0.64270  0.51193  0.10980  Biso   1.000  C
  H1431    1.0000 0.65470  0.52110  0.09960  Biso   1.000  H
  O159     1.0000 0.64070  0.56699  0.11070  Biso   1.000  O
  C1854    1.0000 0.60480  0.26559  0.13710  Biso   1.000  C
  H1432    1.0000 0.59130  0.27470  0.14520  Biso   1.000  H
  C1855    1.0000 0.60470  0.23841  0.13720  Biso   1.000  C
  H1433    1.0000 0.59110  0.22940  0.14530  Biso   1.000  H
  O160     1.0000 0.60910  0.18313  0.13920  Biso   1.000  O
  C1856    1.0000 0.58741  0.37508  0.03435  Biso   1.000  C
  C1857    1.0000 0.56065  0.37800  0.03070  Biso   1.000  C
  C1858    1.0000 0.55028  0.37800  0.00560  Biso   1.000  C
  H1434    1.0000 0.53240  0.38000  0.00310  Biso   1.000  H
  C1859    1.0000 0.56670  0.37507  0.98410  Biso   1.000  C
  C1860    1.0000 0.59350  0.37215  0.98776  Biso   1.000  C
  H1435    1.0000 0.60440  0.37020  0.97340  Biso   1.000  H
  C1861    1.0000 0.60383  0.37216  0.01290  Biso   1.000  C
  C1862    1.0000 0.54282  0.38117  0.05400  Biso   1.000  C
  H1436    1.0000 0.52510  0.38290  0.04810  Biso   1.000  H
  H1437    1.0000 0.54430  0.36610  0.06510  Biso   1.000  H
  H1438    1.0000 0.54780  0.39650  0.06360  Biso   1.000  H
  C1863    1.0000 0.55540  0.37506  0.95680  Biso   1.000  C
  H1439    1.0000 0.53680  0.37720  0.95770  Biso   1.000  H
  H1440    1.0000 0.56290  0.38920  0.94690  Biso   1.000  H
  H1441    1.0000 0.55940  0.35870  0.94840  Biso   1.000  H
  C1864    1.0000 0.63291  0.36899  0.01680  Biso   1.000  C
  H1442    1.0000 0.64130  0.36720  0.00020  Biso   1.000  H
  H1443    1.0000 0.63970  0.38410  0.02570  Biso   1.000  H
  H1444    1.0000 0.63620  0.35370  0.02720  Biso   1.000  H
  Zn109    1.0000 0.11760  0.87485  0.62070  Biso   1.000  Zn
  N153     1.0000 0.11333  0.84655  0.65295  Biso   1.000  N
  C1865    1.0000 0.11536  0.81930  0.64800  Biso   1.000  C
  C1866    1.0000 0.10608  0.80580  0.67041  Biso   1.000  C
  H1445    1.0000 0.10520  0.78770  0.67240  Biso   1.000  H
  C1867    1.0000 0.09831  0.82470  0.68921  Biso   1.000  C
  H1446    1.0000 0.09150  0.82120  0.70570  Biso   1.000  H
  C1868    1.0000 0.10280  0.84988  0.67842  Biso   1.000  C
  C1869    1.0000 0.09860  0.87491  0.68859  Biso   1.000  C
  N154     1.0000 0.11341  0.90328  0.65283  Biso   1.000  N
  C1870    1.0000 0.10290  0.89980  0.67829  Biso   1.000  C
  C1871    1.0000 0.09841  0.92492  0.68922  Biso   1.000  C
  H1447    1.0000 0.09160  0.92830  0.70570  Biso   1.000  H
  C1872    1.0000 0.10614  0.94393  0.67052  Biso   1.000  C
  H1448    1.0000 0.10530  0.96200  0.67260  Biso   1.000  H
  C1873    1.0000 0.11542  0.93055  0.64803  Biso   1.000  C
  C1874    1.0000 0.14280  0.76525  0.64030  Biso   1.000  C
  H1449    1.0000 0.15480  0.77430  0.65050  Biso   1.000  H
  C1875    1.0000 0.14270  0.73807  0.64020  Biso   1.000  C
  H1450    1.0000 0.15470  0.72890  0.65040  Biso   1.000  H
  O161     1.0000 0.14070  0.68301  0.63930  Biso   1.000  O
  C1876    1.0000 0.10480  0.98441  0.61290  Biso   1.000  C
  H1451    1.0000 0.09130  0.97530  0.60480  Biso   1.000  H
  C1877    1.0000 0.10470  0.01159  0.61280  Biso   1.000  C
  H1452    1.0000 0.09110  0.02060  0.60470  Biso   1.000  H
  O162     1.0000 0.10910  0.06687  0.61080  Biso   1.000  O
  C1878    1.0000 0.08741  0.87492  0.71565  Biso   1.000  C
  C1879    1.0000 0.06065  0.87200  0.71930  Biso   1.000  C
  C1880    1.0000 0.05028  0.87200  0.74440  Biso   1.000  C
  H1453    1.0000 0.03240  0.87000  0.74690  Biso   1.000  H
  C1881    1.0000 0.06670  0.87493  0.76590  Biso   1.000  C
  C1882    1.0000 0.09350  0.87785  0.76224  Biso   1.000  C
  H1454    1.0000 0.10440  0.87980  0.77660  Biso   1.000  H
  C1883    1.0000 0.10383  0.87784  0.73710  Biso   1.000  C
  C1884    1.0000 0.04282  0.86883  0.69600  Biso   1.000  C
  H1455    1.0000 0.02510  0.86710  0.70190  Biso   1.000  H
  H1456    1.0000 0.04430  0.88390  0.68490  Biso   1.000  H
  H1457    1.0000 0.04780  0.85350  0.68640  Biso   1.000  H
  C1885    1.0000 0.05540  0.87494  0.79320  Biso   1.000  C
  H1458    1.0000 0.03680  0.87280  0.79230  Biso   1.000  H
  H1459    1.0000 0.06290  0.86080  0.80310  Biso   1.000  H
  H1460    1.0000 0.05940  0.89130  0.80160  Biso   1.000  H
  C1886    1.0000 0.13291  0.88101  0.73320  Biso   1.000  C
  H1461    1.0000 0.14130  0.88280  0.74980  Biso   1.000  H
  H1462    1.0000 0.13970  0.86590  0.72430  Biso   1.000  H
  H1463    1.0000 0.13620  0.89630  0.72280  Biso   1.000  H
  Zn110    1.0000 0.11760  0.37485  0.12070  Biso   1.000  Zn
  N155     1.0000 0.11333  0.34655  0.15295  Biso   1.000  N
  C1887    1.0000 0.11536  0.31930  0.14800  Biso   1.000  C
  C1888    1.0000 0.10608  0.30580  0.17041  Biso   1.000  C
  H1464    1.0000 0.10520  0.28770  0.17240  Biso   1.000  H
  C1889    1.0000 0.09831  0.32470  0.18921  Biso   1.000  C
  H1465    1.0000 0.09150  0.32120  0.20570  Biso   1.000  H
  C1890    1.0000 0.10280  0.34988  0.17842  Biso   1.000  C
  C1891    1.0000 0.09860  0.37491  0.18859  Biso   1.000  C
  N156     1.0000 0.11341  0.40328  0.15283  Biso   1.000  N
  C1892    1.0000 0.10290  0.39980  0.17829  Biso   1.000  C
  C1893    1.0000 0.09841  0.42492  0.18922  Biso   1.000  C
  H1466    1.0000 0.09160  0.42830  0.20570  Biso   1.000  H
  C1894    1.0000 0.10614  0.44393  0.17052  Biso   1.000  C
  H1467    1.0000 0.10530  0.46200  0.17260  Biso   1.000  H
  C1895    1.0000 0.11542  0.43055  0.14803  Biso   1.000  C
  C1896    1.0000 0.14280  0.26525  0.14030  Biso   1.000  C
  H1468    1.0000 0.15480  0.27430  0.15050  Biso   1.000  H
  C1897    1.0000 0.14270  0.23807  0.14020  Biso   1.000  C
  H1469    1.0000 0.15470  0.22890  0.15040  Biso   1.000  H
  O163     1.0000 0.14070  0.18301  0.13930  Biso   1.000  O
  C1898    1.0000 0.10480  0.48441  0.11290  Biso   1.000  C
  H1470    1.0000 0.09130  0.47530  0.10480  Biso   1.000  H
  C1899    1.0000 0.10470  0.51159  0.11280  Biso   1.000  C
  H1471    1.0000 0.09110  0.52060  0.10470  Biso   1.000  H
  O164     1.0000 0.10910  0.56687  0.11080  Biso   1.000  O
  C1900    1.0000 0.08741  0.37492  0.21565  Biso   1.000  C
  C1901    1.0000 0.06065  0.37200  0.21930  Biso   1.000  C
  C1902    1.0000 0.05028  0.37200  0.24440  Biso   1.000  C
  H1472    1.0000 0.03240  0.37000  0.24690  Biso   1.000  H
  C1903    1.0000 0.06670  0.37493  0.26590  Biso   1.000  C
  C1904    1.0000 0.09350  0.37785  0.26224  Biso   1.000  C
  H1473    1.0000 0.10440  0.37980  0.27660  Biso   1.000  H
  C1905    1.0000 0.10383  0.37784  0.23710  Biso   1.000  C
  C1906    1.0000 0.04282  0.36883  0.19600  Biso   1.000  C
  H1474    1.0000 0.02510  0.36710  0.20190  Biso   1.000  H
  H1475    1.0000 0.04430  0.38390  0.18490  Biso   1.000  H
  H1476    1.0000 0.04780  0.35350  0.18640  Biso   1.000  H
  C1907    1.0000 0.05540  0.37494  0.29320  Biso   1.000  C
  H1477    1.0000 0.03680  0.37280  0.29230  Biso   1.000  H
  H1478    1.0000 0.06290  0.36080  0.30310  Biso   1.000  H
  H1479    1.0000 0.05940  0.39130  0.30160  Biso   1.000  H
  C1908    1.0000 0.13291  0.38101  0.23320  Biso   1.000  C
  H1480    1.0000 0.14130  0.38280  0.24980  Biso   1.000  H
  H1481    1.0000 0.13970  0.36590  0.22430  Biso   1.000  H
  H1482    1.0000 0.13620  0.39630  0.22280  Biso   1.000  H
  Zn111    1.0000 0.61760  0.87485  0.12070  Biso   1.000  Zn
  N157     1.0000 0.61333  0.84655  0.15295  Biso   1.000  N
  C1909    1.0000 0.61536  0.81930  0.14800  Biso   1.000  C
  C1910    1.0000 0.60608  0.80580  0.17041  Biso   1.000  C
  H1483    1.0000 0.60520  0.78770  0.17240  Biso   1.000  H
  C1911    1.0000 0.59831  0.82470  0.18921  Biso   1.000  C
  H1484    1.0000 0.59150  0.82120  0.20570  Biso   1.000  H
  C1912    1.0000 0.60280  0.84988  0.17842  Biso   1.000  C
  C1913    1.0000 0.59860  0.87491  0.18859  Biso   1.000  C
  N158     1.0000 0.61341  0.90328  0.15283  Biso   1.000  N
  C1914    1.0000 0.60290  0.89980  0.17829  Biso   1.000  C
  C1915    1.0000 0.59841  0.92492  0.18922  Biso   1.000  C
  H1485    1.0000 0.59160  0.92830  0.20570  Biso   1.000  H
  C1916    1.0000 0.60614  0.94393  0.17052  Biso   1.000  C
  H1486    1.0000 0.60530  0.96200  0.17260  Biso   1.000  H
  C1917    1.0000 0.61542  0.93055  0.14803  Biso   1.000  C
  C1918    1.0000 0.64280  0.76525  0.14030  Biso   1.000  C
  H1487    1.0000 0.65480  0.77430  0.15050  Biso   1.000  H
  C1919    1.0000 0.64270  0.73807  0.14020  Biso   1.000  C
  H1488    1.0000 0.65470  0.72890  0.15040  Biso   1.000  H
  O165     1.0000 0.64070  0.68301  0.13930  Biso   1.000  O
  C1920    1.0000 0.60480  0.98441  0.11290  Biso   1.000  C
  H1489    1.0000 0.59130  0.97530  0.10480  Biso   1.000  H
  C1921    1.0000 0.60470  0.01159  0.11280  Biso   1.000  C
  H1490    1.0000 0.59110  0.02060  0.10470  Biso   1.000  H
  O166     1.0000 0.60910  0.06687  0.11080  Biso   1.000  O
  C1922    1.0000 0.58741  0.87492  0.21565  Biso   1.000  C
  C1923    1.0000 0.56065  0.87200  0.21930  Biso   1.000  C
  C1924    1.0000 0.55028  0.87200  0.24440  Biso   1.000  C
  H1491    1.0000 0.53240  0.87000  0.24690  Biso   1.000  H
  C1925    1.0000 0.56670  0.87493  0.26590  Biso   1.000  C
  C1926    1.0000 0.59350  0.87785  0.26224  Biso   1.000  C
  H1492    1.0000 0.60440  0.87980  0.27660  Biso   1.000  H
  C1927    1.0000 0.60383  0.87784  0.23710  Biso   1.000  C
  C1928    1.0000 0.54282  0.86883  0.19600  Biso   1.000  C
  H1493    1.0000 0.52510  0.86710  0.20190  Biso   1.000  H
  H1494    1.0000 0.54430  0.88390  0.18490  Biso   1.000  H
  H1495    1.0000 0.54780  0.85350  0.18640  Biso   1.000  H
  C1929    1.0000 0.55540  0.87494  0.29320  Biso   1.000  C
  H1496    1.0000 0.53680  0.87280  0.29230  Biso   1.000  H
  H1497    1.0000 0.56290  0.86080  0.30310  Biso   1.000  H
  H1498    1.0000 0.55940  0.89130  0.30160  Biso   1.000  H
  C1930    1.0000 0.63291  0.88101  0.23320  Biso   1.000  C
  H1499    1.0000 0.64130  0.88280  0.24980  Biso   1.000  H
  H1500    1.0000 0.63970  0.86590  0.22430  Biso   1.000  H
  H1501    1.0000 0.63620  0.89630  0.22280  Biso   1.000  H
  Zn112    1.0000 0.61760  0.37485  0.62070  Biso   1.000  Zn
  N159     1.0000 0.61333  0.34655  0.65295  Biso   1.000  N
  C1931    1.0000 0.61536  0.31930  0.64800  Biso   1.000  C
  C1932    1.0000 0.60608  0.30580  0.67041  Biso   1.000  C
  H1502    1.0000 0.60520  0.28770  0.67240  Biso   1.000  H
  C1933    1.0000 0.59831  0.32470  0.68921  Biso   1.000  C
  H1503    1.0000 0.59150  0.32120  0.70570  Biso   1.000  H
  C1934    1.0000 0.60280  0.34988  0.67842  Biso   1.000  C
  C1935    1.0000 0.59860  0.37491  0.68859  Biso   1.000  C
  N160     1.0000 0.61341  0.40328  0.65283  Biso   1.000  N
  C1936    1.0000 0.60290  0.39980  0.67829  Biso   1.000  C
  C1937    1.0000 0.59841  0.42492  0.68922  Biso   1.000  C
  H1504    1.0000 0.59160  0.42830  0.70570  Biso   1.000  H
  C1938    1.0000 0.60614  0.44393  0.67052  Biso   1.000  C
  H1505    1.0000 0.60530  0.46200  0.67260  Biso   1.000  H
  C1939    1.0000 0.61542  0.43055  0.64803  Biso   1.000  C
  C1940    1.0000 0.64280  0.26525  0.64030  Biso   1.000  C
  H1506    1.0000 0.65480  0.27430  0.65050  Biso   1.000  H
  C1941    1.0000 0.64270  0.23807  0.64020  Biso   1.000  C
  H1507    1.0000 0.65470  0.22890  0.65040  Biso   1.000  H
  O167     1.0000 0.64070  0.18301  0.63930  Biso   1.000  O
  C1942    1.0000 0.60480  0.48441  0.61290  Biso   1.000  C
  H1508    1.0000 0.59130  0.47530  0.60480  Biso   1.000  H
  C1943    1.0000 0.60470  0.51159  0.61280  Biso   1.000  C
  H1509    1.0000 0.59110  0.52060  0.60470  Biso   1.000  H
  O168     1.0000 0.60910  0.56687  0.61080  Biso   1.000  O
  C1944    1.0000 0.58741  0.37492  0.71565  Biso   1.000  C
  C1945    1.0000 0.56065  0.37200  0.71930  Biso   1.000  C
  C1946    1.0000 0.55028  0.37200  0.74440  Biso   1.000  C
  H1510    1.0000 0.53240  0.37000  0.74690  Biso   1.000  H
  C1947    1.0000 0.56670  0.37493  0.76590  Biso   1.000  C
  C1948    1.0000 0.59350  0.37785  0.76224  Biso   1.000  C
  H1511    1.0000 0.60440  0.37980  0.77660  Biso   1.000  H
  C1949    1.0000 0.60383  0.37784  0.73710  Biso   1.000  C
  C1950    1.0000 0.54282  0.36883  0.69600  Biso   1.000  C
  H1512    1.0000 0.52510  0.36710  0.70190  Biso   1.000  H
  H1513    1.0000 0.54430  0.38390  0.68490  Biso   1.000  H
  H1514    1.0000 0.54780  0.35350  0.68640  Biso   1.000  H
  C1951    1.0000 0.55540  0.37494  0.79320  Biso   1.000  C
  H1515    1.0000 0.53680  0.37280  0.79230  Biso   1.000  H
  H1516    1.0000 0.56290  0.36080  0.80310  Biso   1.000  H
  H1517    1.0000 0.55940  0.39130  0.80160  Biso   1.000  H
  C1952    1.0000 0.63291  0.38101  0.73320  Biso   1.000  C
  H1518    1.0000 0.64130  0.38280  0.74980  Biso   1.000  H
  H1519    1.0000 0.63970  0.36590  0.72430  Biso   1.000  H
  H1520    1.0000 0.63620  0.39630  0.72280  Biso   1.000  H
  Zn113    1.0000 0.12930  0.63240  0.87485  Biso   1.000  Zn
  N161     1.0000 0.09705  0.63667  0.84655  Biso   1.000  N
  C1953    1.0000 0.10200  0.63464  0.81930  Biso   1.000  C
  C1954    1.0000 0.07959  0.64392  0.80580  Biso   1.000  C
  H1521    1.0000 0.07760  0.64480  0.78770  Biso   1.000  H
  C1955    1.0000 0.06079  0.65169  0.82470  Biso   1.000  C
  H1522    1.0000 0.04430  0.65850  0.82120  Biso   1.000  H
  C1956    1.0000 0.07158  0.64720  0.84988  Biso   1.000  C
  C1957    1.0000 0.06141  0.65140  0.87491  Biso   1.000  C
  N162     1.0000 0.09717  0.63659  0.90328  Biso   1.000  N
  C1958    1.0000 0.07171  0.64710  0.89980  Biso   1.000  C
  C1959    1.0000 0.06078  0.65159  0.92492  Biso   1.000  C
  H1523    1.0000 0.04430  0.65840  0.92830  Biso   1.000  H
  C1960    1.0000 0.07948  0.64386  0.94393  Biso   1.000  C
  H1524    1.0000 0.07740  0.64470  0.96200  Biso   1.000  H
  C1961    1.0000 0.10197  0.63458  0.93055  Biso   1.000  C
  C1962    1.0000 0.10970  0.60720  0.76525  Biso   1.000  C
  H1525    1.0000 0.09950  0.59520  0.77430  Biso   1.000  H
  C1963    1.0000 0.10980  0.60730  0.73807  Biso   1.000  C
  H1526    1.0000 0.09960  0.59530  0.72890  Biso   1.000  H
  O169     1.0000 0.11070  0.60930  0.68301  Biso   1.000  O
  C1964    1.0000 0.13710  0.64520  0.98441  Biso   1.000  C
  H1527    1.0000 0.14520  0.65870  0.97530  Biso   1.000  H
  C1965    1.0000 0.13720  0.64530  0.01159  Biso   1.000  C
  H1528    1.0000 0.14530  0.65890  0.02060  Biso   1.000  H
  O170     1.0000 0.13920  0.64090  0.06687  Biso   1.000  O
  C1966    1.0000 0.03435  0.66259  0.87492  Biso   1.000  C
  C1967    1.0000 0.03070  0.68935  0.87200  Biso   1.000  C
  C1968    1.0000 0.00560  0.69972  0.87200  Biso   1.000  C
  H1529    1.0000 0.00310  0.71760  0.87000  Biso   1.000  H
  C1969    1.0000 0.98410  0.68330  0.87493  Biso   1.000  C
  C1970    1.0000 0.98776  0.65650  0.87785  Biso   1.000  C
  H1530    1.0000 0.97340  0.64560  0.87980  Biso   1.000  H
  C1971    1.0000 0.01290  0.64617  0.87784  Biso   1.000  C
  C1972    1.0000 0.05400  0.70718  0.86883  Biso   1.000  C
  H1531    1.0000 0.04810  0.72490  0.86710  Biso   1.000  H
  H1532    1.0000 0.06510  0.70570  0.88390  Biso   1.000  H
  H1533    1.0000 0.06360  0.70220  0.85350  Biso   1.000  H
  C1973    1.0000 0.95680  0.69460  0.87494  Biso   1.000  C
  H1534    1.0000 0.95770  0.71320  0.87280  Biso   1.000  H
  H1535    1.0000 0.94690  0.68710  0.86080  Biso   1.000  H
  H1536    1.0000 0.94840  0.69060  0.89130  Biso   1.000  H
  C1974    1.0000 0.01680  0.61709  0.88101  Biso   1.000  C
  H1537    1.0000 0.00020  0.60870  0.88280  Biso   1.000  H
  H1538    1.0000 0.02570  0.61030  0.86590  Biso   1.000  H
  H1539    1.0000 0.02720  0.61380  0.89630  Biso   1.000  H
  Zn114    1.0000 0.12930  0.13240  0.37485  Biso   1.000  Zn
  N163     1.0000 0.09705  0.13667  0.34655  Biso   1.000  N
  C1975    1.0000 0.10200  0.13464  0.31930  Biso   1.000  C
  C1976    1.0000 0.07959  0.14392  0.30580  Biso   1.000  C
  H1540    1.0000 0.07760  0.14480  0.28770  Biso   1.000  H
  C1977    1.0000 0.06079  0.15169  0.32470  Biso   1.000  C
  H1541    1.0000 0.04430  0.15850  0.32120  Biso   1.000  H
  C1978    1.0000 0.07158  0.14720  0.34988  Biso   1.000  C
  C1979    1.0000 0.06141  0.15140  0.37491  Biso   1.000  C
  N164     1.0000 0.09717  0.13659  0.40328  Biso   1.000  N
  C1980    1.0000 0.07171  0.14710  0.39980  Biso   1.000  C
  C1981    1.0000 0.06078  0.15159  0.42492  Biso   1.000  C
  H1542    1.0000 0.04430  0.15840  0.42830  Biso   1.000  H
  C1982    1.0000 0.07948  0.14386  0.44393  Biso   1.000  C
  H1543    1.0000 0.07740  0.14470  0.46200  Biso   1.000  H
  C1983    1.0000 0.10197  0.13458  0.43055  Biso   1.000  C
  C1984    1.0000 0.10970  0.10720  0.26525  Biso   1.000  C
  H1544    1.0000 0.09950  0.09520  0.27430  Biso   1.000  H
  C1985    1.0000 0.10980  0.10730  0.23807  Biso   1.000  C
  H1545    1.0000 0.09960  0.09530  0.22890  Biso   1.000  H
  O171     1.0000 0.11070  0.10930  0.18301  Biso   1.000  O
  C1986    1.0000 0.13710  0.14520  0.48441  Biso   1.000  C
  H1546    1.0000 0.14520  0.15870  0.47530  Biso   1.000  H
  C1987    1.0000 0.13720  0.14530  0.51159  Biso   1.000  C
  H1547    1.0000 0.14530  0.15890  0.52060  Biso   1.000  H
  O172     1.0000 0.13920  0.14090  0.56687  Biso   1.000  O
  C1988    1.0000 0.03435  0.16259  0.37492  Biso   1.000  C
  C1989    1.0000 0.03070  0.18935  0.37200  Biso   1.000  C
  C1990    1.0000 0.00560  0.19972  0.37200  Biso   1.000  C
  H1548    1.0000 0.00310  0.21760  0.37000  Biso   1.000  H
  C1991    1.0000 0.98410  0.18330  0.37493  Biso   1.000  C
  C1992    1.0000 0.98776  0.15650  0.37785  Biso   1.000  C
  H1549    1.0000 0.97340  0.14560  0.37980  Biso   1.000  H
  C1993    1.0000 0.01290  0.14617  0.37784  Biso   1.000  C
  C1994    1.0000 0.05400  0.20718  0.36883  Biso   1.000  C
  H1550    1.0000 0.04810  0.22490  0.36710  Biso   1.000  H
  H1551    1.0000 0.06510  0.20570  0.38390  Biso   1.000  H
  H1552    1.0000 0.06360  0.20220  0.35350  Biso   1.000  H
  C1995    1.0000 0.95680  0.19460  0.37494  Biso   1.000  C
  H1553    1.0000 0.95770  0.21320  0.37280  Biso   1.000  H
  H1554    1.0000 0.94690  0.18710  0.36080  Biso   1.000  H
  H1555    1.0000 0.94840  0.19060  0.39130  Biso   1.000  H
  C1996    1.0000 0.01680  0.11709  0.38101  Biso   1.000  C
  H1556    1.0000 0.00020  0.10870  0.38280  Biso   1.000  H
  H1557    1.0000 0.02570  0.11030  0.36590  Biso   1.000  H
  H1558    1.0000 0.02720  0.11380  0.39630  Biso   1.000  H
  Zn115    1.0000 0.62930  0.63240  0.37485  Biso   1.000  Zn
  N165     1.0000 0.59705  0.63667  0.34655  Biso   1.000  N
  C1997    1.0000 0.60200  0.63464  0.31930  Biso   1.000  C
  C1998    1.0000 0.57959  0.64392  0.30580  Biso   1.000  C
  H1559    1.0000 0.57760  0.64480  0.28770  Biso   1.000  H
  C1999    1.0000 0.56079  0.65169  0.32470  Biso   1.000  C
  H1560    1.0000 0.54430  0.65850  0.32120  Biso   1.000  H
  C2000    1.0000 0.57158  0.64720  0.34988  Biso   1.000  C
  C2001    1.0000 0.56141  0.65140  0.37491  Biso   1.000  C
  N166     1.0000 0.59717  0.63659  0.40328  Biso   1.000  N
  C2002    1.0000 0.57171  0.64710  0.39980  Biso   1.000  C
  C2003    1.0000 0.56078  0.65159  0.42492  Biso   1.000  C
  H1561    1.0000 0.54430  0.65840  0.42830  Biso   1.000  H
  C2004    1.0000 0.57948  0.64386  0.44393  Biso   1.000  C
  H1562    1.0000 0.57740  0.64470  0.46200  Biso   1.000  H
  C2005    1.0000 0.60197  0.63458  0.43055  Biso   1.000  C
  C2006    1.0000 0.60970  0.60720  0.26525  Biso   1.000  C
  H1563    1.0000 0.59950  0.59520  0.27430  Biso   1.000  H
  C2007    1.0000 0.60980  0.60730  0.23807  Biso   1.000  C
  H1564    1.0000 0.59960  0.59530  0.22890  Biso   1.000  H
  O173     1.0000 0.61070  0.60930  0.18301  Biso   1.000  O
  C2008    1.0000 0.63710  0.64520  0.48441  Biso   1.000  C
  H1565    1.0000 0.64520  0.65870  0.47530  Biso   1.000  H
  C2009    1.0000 0.63720  0.64530  0.51159  Biso   1.000  C
  H1566    1.0000 0.64530  0.65890  0.52060  Biso   1.000  H
  O174     1.0000 0.63920  0.64090  0.56687  Biso   1.000  O
  C2010    1.0000 0.53435  0.66259  0.37492  Biso   1.000  C
  C2011    1.0000 0.53070  0.68935  0.37200  Biso   1.000  C
  C2012    1.0000 0.50560  0.69972  0.37200  Biso   1.000  C
  H1567    1.0000 0.50310  0.71760  0.37000  Biso   1.000  H
  C2013    1.0000 0.48410  0.68330  0.37493  Biso   1.000  C
  C2014    1.0000 0.48776  0.65650  0.37785  Biso   1.000  C
  H1568    1.0000 0.47340  0.64560  0.37980  Biso   1.000  H
  C2015    1.0000 0.51290  0.64617  0.37784  Biso   1.000  C
  C2016    1.0000 0.55400  0.70718  0.36883  Biso   1.000  C
  H1569    1.0000 0.54810  0.72490  0.36710  Biso   1.000  H
  H1570    1.0000 0.56510  0.70570  0.38390  Biso   1.000  H
  H1571    1.0000 0.56360  0.70220  0.35350  Biso   1.000  H
  C2017    1.0000 0.45680  0.69460  0.37494  Biso   1.000  C
  H1572    1.0000 0.45770  0.71320  0.37280  Biso   1.000  H
  H1573    1.0000 0.44690  0.68710  0.36080  Biso   1.000  H
  H1574    1.0000 0.44840  0.69060  0.39130  Biso   1.000  H
  C2018    1.0000 0.51680  0.61709  0.38101  Biso   1.000  C
  H1575    1.0000 0.50020  0.60870  0.38280  Biso   1.000  H
  H1576    1.0000 0.52570  0.61030  0.36590  Biso   1.000  H
  H1577    1.0000 0.52720  0.61380  0.39630  Biso   1.000  H
  Zn116    1.0000 0.62930  0.13240  0.87485  Biso   1.000  Zn
  N167     1.0000 0.59705  0.13667  0.84655  Biso   1.000  N
  C2019    1.0000 0.60200  0.13464  0.81930  Biso   1.000  C
  C2020    1.0000 0.57959  0.14392  0.80580  Biso   1.000  C
  H1578    1.0000 0.57760  0.14480  0.78770  Biso   1.000  H
  C2021    1.0000 0.56079  0.15169  0.82470  Biso   1.000  C
  H1579    1.0000 0.54430  0.15850  0.82120  Biso   1.000  H
  C2022    1.0000 0.57158  0.14720  0.84988  Biso   1.000  C
  C2023    1.0000 0.56141  0.15140  0.87491  Biso   1.000  C
  N168     1.0000 0.59717  0.13659  0.90328  Biso   1.000  N
  C2024    1.0000 0.57171  0.14710  0.89980  Biso   1.000  C
  C2025    1.0000 0.56078  0.15159  0.92492  Biso   1.000  C
  H1580    1.0000 0.54430  0.15840  0.92830  Biso   1.000  H
  C2026    1.0000 0.57948  0.14386  0.94393  Biso   1.000  C
  H1581    1.0000 0.57740  0.14470  0.96200  Biso   1.000  H
  C2027    1.0000 0.60197  0.13458  0.93055  Biso   1.000  C
  C2028    1.0000 0.60970  0.10720  0.76525  Biso   1.000  C
  H1582    1.0000 0.59950  0.09520  0.77430  Biso   1.000  H
  C2029    1.0000 0.60980  0.10730  0.73807  Biso   1.000  C
  H1583    1.0000 0.59960  0.09530  0.72890  Biso   1.000  H
  O175     1.0000 0.61070  0.10930  0.68301  Biso   1.000  O
  C2030    1.0000 0.63710  0.14520  0.98441  Biso   1.000  C
  H1584    1.0000 0.64520  0.15870  0.97530  Biso   1.000  H
  C2031    1.0000 0.63720  0.14530  0.01159  Biso   1.000  C
  H1585    1.0000 0.64530  0.15890  0.02060  Biso   1.000  H
  O176     1.0000 0.63920  0.14090  0.06687  Biso   1.000  O
  C2032    1.0000 0.53435  0.16259  0.87492  Biso   1.000  C
  C2033    1.0000 0.53070  0.18935  0.87200  Biso   1.000  C
  C2034    1.0000 0.50560  0.19972  0.87200  Biso   1.000  C
  H1586    1.0000 0.50310  0.21760  0.87000  Biso   1.000  H
  C2035    1.0000 0.48410  0.18330  0.87493  Biso   1.000  C
  C2036    1.0000 0.48776  0.15650  0.87785  Biso   1.000  C
  H1587    1.0000 0.47340  0.14560  0.87980  Biso   1.000  H
  C2037    1.0000 0.51290  0.14617  0.87784  Biso   1.000  C
  C2038    1.0000 0.55400  0.20718  0.86883  Biso   1.000  C
  H1588    1.0000 0.54810  0.22490  0.86710  Biso   1.000  H
  H1589    1.0000 0.56510  0.20570  0.88390  Biso   1.000  H
  H1590    1.0000 0.56360  0.20220  0.85350  Biso   1.000  H
  C2039    1.0000 0.45680  0.19460  0.87494  Biso   1.000  C
  H1591    1.0000 0.45770  0.21320  0.87280  Biso   1.000  H
  H1592    1.0000 0.44690  0.18710  0.86080  Biso   1.000  H
  H1593    1.0000 0.44840  0.19060  0.89130  Biso   1.000  H
  C2040    1.0000 0.51680  0.11709  0.88101  Biso   1.000  C
  H1594    1.0000 0.50020  0.10870  0.88280  Biso   1.000  H
  H1595    1.0000 0.52570  0.11030  0.86590  Biso   1.000  H
  H1596    1.0000 0.52720  0.11380  0.89630  Biso   1.000  H
  Zn117    1.0000 0.62070  0.63240  0.87515  Biso   1.000  Zn
  N169     1.0000 0.65295  0.63667  0.90345  Biso   1.000  N
  C2041    1.0000 0.64800  0.63464  0.93070  Biso   1.000  C
  C2042    1.0000 0.67041  0.64392  0.94420  Biso   1.000  C
  H1597    1.0000 0.67240  0.64480  0.96230  Biso   1.000  H
  C2043    1.0000 0.68921  0.65169  0.92530  Biso   1.000  C
  H1598    1.0000 0.70570  0.65850  0.92880  Biso   1.000  H
  C2044    1.0000 0.67842  0.64720  0.90012  Biso   1.000  C
  C2045    1.0000 0.68859  0.65140  0.87509  Biso   1.000  C
  N170     1.0000 0.65283  0.63659  0.84672  Biso   1.000  N
  C2046    1.0000 0.67829  0.64710  0.85020  Biso   1.000  C
  C2047    1.0000 0.68922  0.65159  0.82508  Biso   1.000  C
  H1599    1.0000 0.70570  0.65840  0.82170  Biso   1.000  H
  C2048    1.0000 0.67052  0.64386  0.80607  Biso   1.000  C
  H1600    1.0000 0.67260  0.64470  0.78800  Biso   1.000  H
  C2049    1.0000 0.64803  0.63458  0.81945  Biso   1.000  C
  C2050    1.0000 0.64030  0.60720  0.98475  Biso   1.000  C
  H1601    1.0000 0.65050  0.59520  0.97570  Biso   1.000  H
  C2051    1.0000 0.64020  0.60730  0.01193  Biso   1.000  C
  H1602    1.0000 0.65040  0.59530  0.02110  Biso   1.000  H
  O177     1.0000 0.63930  0.60930  0.06699  Biso   1.000  O
  C2052    1.0000 0.61290  0.64520  0.76559  Biso   1.000  C
  H1603    1.0000 0.60480  0.65870  0.77470  Biso   1.000  H
  C2053    1.0000 0.61280  0.64530  0.73841  Biso   1.000  C
  H1604    1.0000 0.60470  0.65890  0.72940  Biso   1.000  H
  O178     1.0000 0.61080  0.64090  0.68313  Biso   1.000  O
  C2054    1.0000 0.71565  0.66259  0.87508  Biso   1.000  C
  C2055    1.0000 0.71930  0.68935  0.87800  Biso   1.000  C
  C2056    1.0000 0.74440  0.69972  0.87800  Biso   1.000  C
  H1605    1.0000 0.74690  0.71760  0.88000  Biso   1.000  H
  C2057    1.0000 0.76590  0.68330  0.87507  Biso   1.000  C
  C2058    1.0000 0.76224  0.65650  0.87215  Biso   1.000  C
  H1606    1.0000 0.77660  0.64560  0.87020  Biso   1.000  H
  C2059    1.0000 0.73710  0.64617  0.87216  Biso   1.000  C
  C2060    1.0000 0.69600  0.70718  0.88117  Biso   1.000  C
  H1607    1.0000 0.70190  0.72490  0.88290  Biso   1.000  H
  H1608    1.0000 0.68490  0.70570  0.86610  Biso   1.000  H
  H1609    1.0000 0.68640  0.70220  0.89650  Biso   1.000  H
  C2061    1.0000 0.79320  0.69460  0.87506  Biso   1.000  C
  H1610    1.0000 0.79230  0.71320  0.87720  Biso   1.000  H
  H1611    1.0000 0.80310  0.68710  0.88920  Biso   1.000  H
  H1612    1.0000 0.80160  0.69060  0.85870  Biso   1.000  H
  C2062    1.0000 0.73320  0.61709  0.86899  Biso   1.000  C
  H1613    1.0000 0.74980  0.60870  0.86720  Biso   1.000  H
  H1614    1.0000 0.72430  0.61030  0.88410  Biso   1.000  H
  H1615    1.0000 0.72280  0.61380  0.85370  Biso   1.000  H
  Zn118    1.0000 0.62070  0.13240  0.37515  Biso   1.000  Zn
  N171     1.0000 0.65295  0.13667  0.40345  Biso   1.000  N
  C2063    1.0000 0.64800  0.13464  0.43070  Biso   1.000  C
  C2064    1.0000 0.67041  0.14392  0.44420  Biso   1.000  C
  H1616    1.0000 0.67240  0.14480  0.46230  Biso   1.000  H
  C2065    1.0000 0.68921  0.15169  0.42530  Biso   1.000  C
  H1617    1.0000 0.70570  0.15850  0.42880  Biso   1.000  H
  C2066    1.0000 0.67842  0.14720  0.40012  Biso   1.000  C
  C2067    1.0000 0.68859  0.15140  0.37509  Biso   1.000  C
  N172     1.0000 0.65283  0.13659  0.34672  Biso   1.000  N
  C2068    1.0000 0.67829  0.14710  0.35020  Biso   1.000  C
  C2069    1.0000 0.68922  0.15159  0.32508  Biso   1.000  C
  H1618    1.0000 0.70570  0.15840  0.32170  Biso   1.000  H
  C2070    1.0000 0.67052  0.14386  0.30607  Biso   1.000  C
  H1619    1.0000 0.67260  0.14470  0.28800  Biso   1.000  H
  C2071    1.0000 0.64803  0.13458  0.31945  Biso   1.000  C
  C2072    1.0000 0.64030  0.10720  0.48475  Biso   1.000  C
  H1620    1.0000 0.65050  0.09520  0.47570  Biso   1.000  H
  C2073    1.0000 0.64020  0.10730  0.51193  Biso   1.000  C
  H1621    1.0000 0.65040  0.09530  0.52110  Biso   1.000  H
  O179     1.0000 0.63930  0.10930  0.56699  Biso   1.000  O
  C2074    1.0000 0.61290  0.14520  0.26559  Biso   1.000  C
  H1622    1.0000 0.60480  0.15870  0.27470  Biso   1.000  H
  C2075    1.0000 0.61280  0.14530  0.23841  Biso   1.000  C
  H1623    1.0000 0.60470  0.15890  0.22940  Biso   1.000  H
  O180     1.0000 0.61080  0.14090  0.18313  Biso   1.000  O
  C2076    1.0000 0.71565  0.16259  0.37508  Biso   1.000  C
  C2077    1.0000 0.71930  0.18935  0.37800  Biso   1.000  C
  C2078    1.0000 0.74440  0.19972  0.37800  Biso   1.000  C
  H1624    1.0000 0.74690  0.21760  0.38000  Biso   1.000  H
  C2079    1.0000 0.76590  0.18330  0.37507  Biso   1.000  C
  C2080    1.0000 0.76224  0.15650  0.37215  Biso   1.000  C
  H1625    1.0000 0.77660  0.14560  0.37020  Biso   1.000  H
  C2081    1.0000 0.73710  0.14617  0.37216  Biso   1.000  C
  C2082    1.0000 0.69600  0.20718  0.38117  Biso   1.000  C
  H1626    1.0000 0.70190  0.22490  0.38290  Biso   1.000  H
  H1627    1.0000 0.68490  0.20570  0.36610  Biso   1.000  H
  H1628    1.0000 0.68640  0.20220  0.39650  Biso   1.000  H
  C2083    1.0000 0.79320  0.19460  0.37506  Biso   1.000  C
  H1629    1.0000 0.79230  0.21320  0.37720  Biso   1.000  H
  H1630    1.0000 0.80310  0.18710  0.38920  Biso   1.000  H
  H1631    1.0000 0.80160  0.19060  0.35870  Biso   1.000  H
  C2084    1.0000 0.73320  0.11709  0.36899  Biso   1.000  C
  H1632    1.0000 0.74980  0.10870  0.36720  Biso   1.000  H
  H1633    1.0000 0.72430  0.11030  0.38410  Biso   1.000  H
  H1634    1.0000 0.72280  0.11380  0.35370  Biso   1.000  H
  Zn119    1.0000 0.12070  0.63240  0.37515  Biso   1.000  Zn
  N173     1.0000 0.15295  0.63667  0.40345  Biso   1.000  N
  C2085    1.0000 0.14800  0.63464  0.43070  Biso   1.000  C
  C2086    1.0000 0.17041  0.64392  0.44420  Biso   1.000  C
  H1635    1.0000 0.17240  0.64480  0.46230  Biso   1.000  H
  C2087    1.0000 0.18921  0.65169  0.42530  Biso   1.000  C
  H1636    1.0000 0.20570  0.65850  0.42880  Biso   1.000  H
  C2088    1.0000 0.17842  0.64720  0.40012  Biso   1.000  C
  C2089    1.0000 0.18859  0.65140  0.37509  Biso   1.000  C
  N174     1.0000 0.15283  0.63659  0.34672  Biso   1.000  N
  C2090    1.0000 0.17829  0.64710  0.35020  Biso   1.000  C
  C2091    1.0000 0.18922  0.65159  0.32508  Biso   1.000  C
  H1637    1.0000 0.20570  0.65840  0.32170  Biso   1.000  H
  C2092    1.0000 0.17052  0.64386  0.30607  Biso   1.000  C
  H1638    1.0000 0.17260  0.64470  0.28800  Biso   1.000  H
  C2093    1.0000 0.14803  0.63458  0.31945  Biso   1.000  C
  C2094    1.0000 0.14030  0.60720  0.48475  Biso   1.000  C
  H1639    1.0000 0.15050  0.59520  0.47570  Biso   1.000  H
  C2095    1.0000 0.14020  0.60730  0.51193  Biso   1.000  C
  H1640    1.0000 0.15040  0.59530  0.52110  Biso   1.000  H
  O181     1.0000 0.13930  0.60930  0.56699  Biso   1.000  O
  C2096    1.0000 0.11290  0.64520  0.26559  Biso   1.000  C
  H1641    1.0000 0.10480  0.65870  0.27470  Biso   1.000  H
  C2097    1.0000 0.11280  0.64530  0.23841  Biso   1.000  C
  H1642    1.0000 0.10470  0.65890  0.22940  Biso   1.000  H
  O182     1.0000 0.11080  0.64090  0.18313  Biso   1.000  O
  C2098    1.0000 0.21565  0.66259  0.37508  Biso   1.000  C
  C2099    1.0000 0.21930  0.68935  0.37800  Biso   1.000  C
  C2100    1.0000 0.24440  0.69972  0.37800  Biso   1.000  C
  H1643    1.0000 0.24690  0.71760  0.38000  Biso   1.000  H
  C2101    1.0000 0.26590  0.68330  0.37507  Biso   1.000  C
  C2102    1.0000 0.26224  0.65650  0.37215  Biso   1.000  C
  H1644    1.0000 0.27660  0.64560  0.37020  Biso   1.000  H
  C2103    1.0000 0.23710  0.64617  0.37216  Biso   1.000  C
  C2104    1.0000 0.19600  0.70718  0.38117  Biso   1.000  C
  H1645    1.0000 0.20190  0.72490  0.38290  Biso   1.000  H
  H1646    1.0000 0.18490  0.70570  0.36610  Biso   1.000  H
  H1647    1.0000 0.18640  0.70220  0.39650  Biso   1.000  H
  C2105    1.0000 0.29320  0.69460  0.37506  Biso   1.000  C
  H1648    1.0000 0.29230  0.71320  0.37720  Biso   1.000  H
  H1649    1.0000 0.30310  0.68710  0.38920  Biso   1.000  H
  H1650    1.0000 0.30160  0.69060  0.35870  Biso   1.000  H
  C2106    1.0000 0.23320  0.61709  0.36899  Biso   1.000  C
  H1651    1.0000 0.24980  0.60870  0.36720  Biso   1.000  H
  H1652    1.0000 0.22430  0.61030  0.38410  Biso   1.000  H
  H1653    1.0000 0.22280  0.61380  0.35370  Biso   1.000  H
  Zn120    1.0000 0.12070  0.13240  0.87515  Biso   1.000  Zn
  N175     1.0000 0.15295  0.13667  0.90345  Biso   1.000  N
  C2107    1.0000 0.14800  0.13464  0.93070  Biso   1.000  C
  C2108    1.0000 0.17041  0.14392  0.94420  Biso   1.000  C
  H1654    1.0000 0.17240  0.14480  0.96230  Biso   1.000  H
  C2109    1.0000 0.18921  0.15169  0.92530  Biso   1.000  C
  H1655    1.0000 0.20570  0.15850  0.92880  Biso   1.000  H
  C2110    1.0000 0.17842  0.14720  0.90012  Biso   1.000  C
  C2111    1.0000 0.18859  0.15140  0.87509  Biso   1.000  C
  N176     1.0000 0.15283  0.13659  0.84672  Biso   1.000  N
  C2112    1.0000 0.17829  0.14710  0.85020  Biso   1.000  C
  C2113    1.0000 0.18922  0.15159  0.82508  Biso   1.000  C
  H1656    1.0000 0.20570  0.15840  0.82170  Biso   1.000  H
  C2114    1.0000 0.17052  0.14386  0.80607  Biso   1.000  C
  H1657    1.0000 0.17260  0.14470  0.78800  Biso   1.000  H
  C2115    1.0000 0.14803  0.13458  0.81945  Biso   1.000  C
  C2116    1.0000 0.14030  0.10720  0.98475  Biso   1.000  C
  H1658    1.0000 0.15050  0.09520  0.97570  Biso   1.000  H
  C2117    1.0000 0.14020  0.10730  0.01193  Biso   1.000  C
  H1659    1.0000 0.15040  0.09530  0.02110  Biso   1.000  H
  O183     1.0000 0.13930  0.10930  0.06699  Biso   1.000  O
  C2118    1.0000 0.11290  0.14520  0.76559  Biso   1.000  C
  H1660    1.0000 0.10480  0.15870  0.77470  Biso   1.000  H
  C2119    1.0000 0.11280  0.14530  0.73841  Biso   1.000  C
  H1661    1.0000 0.10470  0.15890  0.72940  Biso   1.000  H
  O184     1.0000 0.11080  0.14090  0.68313  Biso   1.000  O
  C2120    1.0000 0.21565  0.16259  0.87508  Biso   1.000  C
  C2121    1.0000 0.21930  0.18935  0.87800  Biso   1.000  C
  C2122    1.0000 0.24440  0.19972  0.87800  Biso   1.000  C
  H1662    1.0000 0.24690  0.21760  0.88000  Biso   1.000  H
  C2123    1.0000 0.26590  0.18330  0.87507  Biso   1.000  C
  C2124    1.0000 0.26224  0.15650  0.87215  Biso   1.000  C
  H1663    1.0000 0.27660  0.14560  0.87020  Biso   1.000  H
  C2125    1.0000 0.23710  0.14617  0.87216  Biso   1.000  C
  C2126    1.0000 0.19600  0.20718  0.88117  Biso   1.000  C
  H1664    1.0000 0.20190  0.22490  0.88290  Biso   1.000  H
  H1665    1.0000 0.18490  0.20570  0.86610  Biso   1.000  H
  H1666    1.0000 0.18640  0.20220  0.89650  Biso   1.000  H
  C2127    1.0000 0.29320  0.19460  0.87506  Biso   1.000  C
  H1667    1.0000 0.29230  0.21320  0.87720  Biso   1.000  H
  H1668    1.0000 0.30310  0.18710  0.88920  Biso   1.000  H
  H1669    1.0000 0.30160  0.19060  0.85870  Biso   1.000  H
  C2128    1.0000 0.23320  0.11709  0.86899  Biso   1.000  C
  H1670    1.0000 0.24980  0.10870  0.86720  Biso   1.000  H
  H1671    1.0000 0.22430  0.11030  0.88410  Biso   1.000  H
  H1672    1.0000 0.22280  0.11380  0.85370  Biso   1.000  H
  Zn121    1.0000 0.12930  0.11760  0.87515  Biso   1.000  Zn
  N177     1.0000 0.09705  0.11333  0.90345  Biso   1.000  N
  C2129    1.0000 0.10200  0.11536  0.93070  Biso   1.000  C
  C2130    1.0000 0.07959  0.10608  0.94420  Biso   1.000  C
  H1673    1.0000 0.07760  0.10520  0.96230  Biso   1.000  H
  C2131    1.0000 0.06079  0.09831  0.92530  Biso   1.000  C
  H1674    1.0000 0.04430  0.09150  0.92880  Biso   1.000  H
  C2132    1.0000 0.07158  0.10280  0.90012  Biso   1.000  C
  C2133    1.0000 0.06141  0.09860  0.87509  Biso   1.000  C
  N178     1.0000 0.09717  0.11341  0.84672  Biso   1.000  N
  C2134    1.0000 0.07171  0.10290  0.85020  Biso   1.000  C
  C2135    1.0000 0.06078  0.09841  0.82508  Biso   1.000  C
  H1675    1.0000 0.04430  0.09160  0.82170  Biso   1.000  H
  C2136    1.0000 0.07948  0.10614  0.80607  Biso   1.000  C
  H1676    1.0000 0.07740  0.10530  0.78800  Biso   1.000  H
  C2137    1.0000 0.10197  0.11542  0.81945  Biso   1.000  C
  C2138    1.0000 0.10970  0.14280  0.98475  Biso   1.000  C
  H1677    1.0000 0.09950  0.15480  0.97570  Biso   1.000  H
  C2139    1.0000 0.10980  0.14270  0.01193  Biso   1.000  C
  H1678    1.0000 0.09960  0.15470  0.02110  Biso   1.000  H
  O185     1.0000 0.11070  0.14070  0.06699  Biso   1.000  O
  C2140    1.0000 0.13710  0.10480  0.76559  Biso   1.000  C
  H1679    1.0000 0.14520  0.09130  0.77470  Biso   1.000  H
  C2141    1.0000 0.13720  0.10470  0.73841  Biso   1.000  C
  H1680    1.0000 0.14530  0.09110  0.72940  Biso   1.000  H
  O186     1.0000 0.13920  0.10910  0.68313  Biso   1.000  O
  C2142    1.0000 0.03435  0.08741  0.87508  Biso   1.000  C
  C2143    1.0000 0.03070  0.06065  0.87800  Biso   1.000  C
  C2144    1.0000 0.00560  0.05028  0.87800  Biso   1.000  C
  H1681    1.0000 0.00310  0.03240  0.88000  Biso   1.000  H
  C2145    1.0000 0.98410  0.06670  0.87507  Biso   1.000  C
  C2146    1.0000 0.98776  0.09350  0.87215  Biso   1.000  C
  H1682    1.0000 0.97340  0.10440  0.87020  Biso   1.000  H
  C2147    1.0000 0.01290  0.10383  0.87216  Biso   1.000  C
  C2148    1.0000 0.05400  0.04282  0.88117  Biso   1.000  C
  H1683    1.0000 0.04810  0.02510  0.88290  Biso   1.000  H
  H1684    1.0000 0.06510  0.04430  0.86610  Biso   1.000  H
  H1685    1.0000 0.06360  0.04780  0.89650  Biso   1.000  H
  C2149    1.0000 0.95680  0.05540  0.87506  Biso   1.000  C
  H1686    1.0000 0.95770  0.03680  0.87720  Biso   1.000  H
  H1687    1.0000 0.94690  0.06290  0.88920  Biso   1.000  H
  H1688    1.0000 0.94840  0.05940  0.85870  Biso   1.000  H
  C2150    1.0000 0.01680  0.13291  0.86899  Biso   1.000  C
  H1689    1.0000 0.00020  0.14130  0.86720  Biso   1.000  H
  H1690    1.0000 0.02570  0.13970  0.88410  Biso   1.000  H
  H1691    1.0000 0.02720  0.13620  0.85370  Biso   1.000  H
  Zn122    1.0000 0.12930  0.61760  0.37515  Biso   1.000  Zn
  N179     1.0000 0.09705  0.61333  0.40345  Biso   1.000  N
  C2151    1.0000 0.10200  0.61536  0.43070  Biso   1.000  C
  C2152    1.0000 0.07959  0.60608  0.44420  Biso   1.000  C
  H1692    1.0000 0.07760  0.60520  0.46230  Biso   1.000  H
  C2153    1.0000 0.06079  0.59831  0.42530  Biso   1.000  C
  H1693    1.0000 0.04430  0.59150  0.42880  Biso   1.000  H
  C2154    1.0000 0.07158  0.60280  0.40012  Biso   1.000  C
  C2155    1.0000 0.06141  0.59860  0.37509  Biso   1.000  C
  N180     1.0000 0.09717  0.61341  0.34672  Biso   1.000  N
  C2156    1.0000 0.07171  0.60290  0.35020  Biso   1.000  C
  C2157    1.0000 0.06078  0.59841  0.32508  Biso   1.000  C
  H1694    1.0000 0.04430  0.59160  0.32170  Biso   1.000  H
  C2158    1.0000 0.07948  0.60614  0.30607  Biso   1.000  C
  H1695    1.0000 0.07740  0.60530  0.28800  Biso   1.000  H
  C2159    1.0000 0.10197  0.61542  0.31945  Biso   1.000  C
  C2160    1.0000 0.10970  0.64280  0.48475  Biso   1.000  C
  H1696    1.0000 0.09950  0.65480  0.47570  Biso   1.000  H
  C2161    1.0000 0.10980  0.64270  0.51193  Biso   1.000  C
  H1697    1.0000 0.09960  0.65470  0.52110  Biso   1.000  H
  O187     1.0000 0.11070  0.64070  0.56699  Biso   1.000  O
  C2162    1.0000 0.13710  0.60480  0.26559  Biso   1.000  C
  H1698    1.0000 0.14520  0.59130  0.27470  Biso   1.000  H
  C2163    1.0000 0.13720  0.60470  0.23841  Biso   1.000  C
  H1699    1.0000 0.14530  0.59110  0.22940  Biso   1.000  H
  O188     1.0000 0.13920  0.60910  0.18313  Biso   1.000  O
  C2164    1.0000 0.03435  0.58741  0.37508  Biso   1.000  C
  C2165    1.0000 0.03070  0.56065  0.37800  Biso   1.000  C
  C2166    1.0000 0.00560  0.55028  0.37800  Biso   1.000  C
  H1700    1.0000 0.00310  0.53240  0.38000  Biso   1.000  H
  C2167    1.0000 0.98410  0.56670  0.37507  Biso   1.000  C
  C2168    1.0000 0.98776  0.59350  0.37215  Biso   1.000  C
  H1701    1.0000 0.97340  0.60440  0.37020  Biso   1.000  H
  C2169    1.0000 0.01290  0.60383  0.37216  Biso   1.000  C
  C2170    1.0000 0.05400  0.54282  0.38117  Biso   1.000  C
  H1702    1.0000 0.04810  0.52510  0.38290  Biso   1.000  H
  H1703    1.0000 0.06510  0.54430  0.36610  Biso   1.000  H
  H1704    1.0000 0.06360  0.54780  0.39650  Biso   1.000  H
  C2171    1.0000 0.95680  0.55540  0.37506  Biso   1.000  C
  H1705    1.0000 0.95770  0.53680  0.37720  Biso   1.000  H
  H1706    1.0000 0.94690  0.56290  0.38920  Biso   1.000  H
  H1707    1.0000 0.94840  0.55940  0.35870  Biso   1.000  H
  C2172    1.0000 0.01680  0.63291  0.36899  Biso   1.000  C
  H1708    1.0000 0.00020  0.64130  0.36720  Biso   1.000  H
  H1709    1.0000 0.02570  0.63970  0.38410  Biso   1.000  H
  H1710    1.0000 0.02720  0.63620  0.35370  Biso   1.000  H
  Zn123    1.0000 0.62930  0.11760  0.37515  Biso   1.000  Zn
  N181     1.0000 0.59705  0.11333  0.40345  Biso   1.000  N
  C2173    1.0000 0.60200  0.11536  0.43070  Biso   1.000  C
  C2174    1.0000 0.57959  0.10608  0.44420  Biso   1.000  C
  H1711    1.0000 0.57760  0.10520  0.46230  Biso   1.000  H
  C2175    1.0000 0.56079  0.09831  0.42530  Biso   1.000  C
  H1712    1.0000 0.54430  0.09150  0.42880  Biso   1.000  H
  C2176    1.0000 0.57158  0.10280  0.40012  Biso   1.000  C
  C2177    1.0000 0.56141  0.09860  0.37509  Biso   1.000  C
  N182     1.0000 0.59717  0.11341  0.34672  Biso   1.000  N
  C2178    1.0000 0.57171  0.10290  0.35020  Biso   1.000  C
  C2179    1.0000 0.56078  0.09841  0.32508  Biso   1.000  C
  H1713    1.0000 0.54430  0.09160  0.32170  Biso   1.000  H
  C2180    1.0000 0.57948  0.10614  0.30607  Biso   1.000  C
  H1714    1.0000 0.57740  0.10530  0.28800  Biso   1.000  H
  C2181    1.0000 0.60197  0.11542  0.31945  Biso   1.000  C
  C2182    1.0000 0.60970  0.14280  0.48475  Biso   1.000  C
  H1715    1.0000 0.59950  0.15480  0.47570  Biso   1.000  H
  C2183    1.0000 0.60980  0.14270  0.51193  Biso   1.000  C
  H1716    1.0000 0.59960  0.15470  0.52110  Biso   1.000  H
  O189     1.0000 0.61070  0.14070  0.56699  Biso   1.000  O
  C2184    1.0000 0.63710  0.10480  0.26559  Biso   1.000  C
  H1717    1.0000 0.64520  0.09130  0.27470  Biso   1.000  H
  C2185    1.0000 0.63720  0.10470  0.23841  Biso   1.000  C
  H1718    1.0000 0.64530  0.09110  0.22940  Biso   1.000  H
  O190     1.0000 0.63920  0.10910  0.18313  Biso   1.000  O
  C2186    1.0000 0.53435  0.08741  0.37508  Biso   1.000  C
  C2187    1.0000 0.53070  0.06065  0.37800  Biso   1.000  C
  C2188    1.0000 0.50560  0.05028  0.37800  Biso   1.000  C
  H1719    1.0000 0.50310  0.03240  0.38000  Biso   1.000  H
  C2189    1.0000 0.48410  0.06670  0.37507  Biso   1.000  C
  C2190    1.0000 0.48776  0.09350  0.37215  Biso   1.000  C
  H1720    1.0000 0.47340  0.10440  0.37020  Biso   1.000  H
  C2191    1.0000 0.51290  0.10383  0.37216  Biso   1.000  C
  C2192    1.0000 0.55400  0.04282  0.38117  Biso   1.000  C
  H1721    1.0000 0.54810  0.02510  0.38290  Biso   1.000  H
  H1722    1.0000 0.56510  0.04430  0.36610  Biso   1.000  H
  H1723    1.0000 0.56360  0.04780  0.39650  Biso   1.000  H
  C2193    1.0000 0.45680  0.05540  0.37506  Biso   1.000  C
  H1724    1.0000 0.45770  0.03680  0.37720  Biso   1.000  H
  H1725    1.0000 0.44690  0.06290  0.38920  Biso   1.000  H
  H1726    1.0000 0.44840  0.05940  0.35870  Biso   1.000  H
  C2194    1.0000 0.51680  0.13291  0.36899  Biso   1.000  C
  H1727    1.0000 0.50020  0.14130  0.36720  Biso   1.000  H
  H1728    1.0000 0.52570  0.13970  0.38410  Biso   1.000  H
  H1729    1.0000 0.52720  0.13620  0.35370  Biso   1.000  H
  Zn124    1.0000 0.62930  0.61760  0.87515  Biso   1.000  Zn
  N183     1.0000 0.59705  0.61333  0.90345  Biso   1.000  N
  C2195    1.0000 0.60200  0.61536  0.93070  Biso   1.000  C
  C2196    1.0000 0.57959  0.60608  0.94420  Biso   1.000  C
  H1730    1.0000 0.57760  0.60520  0.96230  Biso   1.000  H
  C2197    1.0000 0.56079  0.59831  0.92530  Biso   1.000  C
  H1731    1.0000 0.54430  0.59150  0.92880  Biso   1.000  H
  C2198    1.0000 0.57158  0.60280  0.90012  Biso   1.000  C
  C2199    1.0000 0.56141  0.59860  0.87509  Biso   1.000  C
  N184     1.0000 0.59717  0.61341  0.84672  Biso   1.000  N
  C2200    1.0000 0.57171  0.60290  0.85020  Biso   1.000  C
  C2201    1.0000 0.56078  0.59841  0.82508  Biso   1.000  C
  H1732    1.0000 0.54430  0.59160  0.82170  Biso   1.000  H
  C2202    1.0000 0.57948  0.60614  0.80607  Biso   1.000  C
  H1733    1.0000 0.57740  0.60530  0.78800  Biso   1.000  H
  C2203    1.0000 0.60197  0.61542  0.81945  Biso   1.000  C
  C2204    1.0000 0.60970  0.64280  0.98475  Biso   1.000  C
  H1734    1.0000 0.59950  0.65480  0.97570  Biso   1.000  H
  C2205    1.0000 0.60980  0.64270  0.01193  Biso   1.000  C
  H1735    1.0000 0.59960  0.65470  0.02110  Biso   1.000  H
  O191     1.0000 0.61070  0.64070  0.06699  Biso   1.000  O
  C2206    1.0000 0.63710  0.60480  0.76559  Biso   1.000  C
  H1736    1.0000 0.64520  0.59130  0.77470  Biso   1.000  H
  C2207    1.0000 0.63720  0.60470  0.73841  Biso   1.000  C
  H1737    1.0000 0.64530  0.59110  0.72940  Biso   1.000  H
  O192     1.0000 0.63920  0.60910  0.68313  Biso   1.000  O
  C2208    1.0000 0.53435  0.58741  0.87508  Biso   1.000  C
  C2209    1.0000 0.53070  0.56065  0.87800  Biso   1.000  C
  C2210    1.0000 0.50560  0.55028  0.87800  Biso   1.000  C
  H1738    1.0000 0.50310  0.53240  0.88000  Biso   1.000  H
  C2211    1.0000 0.48410  0.56670  0.87507  Biso   1.000  C
  C2212    1.0000 0.48776  0.59350  0.87215  Biso   1.000  C
  H1739    1.0000 0.47340  0.60440  0.87020  Biso   1.000  H
  C2213    1.0000 0.51290  0.60383  0.87216  Biso   1.000  C
  C2214    1.0000 0.55400  0.54282  0.88117  Biso   1.000  C
  H1740    1.0000 0.54810  0.52510  0.88290  Biso   1.000  H
  H1741    1.0000 0.56510  0.54430  0.86610  Biso   1.000  H
  H1742    1.0000 0.56360  0.54780  0.89650  Biso   1.000  H
  C2215    1.0000 0.45680  0.55540  0.87506  Biso   1.000  C
  H1743    1.0000 0.45770  0.53680  0.87720  Biso   1.000  H
  H1744    1.0000 0.44690  0.56290  0.88920  Biso   1.000  H
  H1745    1.0000 0.44840  0.55940  0.85870  Biso   1.000  H
  C2216    1.0000 0.51680  0.63291  0.86899  Biso   1.000  C
  H1746    1.0000 0.50020  0.64130  0.86720  Biso   1.000  H
  H1747    1.0000 0.52570  0.63970  0.88410  Biso   1.000  H
  H1748    1.0000 0.52720  0.63620  0.85370  Biso   1.000  H
  Zn125    1.0000 0.62070  0.11760  0.87485  Biso   1.000  Zn
  N185     1.0000 0.65295  0.11333  0.84655  Biso   1.000  N
  C2217    1.0000 0.64800  0.11536  0.81930  Biso   1.000  C
  C2218    1.0000 0.67041  0.10608  0.80580  Biso   1.000  C
  H1749    1.0000 0.67240  0.10520  0.78770  Biso   1.000  H
  C2219    1.0000 0.68921  0.09831  0.82470  Biso   1.000  C
  H1750    1.0000 0.70570  0.09150  0.82120  Biso   1.000  H
  C2220    1.0000 0.67842  0.10280  0.84988  Biso   1.000  C
  C2221    1.0000 0.68859  0.09860  0.87491  Biso   1.000  C
  N186     1.0000 0.65283  0.11341  0.90328  Biso   1.000  N
  C2222    1.0000 0.67829  0.10290  0.89980  Biso   1.000  C
  C2223    1.0000 0.68922  0.09841  0.92492  Biso   1.000  C
  H1751    1.0000 0.70570  0.09160  0.92830  Biso   1.000  H
  C2224    1.0000 0.67052  0.10614  0.94393  Biso   1.000  C
  H1752    1.0000 0.67260  0.10530  0.96200  Biso   1.000  H
  C2225    1.0000 0.64803  0.11542  0.93055  Biso   1.000  C
  C2226    1.0000 0.64030  0.14280  0.76525  Biso   1.000  C
  H1753    1.0000 0.65050  0.15480  0.77430  Biso   1.000  H
  C2227    1.0000 0.64020  0.14270  0.73807  Biso   1.000  C
  H1754    1.0000 0.65040  0.15470  0.72890  Biso   1.000  H
  O193     1.0000 0.63930  0.14070  0.68301  Biso   1.000  O
  C2228    1.0000 0.61290  0.10480  0.98441  Biso   1.000  C
  H1755    1.0000 0.60480  0.09130  0.97530  Biso   1.000  H
  C2229    1.0000 0.61280  0.10470  0.01159  Biso   1.000  C
  H1756    1.0000 0.60470  0.09110  0.02060  Biso   1.000  H
  O194     1.0000 0.61080  0.10910  0.06687  Biso   1.000  O
  C2230    1.0000 0.71565  0.08741  0.87492  Biso   1.000  C
  C2231    1.0000 0.71930  0.06065  0.87200  Biso   1.000  C
  C2232    1.0000 0.74440  0.05028  0.87200  Biso   1.000  C
  H1757    1.0000 0.74690  0.03240  0.87000  Biso   1.000  H
  C2233    1.0000 0.76590  0.06670  0.87493  Biso   1.000  C
  C2234    1.0000 0.76224  0.09350  0.87785  Biso   1.000  C
  H1758    1.0000 0.77660  0.10440  0.87980  Biso   1.000  H
  C2235    1.0000 0.73710  0.10383  0.87784  Biso   1.000  C
  C2236    1.0000 0.69600  0.04282  0.86883  Biso   1.000  C
  H1759    1.0000 0.70190  0.02510  0.86710  Biso   1.000  H
  H1760    1.0000 0.68490  0.04430  0.88390  Biso   1.000  H
  H1761    1.0000 0.68640  0.04780  0.85350  Biso   1.000  H
  C2237    1.0000 0.79320  0.05540  0.87494  Biso   1.000  C
  H1762    1.0000 0.79230  0.03680  0.87280  Biso   1.000  H
  H1763    1.0000 0.80310  0.06290  0.86080  Biso   1.000  H
  H1764    1.0000 0.80160  0.05940  0.89130  Biso   1.000  H
  C2238    1.0000 0.73320  0.13291  0.88101  Biso   1.000  C
  H1765    1.0000 0.74980  0.14130  0.88280  Biso   1.000  H
  H1766    1.0000 0.72430  0.13970  0.86590  Biso   1.000  H
  H1767    1.0000 0.72280  0.13620  0.89630  Biso   1.000  H
  Zn126    1.0000 0.62070  0.61760  0.37485  Biso   1.000  Zn
  N187     1.0000 0.65295  0.61333  0.34655  Biso   1.000  N
  C2239    1.0000 0.64800  0.61536  0.31930  Biso   1.000  C
  C2240    1.0000 0.67041  0.60608  0.30580  Biso   1.000  C
  H1768    1.0000 0.67240  0.60520  0.28770  Biso   1.000  H
  C2241    1.0000 0.68921  0.59831  0.32470  Biso   1.000  C
  H1769    1.0000 0.70570  0.59150  0.32120  Biso   1.000  H
  C2242    1.0000 0.67842  0.60280  0.34988  Biso   1.000  C
  C2243    1.0000 0.68859  0.59860  0.37491  Biso   1.000  C
  N188     1.0000 0.65283  0.61341  0.40328  Biso   1.000  N
  C2244    1.0000 0.67829  0.60290  0.39980  Biso   1.000  C
  C2245    1.0000 0.68922  0.59841  0.42492  Biso   1.000  C
  H1770    1.0000 0.70570  0.59160  0.42830  Biso   1.000  H
  C2246    1.0000 0.67052  0.60614  0.44393  Biso   1.000  C
  H1771    1.0000 0.67260  0.60530  0.46200  Biso   1.000  H
  C2247    1.0000 0.64803  0.61542  0.43055  Biso   1.000  C
  C2248    1.0000 0.64030  0.64280  0.26525  Biso   1.000  C
  H1772    1.0000 0.65050  0.65480  0.27430  Biso   1.000  H
  C2249    1.0000 0.64020  0.64270  0.23807  Biso   1.000  C
  H1773    1.0000 0.65040  0.65470  0.22890  Biso   1.000  H
  O195     1.0000 0.63930  0.64070  0.18301  Biso   1.000  O
  C2250    1.0000 0.61290  0.60480  0.48441  Biso   1.000  C
  H1774    1.0000 0.60480  0.59130  0.47530  Biso   1.000  H
  C2251    1.0000 0.61280  0.60470  0.51159  Biso   1.000  C
  H1775    1.0000 0.60470  0.59110  0.52060  Biso   1.000  H
  O196     1.0000 0.61080  0.60910  0.56687  Biso   1.000  O
  C2252    1.0000 0.71565  0.58741  0.37492  Biso   1.000  C
  C2253    1.0000 0.71930  0.56065  0.37200  Biso   1.000  C
  C2254    1.0000 0.74440  0.55028  0.37200  Biso   1.000  C
  H1776    1.0000 0.74690  0.53240  0.37000  Biso   1.000  H
  C2255    1.0000 0.76590  0.56670  0.37493  Biso   1.000  C
  C2256    1.0000 0.76224  0.59350  0.37785  Biso   1.000  C
  H1777    1.0000 0.77660  0.60440  0.37980  Biso   1.000  H
  C2257    1.0000 0.73710  0.60383  0.37784  Biso   1.000  C
  C2258    1.0000 0.69600  0.54282  0.36883  Biso   1.000  C
  H1778    1.0000 0.70190  0.52510  0.36710  Biso   1.000  H
  H1779    1.0000 0.68490  0.54430  0.38390  Biso   1.000  H
  H1780    1.0000 0.68640  0.54780  0.35350  Biso   1.000  H
  C2259    1.0000 0.79320  0.55540  0.37494  Biso   1.000  C
  H1781    1.0000 0.79230  0.53680  0.37280  Biso   1.000  H
  H1782    1.0000 0.80310  0.56290  0.36080  Biso   1.000  H
  H1783    1.0000 0.80160  0.55940  0.39130  Biso   1.000  H
  C2260    1.0000 0.73320  0.63291  0.38101  Biso   1.000  C
  H1784    1.0000 0.74980  0.64130  0.38280  Biso   1.000  H
  H1785    1.0000 0.72430  0.63970  0.36590  Biso   1.000  H
  H1786    1.0000 0.72280  0.63620  0.39630  Biso   1.000  H
  Zn127    1.0000 0.12070  0.11760  0.37485  Biso   1.000  Zn
  N189     1.0000 0.15295  0.11333  0.34655  Biso   1.000  N
  C2261    1.0000 0.14800  0.11536  0.31930  Biso   1.000  C
  C2262    1.0000 0.17041  0.10608  0.30580  Biso   1.000  C
  H1787    1.0000 0.17240  0.10520  0.28770  Biso   1.000  H
  C2263    1.0000 0.18921  0.09831  0.32470  Biso   1.000  C
  H1788    1.0000 0.20570  0.09150  0.32120  Biso   1.000  H
  C2264    1.0000 0.17842  0.10280  0.34988  Biso   1.000  C
  C2265    1.0000 0.18859  0.09860  0.37491  Biso   1.000  C
  N190     1.0000 0.15283  0.11341  0.40328  Biso   1.000  N
  C2266    1.0000 0.17829  0.10290  0.39980  Biso   1.000  C
  C2267    1.0000 0.18922  0.09841  0.42492  Biso   1.000  C
  H1789    1.0000 0.20570  0.09160  0.42830  Biso   1.000  H
  C2268    1.0000 0.17052  0.10614  0.44393  Biso   1.000  C
  H1790    1.0000 0.17260  0.10530  0.46200  Biso   1.000  H
  C2269    1.0000 0.14803  0.11542  0.43055  Biso   1.000  C
  C2270    1.0000 0.14030  0.14280  0.26525  Biso   1.000  C
  H1791    1.0000 0.15050  0.15480  0.27430  Biso   1.000  H
  C2271    1.0000 0.14020  0.14270  0.23807  Biso   1.000  C
  H1792    1.0000 0.15040  0.15470  0.22890  Biso   1.000  H
  O197     1.0000 0.13930  0.14070  0.18301  Biso   1.000  O
  C2272    1.0000 0.11290  0.10480  0.48441  Biso   1.000  C
  H1793    1.0000 0.10480  0.09130  0.47530  Biso   1.000  H
  C2273    1.0000 0.11280  0.10470  0.51159  Biso   1.000  C
  H1794    1.0000 0.10470  0.09110  0.52060  Biso   1.000  H
  O198     1.0000 0.11080  0.10910  0.56687  Biso   1.000  O
  C2274    1.0000 0.21565  0.08741  0.37492  Biso   1.000  C
  C2275    1.0000 0.21930  0.06065  0.37200  Biso   1.000  C
  C2276    1.0000 0.24440  0.05028  0.37200  Biso   1.000  C
  H1795    1.0000 0.24690  0.03240  0.37000  Biso   1.000  H
  C2277    1.0000 0.26590  0.06670  0.37493  Biso   1.000  C
  C2278    1.0000 0.26224  0.09350  0.37785  Biso   1.000  C
  H1796    1.0000 0.27660  0.10440  0.37980  Biso   1.000  H
  C2279    1.0000 0.23710  0.10383  0.37784  Biso   1.000  C
  C2280    1.0000 0.19600  0.04282  0.36883  Biso   1.000  C
  H1797    1.0000 0.20190  0.02510  0.36710  Biso   1.000  H
  H1798    1.0000 0.18490  0.04430  0.38390  Biso   1.000  H
  H1799    1.0000 0.18640  0.04780  0.35350  Biso   1.000  H
  C2281    1.0000 0.29320  0.05540  0.37494  Biso   1.000  C
  H1800    1.0000 0.29230  0.03680  0.37280  Biso   1.000  H
  H1801    1.0000 0.30310  0.06290  0.36080  Biso   1.000  H
  H1802    1.0000 0.30160  0.05940  0.39130  Biso   1.000  H
  C2282    1.0000 0.23320  0.13291  0.38101  Biso   1.000  C
  H1803    1.0000 0.24980  0.14130  0.38280  Biso   1.000  H
  H1804    1.0000 0.22430  0.13970  0.36590  Biso   1.000  H
  H1805    1.0000 0.22280  0.13620  0.39630  Biso   1.000  H
  Zn128    1.0000 0.12070  0.61760  0.87485  Biso   1.000  Zn
  N191     1.0000 0.15295  0.61333  0.84655  Biso   1.000  N
  C2283    1.0000 0.14800  0.61536  0.81930  Biso   1.000  C
  C2284    1.0000 0.17041  0.60608  0.80580  Biso   1.000  C
  H1806    1.0000 0.17240  0.60520  0.78770  Biso   1.000  H
  C2285    1.0000 0.18921  0.59831  0.82470  Biso   1.000  C
  H1807    1.0000 0.20570  0.59150  0.82120  Biso   1.000  H
  C2286    1.0000 0.17842  0.60280  0.84988  Biso   1.000  C
  C2287    1.0000 0.18859  0.59860  0.87491  Biso   1.000  C
  N192     1.0000 0.15283  0.61341  0.90328  Biso   1.000  N
  C2288    1.0000 0.17829  0.60290  0.89980  Biso   1.000  C
  C2289    1.0000 0.18922  0.59841  0.92492  Biso   1.000  C
  H1808    1.0000 0.20570  0.59160  0.92830  Biso   1.000  H
  C2290    1.0000 0.17052  0.60614  0.94393  Biso   1.000  C
  H1809    1.0000 0.17260  0.60530  0.96200  Biso   1.000  H
  C2291    1.0000 0.14803  0.61542  0.93055  Biso   1.000  C
  C2292    1.0000 0.14030  0.64280  0.76525  Biso   1.000  C
  H1810    1.0000 0.15050  0.65480  0.77430  Biso   1.000  H
  C2293    1.0000 0.14020  0.64270  0.73807  Biso   1.000  C
  H1811    1.0000 0.15040  0.65470  0.72890  Biso   1.000  H
  O199     1.0000 0.13930  0.64070  0.68301  Biso   1.000  O
  C2294    1.0000 0.11290  0.60480  0.98441  Biso   1.000  C
  H1812    1.0000 0.10480  0.59130  0.97530  Biso   1.000  H
  C2295    1.0000 0.11280  0.60470  0.01159  Biso   1.000  C
  H1813    1.0000 0.10470  0.59110  0.02060  Biso   1.000  H
  O200     1.0000 0.11080  0.60910  0.06687  Biso   1.000  O
  C2296    1.0000 0.21565  0.58741  0.87492  Biso   1.000  C
  C2297    1.0000 0.21930  0.56065  0.87200  Biso   1.000  C
  C2298    1.0000 0.24440  0.55028  0.87200  Biso   1.000  C
  H1814    1.0000 0.24690  0.53240  0.87000  Biso   1.000  H
  C2299    1.0000 0.26590  0.56670  0.87493  Biso   1.000  C
  C2300    1.0000 0.26224  0.59350  0.87785  Biso   1.000  C
  H1815    1.0000 0.27660  0.60440  0.87980  Biso   1.000  H
  C2301    1.0000 0.23710  0.60383  0.87784  Biso   1.000  C
  C2302    1.0000 0.19600  0.54282  0.86883  Biso   1.000  C
  H1816    1.0000 0.20190  0.52510  0.86710  Biso   1.000  H
  H1817    1.0000 0.18490  0.54430  0.88390  Biso   1.000  H
  H1818    1.0000 0.18640  0.54780  0.85350  Biso   1.000  H
  C2303    1.0000 0.29320  0.55540  0.87494  Biso   1.000  C
  H1819    1.0000 0.29230  0.53680  0.87280  Biso   1.000  H
  H1820    1.0000 0.30310  0.56290  0.86080  Biso   1.000  H
  H1821    1.0000 0.30160  0.55940  0.89130  Biso   1.000  H
  C2304    1.0000 0.23320  0.63291  0.88101  Biso   1.000  C
  H1822    1.0000 0.24980  0.64130  0.88280  Biso   1.000  H
  H1823    1.0000 0.22430  0.63970  0.86590  Biso   1.000  H
  H1824    1.0000 0.22280  0.63620  0.89630  Biso   1.000  H
  O201     1.0000 0.62500  0.12500  0.62500  Biso   1.000  O
  O202     1.0000 0.12500  0.62500  0.62500  Biso   1.000  O
  O203     1.0000 0.12500  0.12500  0.12500  Biso   1.000  O
  O204     1.0000 0.62500  0.62500  0.12500  Biso   1.000  O
  Zn129    1.0000 0.64672  0.10328  0.60328  Biso   1.000  Zn
  Zn130    1.0000 0.10328  0.64672  0.60328  Biso   1.000  Zn
  Zn131    1.0000 0.10328  0.10328  0.14672  Biso   1.000  Zn
  Zn132    1.0000 0.64672  0.64672  0.14672  Biso   1.000  Zn
  Zn133    1.0000 0.60328  0.64672  0.10328  Biso   1.000  Zn
  Zn134    1.0000 0.60328  0.14672  0.60328  Biso   1.000  Zn
  Zn135    1.0000 0.60328  0.10328  0.64672  Biso   1.000  Zn
  Zn136    1.0000 0.60328  0.60328  0.14672  Biso   1.000  Zn
  Zn137    1.0000 0.14672  0.10328  0.10328  Biso   1.000  Zn
  Zn138    1.0000 0.14672  0.60328  0.60328  Biso   1.000  Zn
  Zn139    1.0000 0.14672  0.64672  0.64672  Biso   1.000  Zn
  Zn140    1.0000 0.14672  0.14672  0.14672  Biso   1.000  Zn
  Zn141    1.0000 0.10328  0.60328  0.64672  Biso   1.000  Zn
  Zn142    1.0000 0.64672  0.60328  0.10328  Biso   1.000  Zn
  Zn143    1.0000 0.10328  0.14672  0.10328  Biso   1.000  Zn
  Zn144    1.0000 0.64672  0.14672  0.64672  Biso   1.000  Zn
  O205     1.0000 0.12500  0.12500  0.62500  Biso   1.000  O
  O206     1.0000 0.62500  0.62500  0.62500  Biso   1.000  O
  O207     1.0000 0.62500  0.12500  0.12500  Biso   1.000  O
  O208     1.0000 0.12500  0.62500  0.12500  Biso   1.000  O
  Zn145    1.0000 0.10308  0.14692  0.64692  Biso   1.000  Zn
  Zn146    1.0000 0.64692  0.60308  0.64692  Biso   1.000  Zn
  Zn147    1.0000 0.64692  0.14692  0.10308  Biso   1.000  Zn
  Zn148    1.0000 0.10308  0.60308  0.10308  Biso   1.000  Zn
  Zn149    1.0000 0.64692  0.10308  0.14692  Biso   1.000  Zn
  Zn150    1.0000 0.64692  0.64692  0.60308  Biso   1.000  Zn
  Zn151    1.0000 0.10308  0.64692  0.14692  Biso   1.000  Zn
  Zn152    1.0000 0.10308  0.10308  0.60308  Biso   1.000  Zn
  Zn153    1.0000 0.14692  0.64692  0.10308  Biso   1.000  Zn
  Zn154    1.0000 0.14692  0.14692  0.60308  Biso   1.000  Zn
  Zn155    1.0000 0.60308  0.64692  0.64692  Biso   1.000  Zn
  Zn156    1.0000 0.60308  0.14692  0.14692  Biso   1.000  Zn
  Zn157    1.0000 0.14692  0.10308  0.64692  Biso   1.000  Zn
  Zn158    1.0000 0.14692  0.60308  0.14692  Biso   1.000  Zn
  Zn159    1.0000 0.60308  0.10308  0.10308  Biso   1.000  Zn
  Zn160    1.0000 0.60308  0.60308  0.60308  Biso   1.000  Zn
  C2305    1.0000 0.80820  0.12500  0.62500  Biso   1.000  C
  C2306    1.0000 0.94157  0.12500  0.62500  Biso   1.000  C
  C2307    1.0000 0.77895  0.12500  0.62500  Biso   1.000  C
  C2308    1.0000 0.72460  0.12500  0.62500  Biso   1.000  C
  C2309    1.0000 0.69520  0.12500  0.62500  Biso   1.000  C
  C2310    1.0000 0.97092  0.12500  0.62500  Biso   1.000  C
  C2311    1.0000 0.02527  0.12500  0.62500  Biso   1.000  C
  C2312    1.0000 0.05470  0.12500  0.62500  Biso   1.000  C
  C2313    1.0000 0.30820  0.12500  0.12500  Biso   1.000  C
  C2314    1.0000 0.44157  0.12500  0.12500  Biso   1.000  C
  C2315    1.0000 0.27895  0.12500  0.12500  Biso   1.000  C
  C2316    1.0000 0.22460  0.12500  0.12500  Biso   1.000  C
  C2317    1.0000 0.19520  0.12500  0.12500  Biso   1.000  C
  C2318    1.0000 0.47092  0.12500  0.12500  Biso   1.000  C
  C2319    1.0000 0.52527  0.12500  0.12500  Biso   1.000  C
  C2320    1.0000 0.55470  0.12500  0.12500  Biso   1.000  C
  C2321    1.0000 0.94180  0.62500  0.62500  Biso   1.000  C
  C2322    1.0000 0.80843  0.62500  0.62500  Biso   1.000  C
  C2323    1.0000 0.97105  0.62500  0.62500  Biso   1.000  C
  C2324    1.0000 0.02540  0.62500  0.62500  Biso   1.000  C
  C2325    1.0000 0.05480  0.62500  0.62500  Biso   1.000  C
  C2326    1.0000 0.77908  0.62500  0.62500  Biso   1.000  C
  C2327    1.0000 0.72473  0.62500  0.62500  Biso   1.000  C
  C2328    1.0000 0.69530  0.62500  0.62500  Biso   1.000  C
  C2329    1.0000 0.44180  0.62500  0.12500  Biso   1.000  C
  C2330    1.0000 0.30843  0.62500  0.12500  Biso   1.000  C
  C2331    1.0000 0.47105  0.62500  0.12500  Biso   1.000  C
  C2332    1.0000 0.52540  0.62500  0.12500  Biso   1.000  C
  C2333    1.0000 0.55480  0.62500  0.12500  Biso   1.000  C
  C2334    1.0000 0.27908  0.62500  0.12500  Biso   1.000  C
  C2335    1.0000 0.22473  0.62500  0.12500  Biso   1.000  C
  C2336    1.0000 0.19530  0.62500  0.12500  Biso   1.000  C
  C2337    1.0000 0.94180  0.12500  0.12500  Biso   1.000  C
  C2338    1.0000 0.80843  0.12500  0.12500  Biso   1.000  C
  C2339    1.0000 0.97105  0.12500  0.12500  Biso   1.000  C
  C2340    1.0000 0.02540  0.12500  0.12500  Biso   1.000  C
  C2341    1.0000 0.05480  0.12500  0.12500  Biso   1.000  C
  C2342    1.0000 0.77908  0.12500  0.12500  Biso   1.000  C
  C2343    1.0000 0.72473  0.12500  0.12500  Biso   1.000  C
  C2344    1.0000 0.69530  0.12500  0.12500  Biso   1.000  C
  C2345    1.0000 0.44180  0.12500  0.62500  Biso   1.000  C
  C2346    1.0000 0.30843  0.12500  0.62500  Biso   1.000  C
  C2347    1.0000 0.47105  0.12500  0.62500  Biso   1.000  C
  C2348    1.0000 0.52540  0.12500  0.62500  Biso   1.000  C
  C2349    1.0000 0.55480  0.12500  0.62500  Biso   1.000  C
  C2350    1.0000 0.27908  0.12500  0.62500  Biso   1.000  C
  C2351    1.0000 0.22473  0.12500  0.62500  Biso   1.000  C
  C2352    1.0000 0.19530  0.12500  0.62500  Biso   1.000  C
  C2353    1.0000 0.80820  0.62500  0.12500  Biso   1.000  C
  C2354    1.0000 0.94157  0.62500  0.12500  Biso   1.000  C
  C2355    1.0000 0.77895  0.62500  0.12500  Biso   1.000  C
  C2356    1.0000 0.72460  0.62500  0.12500  Biso   1.000  C
  C2357    1.0000 0.69520  0.62500  0.12500  Biso   1.000  C
  C2358    1.0000 0.97092  0.62500  0.12500  Biso   1.000  C
  C2359    1.0000 0.02527  0.62500  0.12500  Biso   1.000  C
  C2360    1.0000 0.05470  0.62500  0.12500  Biso   1.000  C
  C2361    1.0000 0.30820  0.62500  0.62500  Biso   1.000  C
  C2362    1.0000 0.44157  0.62500  0.62500  Biso   1.000  C
  C2363    1.0000 0.27895  0.62500  0.62500  Biso   1.000  C
  C2364    1.0000 0.22460  0.62500  0.62500  Biso   1.000  C
  C2365    1.0000 0.19520  0.62500  0.62500  Biso   1.000  C
  C2366    1.0000 0.47092  0.62500  0.62500  Biso   1.000  C
  C2367    1.0000 0.52527  0.62500  0.62500  Biso   1.000  C
  C2368    1.0000 0.55470  0.62500  0.62500  Biso   1.000  C
  C2369    1.0000 0.62500  0.80820  0.12500  Biso   1.000  C
  C2370    1.0000 0.62500  0.94157  0.12500  Biso   1.000  C
  C2371    1.0000 0.62500  0.77895  0.12500  Biso   1.000  C
  C2372    1.0000 0.62500  0.72460  0.12500  Biso   1.000  C
  C2373    1.0000 0.62500  0.69520  0.12500  Biso   1.000  C
  C2374    1.0000 0.62500  0.97092  0.12500  Biso   1.000  C
  C2375    1.0000 0.62500  0.02527  0.12500  Biso   1.000  C
  C2376    1.0000 0.62500  0.05470  0.12500  Biso   1.000  C
  C2377    1.0000 0.62500  0.30820  0.62500  Biso   1.000  C
  C2378    1.0000 0.62500  0.44157  0.62500  Biso   1.000  C
  C2379    1.0000 0.62500  0.27895  0.62500  Biso   1.000  C
  C2380    1.0000 0.62500  0.22460  0.62500  Biso   1.000  C
  C2381    1.0000 0.62500  0.19520  0.62500  Biso   1.000  C
  C2382    1.0000 0.62500  0.47092  0.62500  Biso   1.000  C
  C2383    1.0000 0.62500  0.52527  0.62500  Biso   1.000  C
  C2384    1.0000 0.62500  0.55470  0.62500  Biso   1.000  C
  C2385    1.0000 0.62500  0.94180  0.62500  Biso   1.000  C
  C2386    1.0000 0.62500  0.80843  0.62500  Biso   1.000  C
  C2387    1.0000 0.62500  0.97105  0.62500  Biso   1.000  C
  C2388    1.0000 0.62500  0.02540  0.62500  Biso   1.000  C
  C2389    1.0000 0.62500  0.05480  0.62500  Biso   1.000  C
  C2390    1.0000 0.62500  0.77908  0.62500  Biso   1.000  C
  C2391    1.0000 0.62500  0.72473  0.62500  Biso   1.000  C
  C2392    1.0000 0.62500  0.69530  0.62500  Biso   1.000  C
  C2393    1.0000 0.62500  0.44180  0.12500  Biso   1.000  C
  C2394    1.0000 0.62500  0.30843  0.12500  Biso   1.000  C
  C2395    1.0000 0.62500  0.47105  0.12500  Biso   1.000  C
  C2396    1.0000 0.62500  0.52540  0.12500  Biso   1.000  C
  C2397    1.0000 0.62500  0.55480  0.12500  Biso   1.000  C
  C2398    1.0000 0.62500  0.27908  0.12500  Biso   1.000  C
  C2399    1.0000 0.62500  0.22473  0.12500  Biso   1.000  C
  C2400    1.0000 0.62500  0.19530  0.12500  Biso   1.000  C
  C2401    1.0000 0.12500  0.94180  0.12500  Biso   1.000  C
  C2402    1.0000 0.12500  0.80843  0.12500  Biso   1.000  C
  C2403    1.0000 0.12500  0.97105  0.12500  Biso   1.000  C
  C2404    1.0000 0.12500  0.02540  0.12500  Biso   1.000  C
  C2405    1.0000 0.12500  0.05480  0.12500  Biso   1.000  C
  C2406    1.0000 0.12500  0.77908  0.12500  Biso   1.000  C
  C2407    1.0000 0.12500  0.72473  0.12500  Biso   1.000  C
  C2408    1.0000 0.12500  0.69530  0.12500  Biso   1.000  C
  C2409    1.0000 0.12500  0.44180  0.62500  Biso   1.000  C
  C2410    1.0000 0.12500  0.30843  0.62500  Biso   1.000  C
  C2411    1.0000 0.12500  0.47105  0.62500  Biso   1.000  C
  C2412    1.0000 0.12500  0.52540  0.62500  Biso   1.000  C
  C2413    1.0000 0.12500  0.55480  0.62500  Biso   1.000  C
  C2414    1.0000 0.12500  0.27908  0.62500  Biso   1.000  C
  C2415    1.0000 0.12500  0.22473  0.62500  Biso   1.000  C
  C2416    1.0000 0.12500  0.19530  0.62500  Biso   1.000  C
  C2417    1.0000 0.12500  0.80820  0.62500  Biso   1.000  C
  C2418    1.0000 0.12500  0.94157  0.62500  Biso   1.000  C
  C2419    1.0000 0.12500  0.77895  0.62500  Biso   1.000  C
  C2420    1.0000 0.12500  0.72460  0.62500  Biso   1.000  C
  C2421    1.0000 0.12500  0.69520  0.62500  Biso   1.000  C
  C2422    1.0000 0.12500  0.97092  0.62500  Biso   1.000  C
  C2423    1.0000 0.12500  0.02527  0.62500  Biso   1.000  C
  C2424    1.0000 0.12500  0.05470  0.62500  Biso   1.000  C
  C2425    1.0000 0.12500  0.30820  0.12500  Biso   1.000  C
  C2426    1.0000 0.12500  0.44157  0.12500  Biso   1.000  C
  C2427    1.0000 0.12500  0.27895  0.12500  Biso   1.000  C
  C2428    1.0000 0.12500  0.22460  0.12500  Biso   1.000  C
  C2429    1.0000 0.12500  0.19520  0.12500  Biso   1.000  C
  C2430    1.0000 0.12500  0.47092  0.12500  Biso   1.000  C
  C2431    1.0000 0.12500  0.52527  0.12500  Biso   1.000  C
  C2432    1.0000 0.12500  0.55470  0.12500  Biso   1.000  C
  C2433    1.0000 0.12500  0.62500  0.80820  Biso   1.000  C
  C2434    1.0000 0.12500  0.62500  0.94157  Biso   1.000  C
  C2435    1.0000 0.12500  0.62500  0.77895  Biso   1.000  C
  C2436    1.0000 0.12500  0.62500  0.72460  Biso   1.000  C
  C2437    1.0000 0.12500  0.62500  0.69520  Biso   1.000  C
  C2438    1.0000 0.12500  0.62500  0.97092  Biso   1.000  C
  C2439    1.0000 0.12500  0.62500  0.02527  Biso   1.000  C
  C2440    1.0000 0.12500  0.62500  0.05470  Biso   1.000  C
  C2441    1.0000 0.12500  0.12500  0.30820  Biso   1.000  C
  C2442    1.0000 0.12500  0.12500  0.44157  Biso   1.000  C
  C2443    1.0000 0.12500  0.12500  0.27895  Biso   1.000  C
  C2444    1.0000 0.12500  0.12500  0.22460  Biso   1.000  C
  C2445    1.0000 0.12500  0.12500  0.19520  Biso   1.000  C
  C2446    1.0000 0.12500  0.12500  0.47092  Biso   1.000  C
  C2447    1.0000 0.12500  0.12500  0.52527  Biso   1.000  C
  C2448    1.0000 0.12500  0.12500  0.55470  Biso   1.000  C
  C2449    1.0000 0.62500  0.62500  0.94180  Biso   1.000  C
  C2450    1.0000 0.62500  0.62500  0.80843  Biso   1.000  C
  C2451    1.0000 0.62500  0.62500  0.97105  Biso   1.000  C
  C2452    1.0000 0.62500  0.62500  0.02540  Biso   1.000  C
  C2453    1.0000 0.62500  0.62500  0.05480  Biso   1.000  C
  C2454    1.0000 0.62500  0.62500  0.77908  Biso   1.000  C
  C2455    1.0000 0.62500  0.62500  0.72473  Biso   1.000  C
  C2456    1.0000 0.62500  0.62500  0.69530  Biso   1.000  C
  C2457    1.0000 0.62500  0.12500  0.44180  Biso   1.000  C
  C2458    1.0000 0.62500  0.12500  0.30843  Biso   1.000  C
  C2459    1.0000 0.62500  0.12500  0.47105  Biso   1.000  C
  C2460    1.0000 0.62500  0.12500  0.52540  Biso   1.000  C
  C2461    1.0000 0.62500  0.12500  0.55480  Biso   1.000  C
  C2462    1.0000 0.62500  0.12500  0.27908  Biso   1.000  C
  C2463    1.0000 0.62500  0.12500  0.22473  Biso   1.000  C
  C2464    1.0000 0.62500  0.12500  0.19530  Biso   1.000  C
  C2465    1.0000 0.12500  0.12500  0.94180  Biso   1.000  C
  C2466    1.0000 0.12500  0.12500  0.80843  Biso   1.000  C
  C2467    1.0000 0.12500  0.12500  0.97105  Biso   1.000  C
  C2468    1.0000 0.12500  0.12500  0.02540  Biso   1.000  C
  C2469    1.0000 0.12500  0.12500  0.05480  Biso   1.000  C
  C2470    1.0000 0.12500  0.12500  0.77908  Biso   1.000  C
  C2471    1.0000 0.12500  0.12500  0.72473  Biso   1.000  C
  C2472    1.0000 0.12500  0.12500  0.69530  Biso   1.000  C
  C2473    1.0000 0.12500  0.62500  0.44180  Biso   1.000  C
  C2474    1.0000 0.12500  0.62500  0.30843  Biso   1.000  C
  C2475    1.0000 0.12500  0.62500  0.47105  Biso   1.000  C
  C2476    1.0000 0.12500  0.62500  0.52540  Biso   1.000  C
  C2477    1.0000 0.12500  0.62500  0.55480  Biso   1.000  C
  C2478    1.0000 0.12500  0.62500  0.27908  Biso   1.000  C
  C2479    1.0000 0.12500  0.62500  0.22473  Biso   1.000  C
  C2480    1.0000 0.12500  0.62500  0.19530  Biso   1.000  C
  C2481    1.0000 0.62500  0.12500  0.80820  Biso   1.000  C
  C2482    1.0000 0.62500  0.12500  0.94157  Biso   1.000  C
  C2483    1.0000 0.62500  0.12500  0.77895  Biso   1.000  C
  C2484    1.0000 0.62500  0.12500  0.72460  Biso   1.000  C
  C2485    1.0000 0.62500  0.12500  0.69520  Biso   1.000  C
  C2486    1.0000 0.62500  0.12500  0.97092  Biso   1.000  C
  C2487    1.0000 0.62500  0.12500  0.02527  Biso   1.000  C
  C2488    1.0000 0.62500  0.12500  0.05470  Biso   1.000  C
  C2489    1.0000 0.62500  0.62500  0.30820  Biso   1.000  C
  C2490    1.0000 0.62500  0.62500  0.44157  Biso   1.000  C
  C2491    1.0000 0.62500  0.62500  0.27895  Biso   1.000  C
  C2492    1.0000 0.62500  0.62500  0.22460  Biso   1.000  C
  C2493    1.0000 0.62500  0.62500  0.19520  Biso   1.000  C
  C2494    1.0000 0.62500  0.62500  0.47092  Biso   1.000  C
  C2495    1.0000 0.62500  0.62500  0.52527  Biso   1.000  C
  C2496    1.0000 0.62500  0.62500  0.55470  Biso   1.000  C
