data_image0
_cell_length_a       20.6712
_cell_length_b       21.0386
_cell_length_c       21.6281
_cell_angle_alpha    62.477
_cell_angle_beta     79.558
_cell_angle_gamma    67.086

_symmetry_space_group_name_H-M    "P 1"
_symmetry_int_tables_number       1

loop_
  _symmetry_equiv_pos_as_xyz
  'x, y, z'

loop_
  _atom_site_label
  _atom_site_occupancy
  _atom_site_fract_x
  _atom_site_fract_y
  _atom_site_fract_z
  _atom_site_thermal_displace_type
  _atom_site_B_iso_or_equiv
  _atom_site_type_symbol
  O1       1.0000 0.66217  0.46465  0.76776  Biso   1.000  O
  O2       1.0000 0.74807  0.40560  0.84336  Biso   1.000  O
  N1       1.0000 0.89820  0.48820  0.47950  Biso   1.000  N
  H1       1.0000 0.89790  0.50970  0.50610  Biso   1.000  H
  N2       1.0000 0.02700  0.38430  0.59920  Biso   1.000  N
  H2       1.0000 0.00080  0.43090  0.59410  Biso   1.000  H
  C1       1.0000 0.88660  0.52630  0.40900  Biso   1.000  C
  C2       1.0000 0.89310  0.47240  0.38700  Biso   1.000  C
  H3       1.0000 0.88900  0.48170  0.34030  Biso   1.000  H
  C3       1.0000 0.90670  0.40090  0.44580  Biso   1.000  C
  H4       1.0000 0.91220  0.35390  0.44590  Biso   1.000  H
  C4       1.0000 0.91070  0.41140  0.50280  Biso   1.000  C
  C5       1.0000 0.92790  0.35390  0.57810  Biso   1.000  C
  C6       1.0000 0.00300  0.33450  0.59430  Biso   1.000  C
  C7       1.0000 0.05980  0.26920  0.60480  Biso   1.000  C
  H5       1.0000 0.05930  0.22440  0.60440  Biso   1.000  H
  C8       1.0000 0.12000  0.27960  0.61640  Biso   1.000  C
  H6       1.0000 0.16650  0.24360  0.62480  Biso   1.000  H
  C9       1.0000 0.09790  0.35140  0.61310  Biso   1.000  C
  C10      1.0000 0.13850  0.38730  0.62920  Biso   1.000  C
  C11      1.0000 0.91860  0.27970  0.58890  Biso   1.000  C
  H7       1.0000 0.86880  0.28970  0.58460  Biso   1.000  H
  H8       1.0000 0.93540  0.23940  0.63540  Biso   1.000  H
  H9       1.0000 0.94580  0.26320  0.55350  Biso   1.000  H
  C12      1.0000 0.21700  0.35570  0.60870  Biso   1.000  C
  H10      1.0000 0.23740  0.30100  0.63940  Biso   1.000  H
  H11      1.0000 0.24330  0.38310  0.61360  Biso   1.000  H
  H12      1.0000 0.21970  0.36310  0.56020  Biso   1.000  H
  C13      1.0000 0.13370  0.36310  0.70860  Biso   1.000  C
  H13      1.0000 0.08650  0.39050  0.72050  Biso   1.000  H
  H14      1.0000 0.16840  0.37550  0.72220  Biso   1.000  H
  H15      1.0000 0.14330  0.30780  0.73350  Biso   1.000  H
  C14      1.0000 0.87620  0.38010  0.63020  Biso   1.000  C
  C15      1.0000 0.80510  0.42080  0.61330  Biso   1.000  C
  H16      1.0000 0.78960  0.43820  0.56760  Biso   1.000  H
  C16      1.0000 0.75710  0.43590  0.66300  Biso   1.000  C
  H17      1.0000 0.70880  0.46330  0.65100  Biso   1.000  H
  C17      1.0000 0.77840  0.41170  0.72930  Biso   1.000  C
  C18      1.0000 0.84850  0.37240  0.74640  Biso   1.000  C
  H18      1.0000 0.86360  0.35590  0.79200  Biso   1.000  H
  C19      1.0000 0.89750  0.35680  0.69690  Biso   1.000  C
  H19      1.0000 0.94580  0.32990  0.70900  Biso   1.000  H
  C20      1.0000 0.72570  0.42810  0.78330  Biso   1.000  C
  O3       1.0000 0.33099  0.64613  0.99643  Biso   1.000  O
  O4       1.0000 0.36090  0.73160  0.89899  Biso   1.000  O
  C21      1.0000 0.90770  0.90050  0.94370  Biso   1.000  C
  H20      1.0000 0.88480  0.90760  0.90550  Biso   1.000  H
  N3       1.0000 0.04780  0.02300  0.89110  Biso   1.000  N
  H21      1.0000 0.06840  0.99340  0.93210  Biso   1.000  H
  C22      1.0000 0.88040  0.88760  0.01070  Biso   1.000  C
  H22      1.0000 0.83580  0.88280  0.02610  Biso   1.000  H
  C23      1.0000 0.92810  0.88300  0.05120  Biso   1.000  C
  N4       1.0000 0.98500  0.89120  0.01020  Biso   1.000  N
  H23      1.0000 0.02320  0.89050  0.02340  Biso   1.000  H
  C24      1.0000 0.97420  0.90090  0.94370  Biso   1.000  C
  C25      1.0000 0.02560  0.91780  0.88530  Biso   1.000  C
  C26      1.0000 0.02210  0.00010  0.85740  Biso   1.000  C
  C27      1.0000 0.99190  0.06470  0.79500  Biso   1.000  C
  H24      1.0000 0.96840  0.06580  0.76050  Biso   1.000  H
  C28      1.0000 0.00330  0.12580  0.79410  Biso   1.000  C
  H25      1.0000 0.98920  0.17650  0.75800  Biso   1.000  H
  C29      1.0000 0.03810  0.10140  0.85310  Biso   1.000  C
  C30      1.0000 0.07140  0.14050  0.87330  Biso   1.000  C
  C31      1.0000 0.10180  0.86310  0.90330  Biso   1.000  C
  C32      1.0000 0.15680  0.88590  0.86300  Biso   1.000  C
  H26      1.0000 0.14670  0.93600  0.82610  Biso   1.000  H
  C33      1.0000 0.22500  0.83670  0.87650  Biso   1.000  C
  H27      1.0000 0.26160  0.85240  0.84770  Biso   1.000  H
  C34      1.0000 0.24120  0.76440  0.93140  Biso   1.000  C
  C35      1.0000 0.18700  0.74120  0.97440  Biso   1.000  C
  H28      1.0000 0.19800  0.69200  0.01260  Biso   1.000  H
  C36      1.0000 0.11790  0.79000  0.96100  Biso   1.000  C
  H29      1.0000 0.08130  0.77450  0.99020  Biso   1.000  H
  C37      1.0000 0.31510  0.71240  0.94340  Biso   1.000  C
  C38      1.0000 0.00470  0.90690  0.82660  Biso   1.000  C
  H30      1.0000 0.99250  0.86050  0.84710  Biso   1.000  H
  H31      1.0000 0.04410  0.90190  0.79430  Biso   1.000  H
  H32      1.0000 0.96400  0.95130  0.80140  Biso   1.000  H
  C39      1.0000 0.14900  0.12300  0.84180  Biso   1.000  C
  H33      1.0000 0.17220  0.15190  0.84870  Biso   1.000  H
  H34      1.0000 0.14660  0.13820  0.79180  Biso   1.000  H
  H35      1.0000 0.17580  0.06810  0.86550  Biso   1.000  H
  C40      1.0000 0.03260  0.22790  0.83550  Biso   1.000  C
  H36      1.0000 0.98670  0.24180  0.85750  Biso   1.000  H
  H37      1.0000 0.02600  0.24250  0.78640  Biso   1.000  H
  H38      1.0000 0.06050  0.25470  0.83870  Biso   1.000  H
  O5       1.0000 0.50569  0.52833  0.85161  Biso   1.000  O
  O6       1.0000 0.43740  0.64826  0.79554  Biso   1.000  O
  N5       1.0000 0.48790  0.40920  0.60699  Biso   1.000  N
  H39      1.0000 0.50650  0.44510  0.59100  Biso   1.000  H
  N6       1.0000 0.39410  0.59310  0.50763  Biso   1.000  N
  H40      1.0000 0.43530  0.58640  0.52020  Biso   1.000  H
  C41      1.0000 0.52420  0.33480  0.61730  Biso   1.000  C
  C42      1.0000 0.47670  0.29750  0.64160  Biso   1.000  C
  H41      1.0000 0.48670  0.24520  0.65310  Biso   1.000  H
  C43      1.0000 0.40970  0.35110  0.64640  Biso   1.000  C
  H42      1.0000 0.36720  0.34110  0.66160  Biso   1.000  H
  C44      1.0000 0.41820  0.41990  0.62520  Biso   1.000  C
  C45      1.0000 0.36710  0.49450  0.62450  Biso   1.000  C
  C46      1.0000 0.34930  0.55590  0.55060  Biso   1.000  C
  C47      1.0000 0.29050  0.58230  0.51200  Biso   1.000  C
  H43      1.0000 0.25050  0.56720  0.52780  Biso   1.000  H
  C48      1.0000 0.30080  0.63590  0.44430  Biso   1.000  C
  H44      1.0000 0.26860  0.66310  0.40660  Biso   1.000  H
  C49      1.0000 0.36500  0.64200  0.44240  Biso   1.000  C
  C50      1.0000 0.39710  0.69730  0.38490  Biso   1.000  C
  C51      1.0000 0.29830  0.48190  0.66120  Biso   1.000  C
  H45      1.0000 0.27830  0.46510  0.63610  Biso   1.000  H
  H46      1.0000 0.26450  0.52990  0.66130  Biso   1.000  H
  H47      1.0000 0.30870  0.44260  0.70930  Biso   1.000  H
  C52      1.0000 0.36980  0.71590  0.31370  Biso   1.000  C
  H48      1.0000 0.39240  0.74880  0.27560  Biso   1.000  H
  H49      1.0000 0.31880  0.74250  0.31120  Biso   1.000  H
  H50      1.0000 0.38100  0.66820  0.30970  Biso   1.000  H
  C53      1.0000 0.37280  0.77120  0.39300  Biso   1.000  C
  H51      1.0000 0.38660  0.75990  0.43910  Biso   1.000  H
  H52      1.0000 0.32160  0.79490  0.38840  Biso   1.000  H
  H53      1.0000 0.39470  0.80630  0.35680  Biso   1.000  H
  C54      1.0000 0.39580  0.51860  0.66770  Biso   1.000  C
  C55      1.0000 0.37010  0.59390  0.65890  Biso   1.000  C
  H54      1.0000 0.33670  0.63200  0.62340  Biso   1.000  H
  C56      1.0000 0.39280  0.61410  0.70150  Biso   1.000  C
  H55      1.0000 0.37410  0.66580  0.69510  Biso   1.000  H
  C57      1.0000 0.44280  0.55990  0.75380  Biso   1.000  C
  C58      1.0000 0.46780  0.48480  0.76280  Biso   1.000  C
  H56      1.0000 0.50160  0.44690  0.79800  Biso   1.000  H
  C59      1.0000 0.44450  0.46390  0.72150  Biso   1.000  C
  H57      1.0000 0.46160  0.41170  0.72960  Biso   1.000  H
  C60      1.0000 0.46320  0.58130  0.80110  Biso   1.000  C
  O7       1.0000 0.53850  0.66454  0.86750  Biso   1.000  O
  O8       1.0000 0.61710  0.59341  0.81700  Biso   1.000  O
  N7       1.0000 0.61120  0.91150  0.51180  Biso   1.000  N
  H58      1.0000 0.57300  0.90150  0.53160  Biso   1.000  H
  N8       1.0000 0.51410  0.01330  0.59810  Biso   1.000  N
  H59      1.0000 0.49870  0.98090  0.59590  Biso   1.000  H
  C61      1.0000 0.63670  0.91440  0.44690  Biso   1.000  C
  C62      1.0000 0.69490  0.93330  0.43540  Biso   1.000  C
  H60      1.0000 0.72340  0.94010  0.39480  Biso   1.000  H
  C63      1.0000 0.70670  0.94150  0.49450  Biso   1.000  C
  H61      1.0000 0.74370  0.95460  0.50000  Biso   1.000  H
  C64      1.0000 0.65440  0.92670  0.54070  Biso   1.000  C
  C65      1.0000 0.64020  0.92810  0.61170  Biso   1.000  C
  C66      1.0000 0.58260  0.99920  0.60750  Biso   1.000  C
  C67      1.0000 0.58400  0.06500  0.60810  Biso   1.000  C
  H62      1.0000 0.62430  0.07270  0.61380  Biso   1.000  H
  C68      1.0000 0.51640  0.11610  0.59880  Biso   1.000  C
  H63      1.0000 0.50220  0.16570  0.59690  Biso   1.000  H
  C69      1.0000 0.47230  0.08450  0.59250  Biso   1.000  C
  C70      1.0000 0.39580  0.11070  0.59190  Biso   1.000  C
  C71      1.0000 0.70850  0.92380  0.63630  Biso   1.000  C
  H64      1.0000 0.72220  0.96710  0.60200  Biso   1.000  H
  H65      1.0000 0.74610  0.87580  0.64080  Biso   1.000  H
  H66      1.0000 0.70020  0.92590  0.68150  Biso   1.000  H
  C72      1.0000 0.36460  0.19960  0.55810  Biso   1.000  C
  H67      1.0000 0.37480  0.21840  0.58780  Biso   1.000  H
  H68      1.0000 0.31370  0.21660  0.55320  Biso   1.000  H
  H69      1.0000 0.38570  0.21980  0.51200  Biso   1.000  H
  C73      1.0000 0.36790  0.08100  0.66910  Biso   1.000  C
  H70      1.0000 0.38810  0.02500  0.69220  Biso   1.000  H
  H71      1.0000 0.31660  0.09720  0.66880  Biso   1.000  H
  H72      1.0000 0.38170  0.10230  0.69430  Biso   1.000  H
  C74      1.0000 0.62420  0.85670  0.66700  Biso   1.000  C
  C75      1.0000 0.58140  0.85900  0.72380  Biso   1.000  C
  H73      1.0000 0.56000  0.90580  0.72790  Biso   1.000  H
  C76      1.0000 0.56950  0.79370  0.77480  Biso   1.000  C
  H74      1.0000 0.54060  0.79600  0.81380  Biso   1.000  H
  C77      1.0000 0.60010  0.72480  0.76900  Biso   1.000  C
  C78      1.0000 0.64400  0.72170  0.71340  Biso   1.000  C
  H75      1.0000 0.66670  0.67450  0.71010  Biso   1.000  H
  C79      1.0000 0.65530  0.78750  0.66240  Biso   1.000  C
  H76      1.0000 0.68470  0.78500  0.62370  Biso   1.000  H
  C80      1.0000 0.58390  0.65560  0.82180  Biso   1.000  C
  O9       1.0000 0.59530  0.36004  0.89434  Biso   1.000  O
  O10      1.0000 0.52350  0.37416  0.98122  Biso   1.000  O
  N9       1.0000 0.40010  0.09040  0.02068  Biso   1.000  N
  H77      1.0000 0.44420  0.08250  0.02620  Biso   1.000  H
  N10      1.0000 0.50760  0.08490  0.88620  Biso   1.000  N
  H78      1.0000 0.52640  0.07880  0.92280  Biso   1.000  H
  C81      1.0000 0.35900  0.05400  0.07110  Biso   1.000  C
  C82      1.0000 0.29450  0.08100  0.04320  Biso   1.000  C
  H79      1.0000 0.25570  0.06570  0.06610  Biso   1.000  H
  C83      1.0000 0.29600  0.13670  0.97280  Biso   1.000  C
  H80      1.0000 0.25810  0.16540  0.94070  Biso   1.000  H
  C84      1.0000 0.36170  0.14160  0.95990  Biso   1.000  C
  C85      1.0000 0.39400  0.18760  0.89370  Biso   1.000  C
  C86      1.0000 0.44190  0.13470  0.86090  Biso   1.000  C
  C87      1.0000 0.43220  0.12710  0.80400  Biso   1.000  C
  H81      1.0000 0.39150  0.15460  0.77550  Biso   1.000  H
  C88      1.0000 0.49410  0.07050  0.79540  Biso   1.000  C
  H82      1.0000 0.50190  0.05320  0.76020  Biso   1.000  H
  C89      1.0000 0.54020  0.04550  0.84630  Biso   1.000  C
  C90      1.0000 0.61700  0.99670  0.85430  Biso   1.000  C
  C91      1.0000 0.33370  0.25010  0.84250  Biso   1.000  C
  H83      1.0000 0.30910  0.22580  0.83030  Biso   1.000  H
  H84      1.0000 0.35300  0.28210  0.80010  Biso   1.000  H
  H85      1.0000 0.30070  0.28180  0.86450  Biso   1.000  H
  C92      1.0000 0.63180  0.94540  0.81670  Biso   1.000  C
  H86      1.0000 0.68170  0.91350  0.82130  Biso   1.000  H
  H87      1.0000 0.61990  0.97760  0.76730  Biso   1.000  H
  H88      1.0000 0.60340  0.91260  0.83780  Biso   1.000  H
  C93      1.0000 0.65990  0.05040  0.81880  Biso   1.000  C
  H89      1.0000 0.65150  0.08240  0.84310  Biso   1.000  H
  H90      1.0000 0.64530  0.08320  0.77000  Biso   1.000  H
  H91      1.0000 0.71000  0.01980  0.82080  Biso   1.000  H
  C94      1.0000 0.43370  0.22840  0.90670  Biso   1.000  C
  C95      1.0000 0.48770  0.24720  0.86170  Biso   1.000  C
  H92      1.0000 0.50000  0.23350  0.82380  Biso   1.000  H
  C96      1.0000 0.52380  0.28590  0.87110  Biso   1.000  C
  H93      1.0000 0.56090  0.29750  0.84040  Biso   1.000  H
  C97      1.0000 0.50540  0.30760  0.92590  Biso   1.000  C
  C98      1.0000 0.45080  0.29020  0.97000  Biso   1.000  C
  H94      1.0000 0.43740  0.30540  0.00690  Biso   1.000  H
  C99      1.0000 0.41510  0.25060  0.96060  Biso   1.000  C
  H95      1.0000 0.37800  0.23890  0.99140  Biso   1.000  H
  C100     1.0000 0.54400  0.34970  0.93470  Biso   1.000  C
  O11      1.0000 0.56503  0.50504  0.97291  Biso   1.000  O
  Pr1      1.0000 0.63163  0.45980  0.88764  Biso   1.000  Pr
  Pr2      1.0000 0.45233  0.60465  0.92593  Biso   1.000  Pr
  O12      1.0000 0.35390  0.56590  0.90890  Biso   1.000  O
  N11      1.0000 0.27140  0.55030  0.86810  Biso   1.000  N
  C101     1.0000 0.33700  0.53080  0.88850  Biso   1.000  C
  C102     1.0000 0.21640  0.62050  0.87160  Biso   1.000  C
  H96      1.0000 0.17150  0.62820  0.85550  Biso   1.000  H
  H97      1.0000 0.21160  0.61430  0.91980  Biso   1.000  H
  H98      1.0000 0.23030  0.66510  0.84180  Biso   1.000  H
  C103     1.0000 0.26070  0.49850  0.84410  Biso   1.000  C
  H99      1.0000 0.21160  0.51770  0.83060  Biso   1.000  H
  H100     1.0000 0.29120  0.49740  0.80400  Biso   1.000  H
  H101     1.0000 0.27250  0.44670  0.88210  Biso   1.000  H
  O13      1.0000 0.35600  0.57940  0.89880  Biso   1.000  O
  N12      1.0000 0.25780  0.60460  0.84770  Biso   1.000  N
  C104     1.0000 0.30890  0.62250  0.85850  Biso   1.000  C
  C105     1.0000 0.26030  0.52460  0.88950  Biso   1.000  C
  H102     1.0000 0.22130  0.51680  0.87750  Biso   1.000  H
  H103     1.0000 0.30490  0.48710  0.88440  Biso   1.000  H
  H104     1.0000 0.25510  0.51810  0.93780  Biso   1.000  H
  C106     1.0000 0.20740  0.67160  0.79430  Biso   1.000  C
  H105     1.0000 0.17180  0.65420  0.78950  Biso   1.000  H
  H106     1.0000 0.18450  0.71620  0.80440  Biso   1.000  H
  H107     1.0000 0.23410  0.68560  0.75070  Biso   1.000  H
  O14      1.0000 0.33783  0.53535  0.23224  Biso   1.000  O
  O15      1.0000 0.25193  0.59440  0.15664  Biso   1.000  O
  N13      1.0000 0.10180  0.51180  0.52050  Biso   1.000  N
  H108     1.0000 0.10210  0.49030  0.49390  Biso   1.000  H
  N14      1.0000 0.97300  0.61570  0.40080  Biso   1.000  N
  H109     1.0000 0.99920  0.56910  0.40590  Biso   1.000  H
  C107     1.0000 0.11340  0.47370  0.59100  Biso   1.000  C
  C108     1.0000 0.10690  0.52760  0.61300  Biso   1.000  C
  H110     1.0000 0.11100  0.51830  0.65970  Biso   1.000  H
  C109     1.0000 0.09330  0.59910  0.55420  Biso   1.000  C
  H111     1.0000 0.08780  0.64610  0.55410  Biso   1.000  H
  C110     1.0000 0.08930  0.58860  0.49720  Biso   1.000  C
  C111     1.0000 0.07210  0.64610  0.42190  Biso   1.000  C
  C112     1.0000 0.99700  0.66550  0.40570  Biso   1.000  C
  C113     1.0000 0.94020  0.73080  0.39520  Biso   1.000  C
  H112     1.0000 0.94070  0.77560  0.39560  Biso   1.000  H
  C114     1.0000 0.88000  0.72040  0.38360  Biso   1.000  C
  H113     1.0000 0.83350  0.75640  0.37520  Biso   1.000  H
  C115     1.0000 0.90210  0.64860  0.38690  Biso   1.000  C
  C116     1.0000 0.86150  0.61270  0.37080  Biso   1.000  C
  C117     1.0000 0.08140  0.72030  0.41110  Biso   1.000  C
  H114     1.0000 0.13120  0.71030  0.41540  Biso   1.000  H
  H115     1.0000 0.06460  0.76060  0.36460  Biso   1.000  H
  H116     1.0000 0.05420  0.73680  0.44650  Biso   1.000  H
  C118     1.0000 0.78300  0.64430  0.39130  Biso   1.000  C
  H117     1.0000 0.76260  0.69900  0.36060  Biso   1.000  H
  H118     1.0000 0.75670  0.61690  0.38640  Biso   1.000  H
  H119     1.0000 0.78030  0.63690  0.43980  Biso   1.000  H
  C119     1.0000 0.86630  0.63690  0.29140  Biso   1.000  C
  H120     1.0000 0.91350  0.60950  0.27950  Biso   1.000  H
  H121     1.0000 0.83160  0.62450  0.27780  Biso   1.000  H
  H122     1.0000 0.85670  0.69220  0.26650  Biso   1.000  H
  C120     1.0000 0.12380  0.61990  0.36980  Biso   1.000  C
  C121     1.0000 0.19490  0.57920  0.38670  Biso   1.000  C
  H123     1.0000 0.21040  0.56180  0.43240  Biso   1.000  H
  C122     1.0000 0.24290  0.56410  0.33700  Biso   1.000  C
  H124     1.0000 0.29120  0.53670  0.34900  Biso   1.000  H
  C123     1.0000 0.22160  0.58830  0.27070  Biso   1.000  C
  C124     1.0000 0.15150  0.62760  0.25360  Biso   1.000  C
  H125     1.0000 0.13640  0.64410  0.20800  Biso   1.000  H
  C125     1.0000 0.10250  0.64320  0.30310  Biso   1.000  C
  H126     1.0000 0.05420  0.67010  0.29100  Biso   1.000  H
  C126     1.0000 0.27430  0.57190  0.21670  Biso   1.000  C
  O16      1.0000 0.66901  0.35387  0.00357  Biso   1.000  O
  O17      1.0000 0.63910  0.26840  0.10101  Biso   1.000  O
  C127     1.0000 0.09230  0.09950  0.05630  Biso   1.000  C
  H127     1.0000 0.11520  0.09240  0.09450  Biso   1.000  H
  N15      1.0000 0.95220  0.97700  0.10890  Biso   1.000  N
  H128     1.0000 0.93160  0.00660  0.06790  Biso   1.000  H
  C128     1.0000 0.11960  0.11240  0.98930  Biso   1.000  C
  H129     1.0000 0.16420  0.11720  0.97390  Biso   1.000  H
  C129     1.0000 0.07190  0.11700  0.94880  Biso   1.000  C
  N16      1.0000 0.01500  0.10880  0.98980  Biso   1.000  N
  H130     1.0000 0.97680  0.10950  0.97660  Biso   1.000  H
  C130     1.0000 0.02580  0.09910  0.05630  Biso   1.000  C
  C131     1.0000 0.97440  0.08220  0.11470  Biso   1.000  C
  C132     1.0000 0.97790  0.99990  0.14260  Biso   1.000  C
  C133     1.0000 0.00810  0.93530  0.20500  Biso   1.000  C
  H131     1.0000 0.03160  0.93420  0.23950  Biso   1.000  H
  C134     1.0000 0.99670  0.87420  0.20590  Biso   1.000  C
  H132     1.0000 0.01080  0.82350  0.24200  Biso   1.000  H
  C135     1.0000 0.96190  0.89860  0.14690  Biso   1.000  C
  C136     1.0000 0.92860  0.85950  0.12670  Biso   1.000  C
  C137     1.0000 0.89820  0.13690  0.09670  Biso   1.000  C
  C138     1.0000 0.84320  0.11410  0.13700  Biso   1.000  C
  H133     1.0000 0.85330  0.06400  0.17390  Biso   1.000  H
  C139     1.0000 0.77500  0.16330  0.12350  Biso   1.000  C
  H134     1.0000 0.73840  0.14760  0.15230  Biso   1.000  H
  C140     1.0000 0.75880  0.23560  0.06860  Biso   1.000  C
  C141     1.0000 0.81300  0.25880  0.02560  Biso   1.000  C
  H135     1.0000 0.80200  0.30800  0.98740  Biso   1.000  H
  C142     1.0000 0.88210  0.21000  0.03900  Biso   1.000  C
  H136     1.0000 0.91870  0.22550  0.00980  Biso   1.000  H
  C143     1.0000 0.68490  0.28760  0.05660  Biso   1.000  C
  C144     1.0000 0.99530  0.09310  0.17340  Biso   1.000  C
  H137     1.0000 0.00750  0.13950  0.15290  Biso   1.000  H
  H138     1.0000 0.95590  0.09810  0.20570  Biso   1.000  H
  H139     1.0000 0.03600  0.04870  0.19860  Biso   1.000  H
  C145     1.0000 0.85100  0.87700  0.15820  Biso   1.000  C
  H140     1.0000 0.82780  0.84810  0.15130  Biso   1.000  H
  H141     1.0000 0.85340  0.86180  0.20820  Biso   1.000  H
  H142     1.0000 0.82420  0.93190  0.13450  Biso   1.000  H
  C146     1.0000 0.96740  0.77210  0.16450  Biso   1.000  C
  H143     1.0000 0.01330  0.75820  0.14250  Biso   1.000  H
  H144     1.0000 0.97400  0.75750  0.21360  Biso   1.000  H
  H145     1.0000 0.93950  0.74530  0.16130  Biso   1.000  H
  O18      1.0000 0.49431  0.47167  0.14839  Biso   1.000  O
  O19      1.0000 0.56260  0.35174  0.20446  Biso   1.000  O
  N17      1.0000 0.51210  0.59080  0.39301  Biso   1.000  N
  H146     1.0000 0.49350  0.55490  0.40900  Biso   1.000  H
  N18      1.0000 0.60590  0.40690  0.49237  Biso   1.000  N
  H147     1.0000 0.56470  0.41360  0.47980  Biso   1.000  H
  C147     1.0000 0.47580  0.66520  0.38270  Biso   1.000  C
  C148     1.0000 0.52330  0.70250  0.35840  Biso   1.000  C
  H148     1.0000 0.51330  0.75480  0.34690  Biso   1.000  H
  C149     1.0000 0.59030  0.64890  0.35360  Biso   1.000  C
  H149     1.0000 0.63280  0.65890  0.33840  Biso   1.000  H
  C150     1.0000 0.58180  0.58010  0.37480  Biso   1.000  C
  C151     1.0000 0.63290  0.50550  0.37550  Biso   1.000  C
  C152     1.0000 0.65070  0.44410  0.44940  Biso   1.000  C
  C153     1.0000 0.70950  0.41770  0.48800  Biso   1.000  C
  H150     1.0000 0.74950  0.43280  0.47220  Biso   1.000  H
  C154     1.0000 0.69920  0.36410  0.55570  Biso   1.000  C
  H151     1.0000 0.73140  0.33690  0.59340  Biso   1.000  H
  C155     1.0000 0.63500  0.35800  0.55760  Biso   1.000  C
  C156     1.0000 0.60290  0.30270  0.61510  Biso   1.000  C
  C157     1.0000 0.70170  0.51810  0.33880  Biso   1.000  C
  H152     1.0000 0.72170  0.53490  0.36390  Biso   1.000  H
  H153     1.0000 0.73550  0.47010  0.33870  Biso   1.000  H
  H154     1.0000 0.69130  0.55740  0.29070  Biso   1.000  H
  C158     1.0000 0.63020  0.28410  0.68630  Biso   1.000  C
  H155     1.0000 0.60760  0.25120  0.72440  Biso   1.000  H
  H156     1.0000 0.68120  0.25750  0.68880  Biso   1.000  H
  H157     1.0000 0.61900  0.33180  0.69030  Biso   1.000  H
  C159     1.0000 0.62720  0.22880  0.60700  Biso   1.000  C
  H158     1.0000 0.61340  0.24010  0.56090  Biso   1.000  H
  H159     1.0000 0.67840  0.20510  0.61160  Biso   1.000  H
  H160     1.0000 0.60530  0.19370  0.64320  Biso   1.000  H
  C160     1.0000 0.60420  0.48140  0.33230  Biso   1.000  C
  C161     1.0000 0.62990  0.40610  0.34110  Biso   1.000  C
  H161     1.0000 0.66330  0.36800  0.37660  Biso   1.000  H
  C162     1.0000 0.60720  0.38590  0.29850  Biso   1.000  C
  H162     1.0000 0.62590  0.33420  0.30490  Biso   1.000  H
  C163     1.0000 0.55720  0.44010  0.24620  Biso   1.000  C
  C164     1.0000 0.53220  0.51520  0.23720  Biso   1.000  C
  H163     1.0000 0.49840  0.55310  0.20200  Biso   1.000  H
  C165     1.0000 0.55550  0.53610  0.27850  Biso   1.000  C
  H164     1.0000 0.53840  0.58830  0.27040  Biso   1.000  H
  C166     1.0000 0.53680  0.41870  0.19890  Biso   1.000  C
  O20      1.0000 0.46150  0.33546  0.13250  Biso   1.000  O
  O21      1.0000 0.38290  0.40659  0.18300  Biso   1.000  O
  N19      1.0000 0.38880  0.08850  0.48820  Biso   1.000  N
  H165     1.0000 0.42700  0.09850  0.46840  Biso   1.000  H
  N20      1.0000 0.48590  0.98670  0.40190  Biso   1.000  N
  H166     1.0000 0.50130  0.01910  0.40410  Biso   1.000  H
  C167     1.0000 0.36330  0.08560  0.55310  Biso   1.000  C
  C168     1.0000 0.30510  0.06670  0.56460  Biso   1.000  C
  H167     1.0000 0.27660  0.05990  0.60520  Biso   1.000  H
  C169     1.0000 0.29330  0.05850  0.50550  Biso   1.000  C
  H168     1.0000 0.25630  0.04540  0.50000  Biso   1.000  H
  C170     1.0000 0.34560  0.07330  0.45930  Biso   1.000  C
  C171     1.0000 0.35980  0.07190  0.38830  Biso   1.000  C
  C172     1.0000 0.41740  0.00080  0.39250  Biso   1.000  C
  C173     1.0000 0.41600  0.93500  0.39190  Biso   1.000  C
  H169     1.0000 0.37570  0.92730  0.38620  Biso   1.000  H
  C174     1.0000 0.48360  0.88390  0.40120  Biso   1.000  C
  H170     1.0000 0.49780  0.83430  0.40310  Biso   1.000  H
  C175     1.0000 0.52770  0.91550  0.40750  Biso   1.000  C
  C176     1.0000 0.60420  0.88930  0.40810  Biso   1.000  C
  C177     1.0000 0.29150  0.07620  0.36370  Biso   1.000  C
  H171     1.0000 0.27780  0.03290  0.39800  Biso   1.000  H
  H172     1.0000 0.25390  0.12420  0.35920  Biso   1.000  H
  H173     1.0000 0.29980  0.07410  0.31850  Biso   1.000  H
  C178     1.0000 0.63540  0.80040  0.44190  Biso   1.000  C
  H174     1.0000 0.62520  0.78160  0.41220  Biso   1.000  H
  H175     1.0000 0.68630  0.78340  0.44680  Biso   1.000  H
  H176     1.0000 0.61430  0.78020  0.48800  Biso   1.000  H
  C179     1.0000 0.63210  0.91900  0.33090  Biso   1.000  C
  H177     1.0000 0.61190  0.97500  0.30780  Biso   1.000  H
  H178     1.0000 0.68340  0.90280  0.33120  Biso   1.000  H
  H179     1.0000 0.61830  0.89770  0.30570  Biso   1.000  H
  C180     1.0000 0.37580  0.14330  0.33300  Biso   1.000  C
  C181     1.0000 0.41860  0.14100  0.27620  Biso   1.000  C
  H180     1.0000 0.44000  0.09420  0.27210  Biso   1.000  H
  C182     1.0000 0.43050  0.20630  0.22520  Biso   1.000  C
  H181     1.0000 0.45940  0.20400  0.18620  Biso   1.000  H
  C183     1.0000 0.39990  0.27520  0.23100  Biso   1.000  C
  C184     1.0000 0.35600  0.27830  0.28660  Biso   1.000  C
  H182     1.0000 0.33330  0.32550  0.28990  Biso   1.000  H
  C185     1.0000 0.34470  0.21250  0.33760  Biso   1.000  C
  H183     1.0000 0.31530  0.21500  0.37630  Biso   1.000  H
  C186     1.0000 0.41610  0.34440  0.17820  Biso   1.000  C
  O22      1.0000 0.40470  0.63996  0.10566  Biso   1.000  O
  O23      1.0000 0.47650  0.62584  0.01878  Biso   1.000  O
  N21      1.0000 0.59990  0.90960  0.97932  Biso   1.000  N
  H184     1.0000 0.55580  0.91750  0.97380  Biso   1.000  H
  N22      1.0000 0.49240  0.91510  0.11380  Biso   1.000  N
  H185     1.0000 0.47360  0.92120  0.07720  Biso   1.000  H
  C187     1.0000 0.64100  0.94600  0.92890  Biso   1.000  C
  C188     1.0000 0.70550  0.91900  0.95680  Biso   1.000  C
  H186     1.0000 0.74430  0.93430  0.93390  Biso   1.000  H
  C189     1.0000 0.70400  0.86330  0.02720  Biso   1.000  C
  H187     1.0000 0.74190  0.83460  0.05930  Biso   1.000  H
  C190     1.0000 0.63830  0.85840  0.04010  Biso   1.000  C
  C191     1.0000 0.60600  0.81240  0.10630  Biso   1.000  C
  C192     1.0000 0.55810  0.86530  0.13910  Biso   1.000  C
  C193     1.0000 0.56780  0.87290  0.19600  Biso   1.000  C
  H188     1.0000 0.60850  0.84540  0.22450  Biso   1.000  H
  C194     1.0000 0.50590  0.92950  0.20460  Biso   1.000  C
  H189     1.0000 0.49810  0.94680  0.23980  Biso   1.000  H
  C195     1.0000 0.45980  0.95450  0.15370  Biso   1.000  C
  C196     1.0000 0.38300  0.00330  0.14570  Biso   1.000  C
  C197     1.0000 0.66630  0.74990  0.15750  Biso   1.000  C
  H190     1.0000 0.69090  0.77420  0.16970  Biso   1.000  H
  H191     1.0000 0.64700  0.71790  0.19990  Biso   1.000  H
  H192     1.0000 0.69930  0.71820  0.13550  Biso   1.000  H
  C198     1.0000 0.36820  0.05460  0.18330  Biso   1.000  C
  H193     1.0000 0.31830  0.08650  0.17870  Biso   1.000  H
  H194     1.0000 0.38010  0.02240  0.23270  Biso   1.000  H
  H195     1.0000 0.39660  0.08740  0.16220  Biso   1.000  H
  C199     1.0000 0.34010  0.94960  0.18120  Biso   1.000  C
  H196     1.0000 0.34850  0.91760  0.15690  Biso   1.000  H
  H197     1.0000 0.35470  0.91680  0.23000  Biso   1.000  H
  H198     1.0000 0.29000  0.98020  0.17920  Biso   1.000  H
  C200     1.0000 0.56630  0.77160  0.09330  Biso   1.000  C
  C201     1.0000 0.51230  0.75280  0.13830  Biso   1.000  C
  H199     1.0000 0.50000  0.76650  0.17620  Biso   1.000  H
  C202     1.0000 0.47620  0.71410  0.12890  Biso   1.000  C
  H200     1.0000 0.43910  0.70250  0.15960  Biso   1.000  H
  C203     1.0000 0.49460  0.69240  0.07410  Biso   1.000  C
  C204     1.0000 0.54920  0.70980  0.03000  Biso   1.000  C
  H201     1.0000 0.56260  0.69460  0.99310  Biso   1.000  H
  C205     1.0000 0.58490  0.74940  0.03940  Biso   1.000  C
  H202     1.0000 0.62200  0.76110  0.00860  Biso   1.000  H
  C206     1.0000 0.45600  0.65030  0.06530  Biso   1.000  C
  O24      1.0000 0.43497  0.49496  0.02709  Biso   1.000  O
  Pr3      1.0000 0.36837  0.54020  0.11236  Biso   1.000  Pr
  Pr4      1.0000 0.54767  0.39535  0.07407  Biso   1.000  Pr
  O25      1.0000 0.64610  0.43410  0.09110  Biso   1.000  O
  N23      1.0000 0.72860  0.44970  0.13190  Biso   1.000  N
  C207     1.0000 0.66300  0.46920  0.11150  Biso   1.000  C
  C208     1.0000 0.78360  0.37950  0.12840  Biso   1.000  C
  H203     1.0000 0.82850  0.37180  0.14450  Biso   1.000  H
  H204     1.0000 0.78840  0.38570  0.08020  Biso   1.000  H
  H205     1.0000 0.76970  0.33490  0.15820  Biso   1.000  H
  C209     1.0000 0.73930  0.50150  0.15590  Biso   1.000  C
  H206     1.0000 0.78840  0.48230  0.16940  Biso   1.000  H
  H207     1.0000 0.70880  0.50260  0.19600  Biso   1.000  H
  H208     1.0000 0.72750  0.55330  0.11790  Biso   1.000  H
  O26      1.0000 0.64400  0.42060  0.10120  Biso   1.000  O
  N24      1.0000 0.74220  0.39540  0.15230  Biso   1.000  N
  C210     1.0000 0.69110  0.37750  0.14150  Biso   1.000  C
  C211     1.0000 0.73970  0.47540  0.11050  Biso   1.000  C
  H209     1.0000 0.77870  0.48320  0.12250  Biso   1.000  H
  H210     1.0000 0.69510  0.51290  0.11560  Biso   1.000  H
  H211     1.0000 0.74490  0.48190  0.06220  Biso   1.000  H
  C212     1.0000 0.79260  0.32840  0.20570  Biso   1.000  C
  H212     1.0000 0.82820  0.34580  0.21050  Biso   1.000  H
  H213     1.0000 0.81550  0.28380  0.19560  Biso   1.000  H
  H214     1.0000 0.76590  0.31440  0.24930  Biso   1.000  H
