data_image0
_cell_length_a       42.559
_cell_length_b       42.559
_cell_length_c       42.559
_cell_angle_alpha    90
_cell_angle_beta     90
_cell_angle_gamma    90

_symmetry_space_group_name_H-M    "P 1"
_symmetry_int_tables_number       1

loop_
  _symmetry_equiv_pos_as_xyz
  'x, y, z'

loop_
  _atom_site_label
  _atom_site_occupancy
  _atom_site_fract_x
  _atom_site_fract_y
  _atom_site_fract_z
  _atom_site_thermal_displace_type
  _atom_site_B_iso_or_equiv
  _atom_site_type_symbol
  C1       1.0000 0.38171  0.86480  0.94991  Biso   1.000  C
  C2       1.0000 0.38794  0.86715  0.98421  Biso   1.000  C
  C3       1.0000 0.41473  0.88770  0.99428  Biso   1.000  C
  H1       1.0000 0.43220  0.88490  0.98030  Biso   1.000  H
  H2       1.0000 0.42120  0.88190  0.01510  Biso   1.000  H
  C4       1.0000 0.40440  0.92172  0.99380  Biso   1.000  C
  C5       1.0000 0.37590  0.93350  0.99930  Biso   1.000  C
  H3       1.0000 0.35850  0.92120  0.00430  Biso   1.000  H
  C6       1.0000 0.37500  0.96830  0.99670  Biso   1.000  C
  H4       1.0000 0.35710  0.98040  0.99980  Biso   1.000  H
  C7       1.0000 0.40280  0.98020  0.98930  Biso   1.000  C
  H5       1.0000 0.40670  0.00150  0.98650  Biso   1.000  H
  S1       1.0000 0.43055  0.95123  0.98540  Biso   1.000  S
  C8       1.0000 0.36982  0.85007  0.00348  Biso   1.000  C
  H6       1.0000 0.35540  0.83680  0.99380  Biso   1.000  H
  C9       1.0000 0.36984  0.84969  0.03736  Biso   1.000  C
  C10      1.0000 0.37629  0.87212  0.05945  Biso   1.000  C
  H7       1.0000 0.38450  0.89190  0.05510  Biso   1.000  H
  C11      1.0000 0.35754  0.83201  0.08540  Biso   1.000  C
  C12      1.0000 0.34240  0.79624  0.04170  Biso   1.000  C
  C13      1.0000 0.30717  0.80104  0.04071  Biso   1.000  C
  C14      1.0000 0.29374  0.83087  0.04111  Biso   1.000  C
  H8       1.0000 0.30670  0.84850  0.04120  Biso   1.000  H
  C15      1.0000 0.26170  0.83461  0.04139  Biso   1.000  C
  H9       1.0000 0.25310  0.85470  0.04170  Biso   1.000  H
  C16      1.0000 0.24216  0.80872  0.04117  Biso   1.000  C
  C17      1.0000 0.25536  0.77899  0.03988  Biso   1.000  C
  H10      1.0000 0.24240  0.76140  0.03890  Biso   1.000  H
  C18      1.0000 0.28732  0.77529  0.04004  Biso   1.000  C
  H11      1.0000 0.29580  0.75520  0.03970  Biso   1.000  H
  C19      1.0000 0.20775  0.81265  0.04316  Biso   1.000  C
  C20      1.0000 0.34718  0.81112  0.11148  Biso   1.000  C
  H12      1.0000 0.32910  0.79930  0.10480  Biso   1.000  H
  H13      1.0000 0.34110  0.82380  0.12910  Biso   1.000  H
  C21      1.0000 0.37370  0.78800  0.12100  Biso   1.000  C
  H14      1.0000 0.39230  0.79960  0.12730  Biso   1.000  H
  H15      1.0000 0.37920  0.77470  0.10330  Biso   1.000  H
  C22      1.0000 0.36170  0.76760  0.14870  Biso   1.000  C
  H16      1.0000 0.34110  0.75930  0.14360  Biso   1.000  H
  H17      1.0000 0.37580  0.74990  0.15170  Biso   1.000  H
  C23      1.0000 0.35970  0.78640  0.17940  Biso   1.000  C
  H18      1.0000 0.35230  0.77310  0.19600  Biso   1.000  H
  H19      1.0000 0.38020  0.79430  0.18470  Biso   1.000  H
  H20      1.0000 0.34550  0.80370  0.17670  Biso   1.000  H
  N1       1.0000 0.36888  0.86119  0.08910  Biso   1.000  N
  N2       1.0000 0.35794  0.82414  0.05469  Biso   1.000  N
  O1       1.0000 0.40084  0.87671  0.93060  Biso   1.000  O
  O2       1.0000 0.35741  0.85118  0.93945  Biso   1.000  O
  O3       1.0000 0.19883  0.84183  0.04485  Biso   1.000  O
  H21      1.0000 0.18040  0.84740  0.04810  Biso   1.000  H
  O4       1.0000 0.18897  0.79078  0.04289  Biso   1.000  O
  H22      1.0000 0.43330  0.88110  0.98330  Biso   1.000  H
  H23      1.0000 0.41830  0.88430  0.01630  Biso   1.000  H
  C24      1.0000 0.41040  0.92240  0.98950  Biso   1.000  C
  C25      1.0000 0.42990  0.94440  0.97880  Biso   1.000  C
  H24      1.0000 0.45040  0.94050  0.97250  Biso   1.000  H
  C26      1.0000 0.41480  0.97600  0.97830  Biso   1.000  C
  H25      1.0000 0.42480  0.99420  0.97140  Biso   1.000  H
  C27      1.0000 0.38530  0.97540  0.98890  Biso   1.000  C
  H26      1.0000 0.37230  0.99280  0.99050  Biso   1.000  H
  S2       1.0000 0.37477  0.93822  0.99897  Biso   1.000  S
  H27      1.0000 0.33910  0.79200  0.10260  Biso   1.000  H
  H28      1.0000 0.33010  0.82130  0.12220  Biso   1.000  H
  C28      1.0000 0.37330  0.80140  0.13470  Biso   1.000  C
  H29      1.0000 0.38480  0.81980  0.14160  Biso   1.000  H
  H30      1.0000 0.38790  0.78730  0.12450  Biso   1.000  H
  C29      1.0000 0.35770  0.78480  0.16340  Biso   1.000  C
  H31      1.0000 0.34300  0.79910  0.17340  Biso   1.000  H
  H32      1.0000 0.34600  0.76660  0.15630  Biso   1.000  H
  C30      1.0000 0.38260  0.77450  0.18730  Biso   1.000  C
  H33      1.0000 0.37260  0.76430  0.20480  Biso   1.000  H
  H34      1.0000 0.39700  0.76010  0.17750  Biso   1.000  H
  H35      1.0000 0.39390  0.79260  0.19470  Biso   1.000  H
  C31      1.0000 0.88171  0.36480  0.44991  Biso   1.000  C
  C32      1.0000 0.88794  0.36715  0.48421  Biso   1.000  C
  C33      1.0000 0.91473  0.38770  0.49428  Biso   1.000  C
  H36      1.0000 0.93220  0.38490  0.48030  Biso   1.000  H
  H37      1.0000 0.92120  0.38190  0.51510  Biso   1.000  H
  C34      1.0000 0.90440  0.42172  0.49380  Biso   1.000  C
  C35      1.0000 0.87590  0.43350  0.49930  Biso   1.000  C
  H38      1.0000 0.85850  0.42120  0.50430  Biso   1.000  H
  C36      1.0000 0.87500  0.46830  0.49670  Biso   1.000  C
  H39      1.0000 0.85710  0.48040  0.49980  Biso   1.000  H
  C37      1.0000 0.90280  0.48020  0.48930  Biso   1.000  C
  H40      1.0000 0.90670  0.50150  0.48650  Biso   1.000  H
  S3       1.0000 0.93055  0.45123  0.48540  Biso   1.000  S
  C38      1.0000 0.86982  0.35007  0.50348  Biso   1.000  C
  H41      1.0000 0.85540  0.33680  0.49380  Biso   1.000  H
  C39      1.0000 0.86984  0.34969  0.53736  Biso   1.000  C
  C40      1.0000 0.87629  0.37212  0.55945  Biso   1.000  C
  H42      1.0000 0.88450  0.39190  0.55510  Biso   1.000  H
  C41      1.0000 0.85754  0.33201  0.58540  Biso   1.000  C
  C42      1.0000 0.84240  0.29624  0.54170  Biso   1.000  C
  C43      1.0000 0.80717  0.30104  0.54071  Biso   1.000  C
  C44      1.0000 0.79374  0.33087  0.54111  Biso   1.000  C
  H43      1.0000 0.80670  0.34850  0.54120  Biso   1.000  H
  C45      1.0000 0.76170  0.33461  0.54139  Biso   1.000  C
  H44      1.0000 0.75310  0.35470  0.54170  Biso   1.000  H
  C46      1.0000 0.74216  0.30872  0.54117  Biso   1.000  C
  C47      1.0000 0.75536  0.27899  0.53988  Biso   1.000  C
  H45      1.0000 0.74240  0.26140  0.53890  Biso   1.000  H
  C48      1.0000 0.78732  0.27529  0.54004  Biso   1.000  C
  H46      1.0000 0.79580  0.25520  0.53970  Biso   1.000  H
  C49      1.0000 0.70775  0.31265  0.54316  Biso   1.000  C
  C50      1.0000 0.84718  0.31112  0.61148  Biso   1.000  C
  H47      1.0000 0.82910  0.29930  0.60480  Biso   1.000  H
  H48      1.0000 0.84110  0.32380  0.62910  Biso   1.000  H
  C51      1.0000 0.87370  0.28800  0.62100  Biso   1.000  C
  H49      1.0000 0.89230  0.29960  0.62730  Biso   1.000  H
  H50      1.0000 0.87920  0.27470  0.60330  Biso   1.000  H
  C52      1.0000 0.86170  0.26760  0.64870  Biso   1.000  C
  H51      1.0000 0.84110  0.25930  0.64360  Biso   1.000  H
  H52      1.0000 0.87580  0.24990  0.65170  Biso   1.000  H
  C53      1.0000 0.85970  0.28640  0.67940  Biso   1.000  C
  H53      1.0000 0.85230  0.27310  0.69600  Biso   1.000  H
  H54      1.0000 0.88020  0.29430  0.68470  Biso   1.000  H
  H55      1.0000 0.84550  0.30370  0.67670  Biso   1.000  H
  N3       1.0000 0.86888  0.36119  0.58910  Biso   1.000  N
  N4       1.0000 0.85794  0.32414  0.55469  Biso   1.000  N
  O5       1.0000 0.90084  0.37671  0.43060  Biso   1.000  O
  O6       1.0000 0.85741  0.35118  0.43945  Biso   1.000  O
  O7       1.0000 0.69883  0.34183  0.54485  Biso   1.000  O
  H56      1.0000 0.68040  0.34740  0.54810  Biso   1.000  H
  O8       1.0000 0.68897  0.29078  0.54289  Biso   1.000  O
  H57      1.0000 0.93330  0.38110  0.48330  Biso   1.000  H
  H58      1.0000 0.91830  0.38430  0.51630  Biso   1.000  H
  C54      1.0000 0.91040  0.42240  0.48950  Biso   1.000  C
  C55      1.0000 0.92990  0.44440  0.47880  Biso   1.000  C
  H59      1.0000 0.95040  0.44050  0.47250  Biso   1.000  H
  C56      1.0000 0.91480  0.47600  0.47830  Biso   1.000  C
  H60      1.0000 0.92480  0.49420  0.47140  Biso   1.000  H
  C57      1.0000 0.88530  0.47540  0.48890  Biso   1.000  C
  H61      1.0000 0.87230  0.49280  0.49050  Biso   1.000  H
  S4       1.0000 0.87477  0.43822  0.49897  Biso   1.000  S
  H62      1.0000 0.83910  0.29200  0.60260  Biso   1.000  H
  H63      1.0000 0.83010  0.32130  0.62220  Biso   1.000  H
  C58      1.0000 0.87330  0.30140  0.63470  Biso   1.000  C
  H64      1.0000 0.88480  0.31980  0.64160  Biso   1.000  H
  H65      1.0000 0.88790  0.28730  0.62450  Biso   1.000  H
  C59      1.0000 0.85770  0.28480  0.66340  Biso   1.000  C
  H66      1.0000 0.84300  0.29910  0.67340  Biso   1.000  H
  H67      1.0000 0.84600  0.26660  0.65630  Biso   1.000  H
  C60      1.0000 0.88260  0.27450  0.68730  Biso   1.000  C
  H68      1.0000 0.87260  0.26430  0.70480  Biso   1.000  H
  H69      1.0000 0.89700  0.26010  0.67750  Biso   1.000  H
  H70      1.0000 0.89390  0.29260  0.69470  Biso   1.000  H
  C61      1.0000 0.11829  0.13520  0.44991  Biso   1.000  C
  C62      1.0000 0.11206  0.13285  0.48421  Biso   1.000  C
  C63      1.0000 0.08527  0.11230  0.49428  Biso   1.000  C
  H71      1.0000 0.06780  0.11510  0.48030  Biso   1.000  H
  H72      1.0000 0.07880  0.11810  0.51510  Biso   1.000  H
  C64      1.0000 0.09560  0.07828  0.49380  Biso   1.000  C
  C65      1.0000 0.12410  0.06650  0.49930  Biso   1.000  C
  H73      1.0000 0.14150  0.07880  0.50430  Biso   1.000  H
  C66      1.0000 0.12500  0.03170  0.49670  Biso   1.000  C
  H74      1.0000 0.14290  0.01960  0.49980  Biso   1.000  H
  C67      1.0000 0.09720  0.01980  0.48930  Biso   1.000  C
  H75      1.0000 0.09330  0.99850  0.48650  Biso   1.000  H
  S5       1.0000 0.06945  0.04877  0.48540  Biso   1.000  S
  C68      1.0000 0.13018  0.14993  0.50348  Biso   1.000  C
  H76      1.0000 0.14460  0.16320  0.49380  Biso   1.000  H
  C69      1.0000 0.13016  0.15031  0.53736  Biso   1.000  C
  C70      1.0000 0.12371  0.12788  0.55945  Biso   1.000  C
  H77      1.0000 0.11550  0.10810  0.55510  Biso   1.000  H
  C71      1.0000 0.14246  0.16799  0.58540  Biso   1.000  C
  C72      1.0000 0.15760  0.20376  0.54170  Biso   1.000  C
  C73      1.0000 0.19283  0.19896  0.54071  Biso   1.000  C
  C74      1.0000 0.20626  0.16913  0.54111  Biso   1.000  C
  H78      1.0000 0.19330  0.15150  0.54120  Biso   1.000  H
  C75      1.0000 0.23830  0.16539  0.54139  Biso   1.000  C
  H79      1.0000 0.24690  0.14530  0.54170  Biso   1.000  H
  C76      1.0000 0.25784  0.19128  0.54117  Biso   1.000  C
  C77      1.0000 0.24464  0.22101  0.53988  Biso   1.000  C
  H80      1.0000 0.25760  0.23860  0.53890  Biso   1.000  H
  C78      1.0000 0.21268  0.22471  0.54004  Biso   1.000  C
  H81      1.0000 0.20420  0.24480  0.53970  Biso   1.000  H
  C79      1.0000 0.29225  0.18735  0.54316  Biso   1.000  C
  C80      1.0000 0.15282  0.18888  0.61148  Biso   1.000  C
  H82      1.0000 0.17090  0.20070  0.60480  Biso   1.000  H
  H83      1.0000 0.15890  0.17620  0.62910  Biso   1.000  H
  C81      1.0000 0.12630  0.21200  0.62100  Biso   1.000  C
  H84      1.0000 0.10770  0.20040  0.62730  Biso   1.000  H
  H85      1.0000 0.12080  0.22530  0.60330  Biso   1.000  H
  C82      1.0000 0.13830  0.23240  0.64870  Biso   1.000  C
  H86      1.0000 0.15890  0.24070  0.64360  Biso   1.000  H
  H87      1.0000 0.12420  0.25010  0.65170  Biso   1.000  H
  C83      1.0000 0.14030  0.21360  0.67940  Biso   1.000  C
  H88      1.0000 0.14770  0.22690  0.69600  Biso   1.000  H
  H89      1.0000 0.11980  0.20570  0.68470  Biso   1.000  H
  H90      1.0000 0.15450  0.19630  0.67670  Biso   1.000  H
  N5       1.0000 0.13112  0.13881  0.58910  Biso   1.000  N
  N6       1.0000 0.14206  0.17586  0.55469  Biso   1.000  N
  O9       1.0000 0.09916  0.12329  0.43060  Biso   1.000  O
  O10      1.0000 0.14259  0.14882  0.43945  Biso   1.000  O
  O11      1.0000 0.30117  0.15817  0.54485  Biso   1.000  O
  H91      1.0000 0.31960  0.15260  0.54810  Biso   1.000  H
  O12      1.0000 0.31103  0.20922  0.54289  Biso   1.000  O
  H92      1.0000 0.06670  0.11890  0.48330  Biso   1.000  H
  H93      1.0000 0.08170  0.11570  0.51630  Biso   1.000  H
  C84      1.0000 0.08960  0.07760  0.48950  Biso   1.000  C
  C85      1.0000 0.07010  0.05560  0.47880  Biso   1.000  C
  H94      1.0000 0.04960  0.05950  0.47250  Biso   1.000  H
  C86      1.0000 0.08520  0.02400  0.47830  Biso   1.000  C
  H95      1.0000 0.07520  0.00580  0.47140  Biso   1.000  H
  C87      1.0000 0.11470  0.02460  0.48890  Biso   1.000  C
  H96      1.0000 0.12770  0.00720  0.49050  Biso   1.000  H
  S6       1.0000 0.12523  0.06178  0.49897  Biso   1.000  S
  H97      1.0000 0.16090  0.20800  0.60260  Biso   1.000  H
  H98      1.0000 0.16990  0.17870  0.62220  Biso   1.000  H
  C88      1.0000 0.12670  0.19860  0.63470  Biso   1.000  C
  H99      1.0000 0.11520  0.18020  0.64160  Biso   1.000  H
  H100     1.0000 0.11210  0.21270  0.62450  Biso   1.000  H
  C89      1.0000 0.14230  0.21520  0.66340  Biso   1.000  C
  H101     1.0000 0.15700  0.20090  0.67340  Biso   1.000  H
  H102     1.0000 0.15400  0.23340  0.65630  Biso   1.000  H
  C90      1.0000 0.11740  0.22550  0.68730  Biso   1.000  C
  H103     1.0000 0.12740  0.23570  0.70480  Biso   1.000  H
  H104     1.0000 0.10300  0.23990  0.67750  Biso   1.000  H
  H105     1.0000 0.10610  0.20740  0.69470  Biso   1.000  H
  C91      1.0000 0.61829  0.63520  0.94991  Biso   1.000  C
  C92      1.0000 0.61206  0.63285  0.98421  Biso   1.000  C
  C93      1.0000 0.58527  0.61230  0.99428  Biso   1.000  C
  H106     1.0000 0.56780  0.61510  0.98030  Biso   1.000  H
  H107     1.0000 0.57880  0.61810  0.01510  Biso   1.000  H
  C94      1.0000 0.59560  0.57828  0.99380  Biso   1.000  C
  C95      1.0000 0.62410  0.56650  0.99930  Biso   1.000  C
  H108     1.0000 0.64150  0.57880  0.00430  Biso   1.000  H
  C96      1.0000 0.62500  0.53170  0.99670  Biso   1.000  C
  H109     1.0000 0.64290  0.51960  0.99980  Biso   1.000  H
  C97      1.0000 0.59720  0.51980  0.98930  Biso   1.000  C
  H110     1.0000 0.59330  0.49850  0.98650  Biso   1.000  H
  S7       1.0000 0.56945  0.54877  0.98540  Biso   1.000  S
  C98      1.0000 0.63018  0.64993  0.00348  Biso   1.000  C
  H111     1.0000 0.64460  0.66320  0.99380  Biso   1.000  H
  C99      1.0000 0.63016  0.65031  0.03736  Biso   1.000  C
  C100     1.0000 0.62371  0.62788  0.05945  Biso   1.000  C
  H112     1.0000 0.61550  0.60810  0.05510  Biso   1.000  H
  C101     1.0000 0.64246  0.66799  0.08540  Biso   1.000  C
  C102     1.0000 0.65760  0.70376  0.04170  Biso   1.000  C
  C103     1.0000 0.69283  0.69896  0.04071  Biso   1.000  C
  C104     1.0000 0.70626  0.66913  0.04111  Biso   1.000  C
  H113     1.0000 0.69330  0.65150  0.04120  Biso   1.000  H
  C105     1.0000 0.73830  0.66539  0.04139  Biso   1.000  C
  H114     1.0000 0.74690  0.64530  0.04170  Biso   1.000  H
  C106     1.0000 0.75784  0.69128  0.04117  Biso   1.000  C
  C107     1.0000 0.74464  0.72101  0.03988  Biso   1.000  C
  H115     1.0000 0.75760  0.73860  0.03890  Biso   1.000  H
  C108     1.0000 0.71268  0.72471  0.04004  Biso   1.000  C
  H116     1.0000 0.70420  0.74480  0.03970  Biso   1.000  H
  C109     1.0000 0.79225  0.68735  0.04316  Biso   1.000  C
  C110     1.0000 0.65282  0.68888  0.11148  Biso   1.000  C
  H117     1.0000 0.67090  0.70070  0.10480  Biso   1.000  H
  H118     1.0000 0.65890  0.67620  0.12910  Biso   1.000  H
  C111     1.0000 0.62630  0.71200  0.12100  Biso   1.000  C
  H119     1.0000 0.60770  0.70040  0.12730  Biso   1.000  H
  H120     1.0000 0.62080  0.72530  0.10330  Biso   1.000  H
  C112     1.0000 0.63830  0.73240  0.14870  Biso   1.000  C
  H121     1.0000 0.65890  0.74070  0.14360  Biso   1.000  H
  H122     1.0000 0.62420  0.75010  0.15170  Biso   1.000  H
  C113     1.0000 0.64030  0.71360  0.17940  Biso   1.000  C
  H123     1.0000 0.64770  0.72690  0.19600  Biso   1.000  H
  H124     1.0000 0.61980  0.70570  0.18470  Biso   1.000  H
  H125     1.0000 0.65450  0.69630  0.17670  Biso   1.000  H
  N7       1.0000 0.63112  0.63881  0.08910  Biso   1.000  N
  N8       1.0000 0.64206  0.67586  0.05469  Biso   1.000  N
  O13      1.0000 0.59916  0.62329  0.93060  Biso   1.000  O
  O14      1.0000 0.64259  0.64882  0.93945  Biso   1.000  O
  O15      1.0000 0.80117  0.65817  0.04485  Biso   1.000  O
  H126     1.0000 0.81960  0.65260  0.04810  Biso   1.000  H
  O16      1.0000 0.81103  0.70922  0.04289  Biso   1.000  O
  H127     1.0000 0.56670  0.61890  0.98330  Biso   1.000  H
  H128     1.0000 0.58170  0.61570  0.01630  Biso   1.000  H
  C114     1.0000 0.58960  0.57760  0.98950  Biso   1.000  C
  C115     1.0000 0.57010  0.55560  0.97880  Biso   1.000  C
  H129     1.0000 0.54960  0.55950  0.97250  Biso   1.000  H
  C116     1.0000 0.58520  0.52400  0.97830  Biso   1.000  C
  H130     1.0000 0.57520  0.50580  0.97140  Biso   1.000  H
  C117     1.0000 0.61470  0.52460  0.98890  Biso   1.000  C
  H131     1.0000 0.62770  0.50720  0.99050  Biso   1.000  H
  S8       1.0000 0.62523  0.56178  0.99897  Biso   1.000  S
  H132     1.0000 0.66090  0.70800  0.10260  Biso   1.000  H
  H133     1.0000 0.66990  0.67870  0.12220  Biso   1.000  H
  C118     1.0000 0.62670  0.69860  0.13470  Biso   1.000  C
  H134     1.0000 0.61520  0.68020  0.14160  Biso   1.000  H
  H135     1.0000 0.61210  0.71270  0.12450  Biso   1.000  H
  C119     1.0000 0.64230  0.71520  0.16340  Biso   1.000  C
  H136     1.0000 0.65700  0.70090  0.17340  Biso   1.000  H
  H137     1.0000 0.65400  0.73340  0.15630  Biso   1.000  H
  C120     1.0000 0.61740  0.72550  0.18730  Biso   1.000  C
  H138     1.0000 0.62740  0.73570  0.20480  Biso   1.000  H
  H139     1.0000 0.60300  0.73990  0.17750  Biso   1.000  H
  H140     1.0000 0.60610  0.70740  0.19470  Biso   1.000  H
  C121     1.0000 0.61829  0.36480  0.55009  Biso   1.000  C
  C122     1.0000 0.61206  0.36715  0.51579  Biso   1.000  C
  C123     1.0000 0.58527  0.38770  0.50572  Biso   1.000  C
  H141     1.0000 0.56780  0.38490  0.51970  Biso   1.000  H
  H142     1.0000 0.57880  0.38190  0.48490  Biso   1.000  H
  C124     1.0000 0.59560  0.42172  0.50620  Biso   1.000  C
  C125     1.0000 0.62410  0.43350  0.50070  Biso   1.000  C
  H143     1.0000 0.64150  0.42120  0.49570  Biso   1.000  H
  C126     1.0000 0.62500  0.46830  0.50330  Biso   1.000  C
  H144     1.0000 0.64290  0.48040  0.50020  Biso   1.000  H
  C127     1.0000 0.59720  0.48020  0.51070  Biso   1.000  C
  H145     1.0000 0.59330  0.50150  0.51350  Biso   1.000  H
  S9       1.0000 0.56945  0.45123  0.51460  Biso   1.000  S
  C128     1.0000 0.63018  0.35007  0.49652  Biso   1.000  C
  H146     1.0000 0.64460  0.33680  0.50620  Biso   1.000  H
  C129     1.0000 0.63016  0.34969  0.46264  Biso   1.000  C
  C130     1.0000 0.62371  0.37212  0.44055  Biso   1.000  C
  H147     1.0000 0.61550  0.39190  0.44490  Biso   1.000  H
  C131     1.0000 0.64246  0.33201  0.41460  Biso   1.000  C
  C132     1.0000 0.65760  0.29624  0.45830  Biso   1.000  C
  C133     1.0000 0.69283  0.30104  0.45929  Biso   1.000  C
  C134     1.0000 0.70626  0.33087  0.45889  Biso   1.000  C
  H148     1.0000 0.69330  0.34850  0.45880  Biso   1.000  H
  C135     1.0000 0.73830  0.33461  0.45861  Biso   1.000  C
  H149     1.0000 0.74690  0.35470  0.45830  Biso   1.000  H
  C136     1.0000 0.75784  0.30872  0.45883  Biso   1.000  C
  C137     1.0000 0.74464  0.27899  0.46012  Biso   1.000  C
  H150     1.0000 0.75760  0.26140  0.46110  Biso   1.000  H
  C138     1.0000 0.71268  0.27529  0.45996  Biso   1.000  C
  H151     1.0000 0.70420  0.25520  0.46030  Biso   1.000  H
  C139     1.0000 0.79225  0.31265  0.45684  Biso   1.000  C
  C140     1.0000 0.65282  0.31112  0.38852  Biso   1.000  C
  H152     1.0000 0.67090  0.29930  0.39520  Biso   1.000  H
  H153     1.0000 0.65890  0.32380  0.37090  Biso   1.000  H
  C141     1.0000 0.62630  0.28800  0.37900  Biso   1.000  C
  H154     1.0000 0.60770  0.29960  0.37270  Biso   1.000  H
  H155     1.0000 0.62080  0.27470  0.39670  Biso   1.000  H
  C142     1.0000 0.63830  0.26760  0.35130  Biso   1.000  C
  H156     1.0000 0.65890  0.25930  0.35640  Biso   1.000  H
  H157     1.0000 0.62420  0.24990  0.34830  Biso   1.000  H
  C143     1.0000 0.64030  0.28640  0.32060  Biso   1.000  C
  H158     1.0000 0.64770  0.27310  0.30400  Biso   1.000  H
  H159     1.0000 0.61980  0.29430  0.31530  Biso   1.000  H
  H160     1.0000 0.65450  0.30370  0.32330  Biso   1.000  H
  N9       1.0000 0.63112  0.36119  0.41090  Biso   1.000  N
  N10      1.0000 0.64206  0.32414  0.44531  Biso   1.000  N
  O17      1.0000 0.59916  0.37671  0.56940  Biso   1.000  O
  O18      1.0000 0.64259  0.35118  0.56055  Biso   1.000  O
  O19      1.0000 0.80117  0.34183  0.45515  Biso   1.000  O
  H161     1.0000 0.81960  0.34740  0.45190  Biso   1.000  H
  O20      1.0000 0.81103  0.29078  0.45711  Biso   1.000  O
  H162     1.0000 0.56670  0.38110  0.51670  Biso   1.000  H
  H163     1.0000 0.58170  0.38430  0.48370  Biso   1.000  H
  C144     1.0000 0.58960  0.42240  0.51050  Biso   1.000  C
  C145     1.0000 0.57010  0.44440  0.52120  Biso   1.000  C
  H164     1.0000 0.54960  0.44050  0.52750  Biso   1.000  H
  C146     1.0000 0.58520  0.47600  0.52170  Biso   1.000  C
  H165     1.0000 0.57520  0.49420  0.52860  Biso   1.000  H
  C147     1.0000 0.61470  0.47540  0.51110  Biso   1.000  C
  H166     1.0000 0.62770  0.49280  0.50950  Biso   1.000  H
  S10      1.0000 0.62523  0.43822  0.50103  Biso   1.000  S
  H167     1.0000 0.66090  0.29200  0.39740  Biso   1.000  H
  H168     1.0000 0.66990  0.32130  0.37780  Biso   1.000  H
  C148     1.0000 0.62670  0.30140  0.36530  Biso   1.000  C
  H169     1.0000 0.61520  0.31980  0.35840  Biso   1.000  H
  H170     1.0000 0.61210  0.28730  0.37550  Biso   1.000  H
  C149     1.0000 0.64230  0.28480  0.33660  Biso   1.000  C
  H171     1.0000 0.65700  0.29910  0.32660  Biso   1.000  H
  H172     1.0000 0.65400  0.26660  0.34370  Biso   1.000  H
  C150     1.0000 0.61740  0.27450  0.31270  Biso   1.000  C
  H173     1.0000 0.62740  0.26430  0.29520  Biso   1.000  H
  H174     1.0000 0.60300  0.26010  0.32250  Biso   1.000  H
  H175     1.0000 0.60610  0.29260  0.30530  Biso   1.000  H
  C151     1.0000 0.11829  0.86480  0.05009  Biso   1.000  C
  C152     1.0000 0.11206  0.86715  0.01579  Biso   1.000  C
  C153     1.0000 0.08527  0.88770  0.00572  Biso   1.000  C
  H176     1.0000 0.06780  0.88490  0.01970  Biso   1.000  H
  H177     1.0000 0.07880  0.88190  0.98490  Biso   1.000  H
  C154     1.0000 0.09560  0.92172  0.00620  Biso   1.000  C
  C155     1.0000 0.12410  0.93350  0.00070  Biso   1.000  C
  H178     1.0000 0.14150  0.92120  0.99570  Biso   1.000  H
  C156     1.0000 0.12500  0.96830  0.00330  Biso   1.000  C
  H179     1.0000 0.14290  0.98040  0.00020  Biso   1.000  H
  C157     1.0000 0.09720  0.98020  0.01070  Biso   1.000  C
  H180     1.0000 0.09330  0.00150  0.01350  Biso   1.000  H
  S11      1.0000 0.06945  0.95123  0.01460  Biso   1.000  S
  C158     1.0000 0.13018  0.85007  0.99652  Biso   1.000  C
  H181     1.0000 0.14460  0.83680  0.00620  Biso   1.000  H
  C159     1.0000 0.13016  0.84969  0.96264  Biso   1.000  C
  C160     1.0000 0.12371  0.87212  0.94055  Biso   1.000  C
  H182     1.0000 0.11550  0.89190  0.94490  Biso   1.000  H
  C161     1.0000 0.14246  0.83201  0.91460  Biso   1.000  C
  C162     1.0000 0.15760  0.79624  0.95830  Biso   1.000  C
  C163     1.0000 0.19283  0.80104  0.95929  Biso   1.000  C
  C164     1.0000 0.20626  0.83087  0.95889  Biso   1.000  C
  H183     1.0000 0.19330  0.84850  0.95880  Biso   1.000  H
  C165     1.0000 0.23830  0.83461  0.95861  Biso   1.000  C
  H184     1.0000 0.24690  0.85470  0.95830  Biso   1.000  H
  C166     1.0000 0.25784  0.80872  0.95883  Biso   1.000  C
  C167     1.0000 0.24464  0.77899  0.96012  Biso   1.000  C
  H185     1.0000 0.25760  0.76140  0.96110  Biso   1.000  H
  C168     1.0000 0.21268  0.77529  0.95996  Biso   1.000  C
  H186     1.0000 0.20420  0.75520  0.96030  Biso   1.000  H
  C169     1.0000 0.29225  0.81265  0.95684  Biso   1.000  C
  C170     1.0000 0.15282  0.81112  0.88852  Biso   1.000  C
  H187     1.0000 0.17090  0.79930  0.89520  Biso   1.000  H
  H188     1.0000 0.15890  0.82380  0.87090  Biso   1.000  H
  C171     1.0000 0.12630  0.78800  0.87900  Biso   1.000  C
  H189     1.0000 0.10770  0.79960  0.87270  Biso   1.000  H
  H190     1.0000 0.12080  0.77470  0.89670  Biso   1.000  H
  C172     1.0000 0.13830  0.76760  0.85130  Biso   1.000  C
  H191     1.0000 0.15890  0.75930  0.85640  Biso   1.000  H
  H192     1.0000 0.12420  0.74990  0.84830  Biso   1.000  H
  C173     1.0000 0.14030  0.78640  0.82060  Biso   1.000  C
  H193     1.0000 0.14770  0.77310  0.80400  Biso   1.000  H
  H194     1.0000 0.11980  0.79430  0.81530  Biso   1.000  H
  H195     1.0000 0.15450  0.80370  0.82330  Biso   1.000  H
  N11      1.0000 0.13112  0.86119  0.91090  Biso   1.000  N
  N12      1.0000 0.14206  0.82414  0.94531  Biso   1.000  N
  O21      1.0000 0.09916  0.87671  0.06940  Biso   1.000  O
  O22      1.0000 0.14259  0.85118  0.06055  Biso   1.000  O
  O23      1.0000 0.30117  0.84183  0.95515  Biso   1.000  O
  H196     1.0000 0.31960  0.84740  0.95190  Biso   1.000  H
  O24      1.0000 0.31103  0.79078  0.95711  Biso   1.000  O
  H197     1.0000 0.06670  0.88110  0.01670  Biso   1.000  H
  H198     1.0000 0.08170  0.88430  0.98370  Biso   1.000  H
  C174     1.0000 0.08960  0.92240  0.01050  Biso   1.000  C
  C175     1.0000 0.07010  0.94440  0.02120  Biso   1.000  C
  H199     1.0000 0.04960  0.94050  0.02750  Biso   1.000  H
  C176     1.0000 0.08520  0.97600  0.02170  Biso   1.000  C
  H200     1.0000 0.07520  0.99420  0.02860  Biso   1.000  H
  C177     1.0000 0.11470  0.97540  0.01110  Biso   1.000  C
  H201     1.0000 0.12770  0.99280  0.00950  Biso   1.000  H
  S12      1.0000 0.12523  0.93822  0.00103  Biso   1.000  S
  H202     1.0000 0.16090  0.79200  0.89740  Biso   1.000  H
  H203     1.0000 0.16990  0.82130  0.87780  Biso   1.000  H
  C178     1.0000 0.12670  0.80140  0.86530  Biso   1.000  C
  H204     1.0000 0.11520  0.81980  0.85840  Biso   1.000  H
  H205     1.0000 0.11210  0.78730  0.87550  Biso   1.000  H
  C179     1.0000 0.14230  0.78480  0.83660  Biso   1.000  C
  H206     1.0000 0.15700  0.79910  0.82660  Biso   1.000  H
  H207     1.0000 0.15400  0.76660  0.84370  Biso   1.000  H
  C180     1.0000 0.11740  0.77450  0.81270  Biso   1.000  C
  H208     1.0000 0.12740  0.76430  0.79520  Biso   1.000  H
  H209     1.0000 0.10300  0.76010  0.82250  Biso   1.000  H
  H210     1.0000 0.10610  0.79260  0.80530  Biso   1.000  H
  C181     1.0000 0.88171  0.63520  0.05009  Biso   1.000  C
  C182     1.0000 0.88794  0.63285  0.01579  Biso   1.000  C
  C183     1.0000 0.91473  0.61230  0.00572  Biso   1.000  C
  H211     1.0000 0.93220  0.61510  0.01970  Biso   1.000  H
  H212     1.0000 0.92120  0.61810  0.98490  Biso   1.000  H
  C184     1.0000 0.90440  0.57828  0.00620  Biso   1.000  C
  C185     1.0000 0.87590  0.56650  0.00070  Biso   1.000  C
  H213     1.0000 0.85850  0.57880  0.99570  Biso   1.000  H
  C186     1.0000 0.87500  0.53170  0.00330  Biso   1.000  C
  H214     1.0000 0.85710  0.51960  0.00020  Biso   1.000  H
  C187     1.0000 0.90280  0.51980  0.01070  Biso   1.000  C
  H215     1.0000 0.90670  0.49850  0.01350  Biso   1.000  H
  S13      1.0000 0.93055  0.54877  0.01460  Biso   1.000  S
  C188     1.0000 0.86982  0.64993  0.99652  Biso   1.000  C
  H216     1.0000 0.85540  0.66320  0.00620  Biso   1.000  H
  C189     1.0000 0.86984  0.65031  0.96264  Biso   1.000  C
  C190     1.0000 0.87629  0.62788  0.94055  Biso   1.000  C
  H217     1.0000 0.88450  0.60810  0.94490  Biso   1.000  H
  C191     1.0000 0.85754  0.66799  0.91460  Biso   1.000  C
  C192     1.0000 0.84240  0.70376  0.95830  Biso   1.000  C
  C193     1.0000 0.80717  0.69896  0.95929  Biso   1.000  C
  C194     1.0000 0.79374  0.66913  0.95889  Biso   1.000  C
  H218     1.0000 0.80670  0.65150  0.95880  Biso   1.000  H
  C195     1.0000 0.76170  0.66539  0.95861  Biso   1.000  C
  H219     1.0000 0.75310  0.64530  0.95830  Biso   1.000  H
  C196     1.0000 0.74216  0.69128  0.95883  Biso   1.000  C
  C197     1.0000 0.75536  0.72101  0.96012  Biso   1.000  C
  H220     1.0000 0.74240  0.73860  0.96110  Biso   1.000  H
  C198     1.0000 0.78732  0.72471  0.95996  Biso   1.000  C
  H221     1.0000 0.79580  0.74480  0.96030  Biso   1.000  H
  C199     1.0000 0.70775  0.68735  0.95684  Biso   1.000  C
  C200     1.0000 0.84718  0.68888  0.88852  Biso   1.000  C
  H222     1.0000 0.82910  0.70070  0.89520  Biso   1.000  H
  H223     1.0000 0.84110  0.67620  0.87090  Biso   1.000  H
  C201     1.0000 0.87370  0.71200  0.87900  Biso   1.000  C
  H224     1.0000 0.89230  0.70040  0.87270  Biso   1.000  H
  H225     1.0000 0.87920  0.72530  0.89670  Biso   1.000  H
  C202     1.0000 0.86170  0.73240  0.85130  Biso   1.000  C
  H226     1.0000 0.84110  0.74070  0.85640  Biso   1.000  H
  H227     1.0000 0.87580  0.75010  0.84830  Biso   1.000  H
  C203     1.0000 0.85970  0.71360  0.82060  Biso   1.000  C
  H228     1.0000 0.85230  0.72690  0.80400  Biso   1.000  H
  H229     1.0000 0.88020  0.70570  0.81530  Biso   1.000  H
  H230     1.0000 0.84550  0.69630  0.82330  Biso   1.000  H
  N13      1.0000 0.86888  0.63881  0.91090  Biso   1.000  N
  N14      1.0000 0.85794  0.67586  0.94531  Biso   1.000  N
  O25      1.0000 0.90084  0.62329  0.06940  Biso   1.000  O
  O26      1.0000 0.85741  0.64882  0.06055  Biso   1.000  O
  O27      1.0000 0.69883  0.65817  0.95515  Biso   1.000  O
  H231     1.0000 0.68040  0.65260  0.95190  Biso   1.000  H
  O28      1.0000 0.68897  0.70922  0.95711  Biso   1.000  O
  H232     1.0000 0.93330  0.61890  0.01670  Biso   1.000  H
  H233     1.0000 0.91830  0.61570  0.98370  Biso   1.000  H
  C204     1.0000 0.91040  0.57760  0.01050  Biso   1.000  C
  C205     1.0000 0.92990  0.55560  0.02120  Biso   1.000  C
  H234     1.0000 0.95040  0.55950  0.02750  Biso   1.000  H
  C206     1.0000 0.91480  0.52400  0.02170  Biso   1.000  C
  H235     1.0000 0.92480  0.50580  0.02860  Biso   1.000  H
  C207     1.0000 0.88530  0.52460  0.01110  Biso   1.000  C
  H236     1.0000 0.87230  0.50720  0.00950  Biso   1.000  H
  S14      1.0000 0.87477  0.56178  0.00103  Biso   1.000  S
  H237     1.0000 0.83910  0.70800  0.89740  Biso   1.000  H
  H238     1.0000 0.83010  0.67870  0.87780  Biso   1.000  H
  C208     1.0000 0.87330  0.69860  0.86530  Biso   1.000  C
  H239     1.0000 0.88480  0.68020  0.85840  Biso   1.000  H
  H240     1.0000 0.88790  0.71270  0.87550  Biso   1.000  H
  C209     1.0000 0.85770  0.71520  0.83660  Biso   1.000  C
  H241     1.0000 0.84300  0.70090  0.82660  Biso   1.000  H
  H242     1.0000 0.84600  0.73340  0.84370  Biso   1.000  H
  C210     1.0000 0.88260  0.72550  0.81270  Biso   1.000  C
  H243     1.0000 0.87260  0.73570  0.79520  Biso   1.000  H
  H244     1.0000 0.89700  0.73990  0.82250  Biso   1.000  H
  H245     1.0000 0.89390  0.70740  0.80530  Biso   1.000  H
  C211     1.0000 0.38171  0.13520  0.55009  Biso   1.000  C
  C212     1.0000 0.38794  0.13285  0.51579  Biso   1.000  C
  C213     1.0000 0.41473  0.11230  0.50572  Biso   1.000  C
  H246     1.0000 0.43220  0.11510  0.51970  Biso   1.000  H
  H247     1.0000 0.42120  0.11810  0.48490  Biso   1.000  H
  C214     1.0000 0.40440  0.07828  0.50620  Biso   1.000  C
  C215     1.0000 0.37590  0.06650  0.50070  Biso   1.000  C
  H248     1.0000 0.35850  0.07880  0.49570  Biso   1.000  H
  C216     1.0000 0.37500  0.03170  0.50330  Biso   1.000  C
  H249     1.0000 0.35710  0.01960  0.50020  Biso   1.000  H
  C217     1.0000 0.40280  0.01980  0.51070  Biso   1.000  C
  H250     1.0000 0.40670  0.99850  0.51350  Biso   1.000  H
  S15      1.0000 0.43055  0.04877  0.51460  Biso   1.000  S
  C218     1.0000 0.36982  0.14993  0.49652  Biso   1.000  C
  H251     1.0000 0.35540  0.16320  0.50620  Biso   1.000  H
  C219     1.0000 0.36984  0.15031  0.46264  Biso   1.000  C
  C220     1.0000 0.37629  0.12788  0.44055  Biso   1.000  C
  H252     1.0000 0.38450  0.10810  0.44490  Biso   1.000  H
  C221     1.0000 0.35754  0.16799  0.41460  Biso   1.000  C
  C222     1.0000 0.34240  0.20376  0.45830  Biso   1.000  C
  C223     1.0000 0.30717  0.19896  0.45929  Biso   1.000  C
  C224     1.0000 0.29374  0.16913  0.45889  Biso   1.000  C
  H253     1.0000 0.30670  0.15150  0.45880  Biso   1.000  H
  C225     1.0000 0.26170  0.16539  0.45861  Biso   1.000  C
  H254     1.0000 0.25310  0.14530  0.45830  Biso   1.000  H
  C226     1.0000 0.24216  0.19128  0.45883  Biso   1.000  C
  C227     1.0000 0.25536  0.22101  0.46012  Biso   1.000  C
  H255     1.0000 0.24240  0.23860  0.46110  Biso   1.000  H
  C228     1.0000 0.28732  0.22471  0.45996  Biso   1.000  C
  H256     1.0000 0.29580  0.24480  0.46030  Biso   1.000  H
  C229     1.0000 0.20775  0.18735  0.45684  Biso   1.000  C
  C230     1.0000 0.34718  0.18888  0.38852  Biso   1.000  C
  H257     1.0000 0.32910  0.20070  0.39520  Biso   1.000  H
  H258     1.0000 0.34110  0.17620  0.37090  Biso   1.000  H
  C231     1.0000 0.37370  0.21200  0.37900  Biso   1.000  C
  H259     1.0000 0.39230  0.20040  0.37270  Biso   1.000  H
  H260     1.0000 0.37920  0.22530  0.39670  Biso   1.000  H
  C232     1.0000 0.36170  0.23240  0.35130  Biso   1.000  C
  H261     1.0000 0.34110  0.24070  0.35640  Biso   1.000  H
  H262     1.0000 0.37580  0.25010  0.34830  Biso   1.000  H
  C233     1.0000 0.35970  0.21360  0.32060  Biso   1.000  C
  H263     1.0000 0.35230  0.22690  0.30400  Biso   1.000  H
  H264     1.0000 0.38020  0.20570  0.31530  Biso   1.000  H
  H265     1.0000 0.34550  0.19630  0.32330  Biso   1.000  H
  N15      1.0000 0.36888  0.13881  0.41090  Biso   1.000  N
  N16      1.0000 0.35794  0.17586  0.44531  Biso   1.000  N
  O29      1.0000 0.40084  0.12329  0.56940  Biso   1.000  O
  O30      1.0000 0.35741  0.14882  0.56055  Biso   1.000  O
  O31      1.0000 0.19883  0.15817  0.45515  Biso   1.000  O
  H266     1.0000 0.18040  0.15260  0.45190  Biso   1.000  H
  O32      1.0000 0.18897  0.20922  0.45711  Biso   1.000  O
  H267     1.0000 0.43330  0.11890  0.51670  Biso   1.000  H
  H268     1.0000 0.41830  0.11570  0.48370  Biso   1.000  H
  C234     1.0000 0.41040  0.07760  0.51050  Biso   1.000  C
  C235     1.0000 0.42990  0.05560  0.52120  Biso   1.000  C
  H269     1.0000 0.45040  0.05950  0.52750  Biso   1.000  H
  C236     1.0000 0.41480  0.02400  0.52170  Biso   1.000  C
  H270     1.0000 0.42480  0.00580  0.52860  Biso   1.000  H
  C237     1.0000 0.38530  0.02460  0.51110  Biso   1.000  C
  H271     1.0000 0.37230  0.00720  0.50950  Biso   1.000  H
  S16      1.0000 0.37477  0.06178  0.50103  Biso   1.000  S
  H272     1.0000 0.33910  0.20800  0.39740  Biso   1.000  H
  H273     1.0000 0.33010  0.17870  0.37780  Biso   1.000  H
  C238     1.0000 0.37330  0.19860  0.36530  Biso   1.000  C
  H274     1.0000 0.38480  0.18020  0.35840  Biso   1.000  H
  H275     1.0000 0.38790  0.21270  0.37550  Biso   1.000  H
  C239     1.0000 0.35770  0.21520  0.33660  Biso   1.000  C
  H276     1.0000 0.34300  0.20090  0.32660  Biso   1.000  H
  H277     1.0000 0.34600  0.23340  0.34370  Biso   1.000  H
  C240     1.0000 0.38260  0.22550  0.31270  Biso   1.000  C
  H278     1.0000 0.37260  0.23570  0.29520  Biso   1.000  H
  H279     1.0000 0.39700  0.23990  0.32250  Biso   1.000  H
  H280     1.0000 0.39390  0.20740  0.30530  Biso   1.000  H
  C241     1.0000 0.94991  0.38171  0.86480  Biso   1.000  C
  C242     1.0000 0.98421  0.38794  0.86715  Biso   1.000  C
  C243     1.0000 0.99428  0.41473  0.88770  Biso   1.000  C
  H281     1.0000 0.98030  0.43220  0.88490  Biso   1.000  H
  H282     1.0000 0.01510  0.42120  0.88190  Biso   1.000  H
  C244     1.0000 0.99380  0.40440  0.92172  Biso   1.000  C
  C245     1.0000 0.99930  0.37590  0.93350  Biso   1.000  C
  H283     1.0000 0.00430  0.35850  0.92120  Biso   1.000  H
  C246     1.0000 0.99670  0.37500  0.96830  Biso   1.000  C
  H284     1.0000 0.99980  0.35710  0.98040  Biso   1.000  H
  C247     1.0000 0.98930  0.40280  0.98020  Biso   1.000  C
  H285     1.0000 0.98650  0.40670  0.00150  Biso   1.000  H
  S17      1.0000 0.98540  0.43055  0.95123  Biso   1.000  S
  C248     1.0000 0.00348  0.36982  0.85007  Biso   1.000  C
  H286     1.0000 0.99380  0.35540  0.83680  Biso   1.000  H
  C249     1.0000 0.03736  0.36984  0.84969  Biso   1.000  C
  C250     1.0000 0.05945  0.37629  0.87212  Biso   1.000  C
  H287     1.0000 0.05510  0.38450  0.89190  Biso   1.000  H
  C251     1.0000 0.08540  0.35754  0.83201  Biso   1.000  C
  C252     1.0000 0.04170  0.34240  0.79624  Biso   1.000  C
  C253     1.0000 0.04071  0.30717  0.80104  Biso   1.000  C
  C254     1.0000 0.04111  0.29374  0.83087  Biso   1.000  C
  H288     1.0000 0.04120  0.30670  0.84850  Biso   1.000  H
  C255     1.0000 0.04139  0.26170  0.83461  Biso   1.000  C
  H289     1.0000 0.04170  0.25310  0.85470  Biso   1.000  H
  C256     1.0000 0.04117  0.24216  0.80872  Biso   1.000  C
  C257     1.0000 0.03988  0.25536  0.77899  Biso   1.000  C
  H290     1.0000 0.03890  0.24240  0.76140  Biso   1.000  H
  C258     1.0000 0.04004  0.28732  0.77529  Biso   1.000  C
  H291     1.0000 0.03970  0.29580  0.75520  Biso   1.000  H
  C259     1.0000 0.04316  0.20775  0.81265  Biso   1.000  C
  C260     1.0000 0.11148  0.34718  0.81112  Biso   1.000  C
  H292     1.0000 0.10480  0.32910  0.79930  Biso   1.000  H
  H293     1.0000 0.12910  0.34110  0.82380  Biso   1.000  H
  C261     1.0000 0.12100  0.37370  0.78800  Biso   1.000  C
  H294     1.0000 0.12730  0.39230  0.79960  Biso   1.000  H
  H295     1.0000 0.10330  0.37920  0.77470  Biso   1.000  H
  C262     1.0000 0.14870  0.36170  0.76760  Biso   1.000  C
  H296     1.0000 0.14360  0.34110  0.75930  Biso   1.000  H
  H297     1.0000 0.15170  0.37580  0.74990  Biso   1.000  H
  C263     1.0000 0.17940  0.35970  0.78640  Biso   1.000  C
  H298     1.0000 0.19600  0.35230  0.77310  Biso   1.000  H
  H299     1.0000 0.18470  0.38020  0.79430  Biso   1.000  H
  H300     1.0000 0.17670  0.34550  0.80370  Biso   1.000  H
  N17      1.0000 0.08910  0.36888  0.86119  Biso   1.000  N
  N18      1.0000 0.05469  0.35794  0.82414  Biso   1.000  N
  O33      1.0000 0.93060  0.40084  0.87671  Biso   1.000  O
  O34      1.0000 0.93945  0.35741  0.85118  Biso   1.000  O
  O35      1.0000 0.04485  0.19883  0.84183  Biso   1.000  O
  H301     1.0000 0.04810  0.18040  0.84740  Biso   1.000  H
  O36      1.0000 0.04289  0.18897  0.79078  Biso   1.000  O
  H302     1.0000 0.98330  0.43330  0.88110  Biso   1.000  H
  H303     1.0000 0.01630  0.41830  0.88430  Biso   1.000  H
  C264     1.0000 0.98950  0.41040  0.92240  Biso   1.000  C
  C265     1.0000 0.97880  0.42990  0.94440  Biso   1.000  C
  H304     1.0000 0.97250  0.45040  0.94050  Biso   1.000  H
  C266     1.0000 0.97830  0.41480  0.97600  Biso   1.000  C
  H305     1.0000 0.97140  0.42480  0.99420  Biso   1.000  H
  C267     1.0000 0.98890  0.38530  0.97540  Biso   1.000  C
  H306     1.0000 0.99050  0.37230  0.99280  Biso   1.000  H
  S18      1.0000 0.99897  0.37477  0.93822  Biso   1.000  S
  H307     1.0000 0.10260  0.33910  0.79200  Biso   1.000  H
  H308     1.0000 0.12220  0.33010  0.82130  Biso   1.000  H
  C268     1.0000 0.13470  0.37330  0.80140  Biso   1.000  C
  H309     1.0000 0.14160  0.38480  0.81980  Biso   1.000  H
  H310     1.0000 0.12450  0.38790  0.78730  Biso   1.000  H
  C269     1.0000 0.16340  0.35770  0.78480  Biso   1.000  C
  H311     1.0000 0.17340  0.34300  0.79910  Biso   1.000  H
  H312     1.0000 0.15630  0.34600  0.76660  Biso   1.000  H
  C270     1.0000 0.18730  0.38260  0.77450  Biso   1.000  C
  H313     1.0000 0.20480  0.37260  0.76430  Biso   1.000  H
  H314     1.0000 0.17750  0.39700  0.76010  Biso   1.000  H
  H315     1.0000 0.19470  0.39390  0.79260  Biso   1.000  H
  C271     1.0000 0.44991  0.88171  0.36480  Biso   1.000  C
  C272     1.0000 0.48421  0.88794  0.36715  Biso   1.000  C
  C273     1.0000 0.49428  0.91473  0.38770  Biso   1.000  C
  H316     1.0000 0.48030  0.93220  0.38490  Biso   1.000  H
  H317     1.0000 0.51510  0.92120  0.38190  Biso   1.000  H
  C274     1.0000 0.49380  0.90440  0.42172  Biso   1.000  C
  C275     1.0000 0.49930  0.87590  0.43350  Biso   1.000  C
  H318     1.0000 0.50430  0.85850  0.42120  Biso   1.000  H
  C276     1.0000 0.49670  0.87500  0.46830  Biso   1.000  C
  H319     1.0000 0.49980  0.85710  0.48040  Biso   1.000  H
  C277     1.0000 0.48930  0.90280  0.48020  Biso   1.000  C
  H320     1.0000 0.48650  0.90670  0.50150  Biso   1.000  H
  S19      1.0000 0.48540  0.93055  0.45123  Biso   1.000  S
  C278     1.0000 0.50348  0.86982  0.35007  Biso   1.000  C
  H321     1.0000 0.49380  0.85540  0.33680  Biso   1.000  H
  C279     1.0000 0.53736  0.86984  0.34969  Biso   1.000  C
  C280     1.0000 0.55945  0.87629  0.37212  Biso   1.000  C
  H322     1.0000 0.55510  0.88450  0.39190  Biso   1.000  H
  C281     1.0000 0.58540  0.85754  0.33201  Biso   1.000  C
  C282     1.0000 0.54170  0.84240  0.29624  Biso   1.000  C
  C283     1.0000 0.54071  0.80717  0.30104  Biso   1.000  C
  C284     1.0000 0.54111  0.79374  0.33087  Biso   1.000  C
  H323     1.0000 0.54120  0.80670  0.34850  Biso   1.000  H
  C285     1.0000 0.54139  0.76170  0.33461  Biso   1.000  C
  H324     1.0000 0.54170  0.75310  0.35470  Biso   1.000  H
  C286     1.0000 0.54117  0.74216  0.30872  Biso   1.000  C
  C287     1.0000 0.53988  0.75536  0.27899  Biso   1.000  C
  H325     1.0000 0.53890  0.74240  0.26140  Biso   1.000  H
  C288     1.0000 0.54004  0.78732  0.27529  Biso   1.000  C
  H326     1.0000 0.53970  0.79580  0.25520  Biso   1.000  H
  C289     1.0000 0.54316  0.70775  0.31265  Biso   1.000  C
  C290     1.0000 0.61148  0.84718  0.31112  Biso   1.000  C
  H327     1.0000 0.60480  0.82910  0.29930  Biso   1.000  H
  H328     1.0000 0.62910  0.84110  0.32380  Biso   1.000  H
  C291     1.0000 0.62100  0.87370  0.28800  Biso   1.000  C
  H329     1.0000 0.62730  0.89230  0.29960  Biso   1.000  H
  H330     1.0000 0.60330  0.87920  0.27470  Biso   1.000  H
  C292     1.0000 0.64870  0.86170  0.26760  Biso   1.000  C
  H331     1.0000 0.64360  0.84110  0.25930  Biso   1.000  H
  H332     1.0000 0.65170  0.87580  0.24990  Biso   1.000  H
  C293     1.0000 0.67940  0.85970  0.28640  Biso   1.000  C
  H333     1.0000 0.69600  0.85230  0.27310  Biso   1.000  H
  H334     1.0000 0.68470  0.88020  0.29430  Biso   1.000  H
  H335     1.0000 0.67670  0.84550  0.30370  Biso   1.000  H
  N19      1.0000 0.58910  0.86888  0.36119  Biso   1.000  N
  N20      1.0000 0.55469  0.85794  0.32414  Biso   1.000  N
  O37      1.0000 0.43060  0.90084  0.37671  Biso   1.000  O
  O38      1.0000 0.43945  0.85741  0.35118  Biso   1.000  O
  O39      1.0000 0.54485  0.69883  0.34183  Biso   1.000  O
  H336     1.0000 0.54810  0.68040  0.34740  Biso   1.000  H
  O40      1.0000 0.54289  0.68897  0.29078  Biso   1.000  O
  H337     1.0000 0.48330  0.93330  0.38110  Biso   1.000  H
  H338     1.0000 0.51630  0.91830  0.38430  Biso   1.000  H
  C294     1.0000 0.48950  0.91040  0.42240  Biso   1.000  C
  C295     1.0000 0.47880  0.92990  0.44440  Biso   1.000  C
  H339     1.0000 0.47250  0.95040  0.44050  Biso   1.000  H
  C296     1.0000 0.47830  0.91480  0.47600  Biso   1.000  C
  H340     1.0000 0.47140  0.92480  0.49420  Biso   1.000  H
  C297     1.0000 0.48890  0.88530  0.47540  Biso   1.000  C
  H341     1.0000 0.49050  0.87230  0.49280  Biso   1.000  H
  S20      1.0000 0.49897  0.87477  0.43822  Biso   1.000  S
  H342     1.0000 0.60260  0.83910  0.29200  Biso   1.000  H
  H343     1.0000 0.62220  0.83010  0.32130  Biso   1.000  H
  C298     1.0000 0.63470  0.87330  0.30140  Biso   1.000  C
  H344     1.0000 0.64160  0.88480  0.31980  Biso   1.000  H
  H345     1.0000 0.62450  0.88790  0.28730  Biso   1.000  H
  C299     1.0000 0.66340  0.85770  0.28480  Biso   1.000  C
  H346     1.0000 0.67340  0.84300  0.29910  Biso   1.000  H
  H347     1.0000 0.65630  0.84600  0.26660  Biso   1.000  H
  C300     1.0000 0.68730  0.88260  0.27450  Biso   1.000  C
  H348     1.0000 0.70480  0.87260  0.26430  Biso   1.000  H
  H349     1.0000 0.67750  0.89700  0.26010  Biso   1.000  H
  H350     1.0000 0.69470  0.89390  0.29260  Biso   1.000  H
  C301     1.0000 0.44991  0.11829  0.13520  Biso   1.000  C
  C302     1.0000 0.48421  0.11206  0.13285  Biso   1.000  C
  C303     1.0000 0.49428  0.08527  0.11230  Biso   1.000  C
  H351     1.0000 0.48030  0.06780  0.11510  Biso   1.000  H
  H352     1.0000 0.51510  0.07880  0.11810  Biso   1.000  H
  C304     1.0000 0.49380  0.09560  0.07828  Biso   1.000  C
  C305     1.0000 0.49930  0.12410  0.06650  Biso   1.000  C
  H353     1.0000 0.50430  0.14150  0.07880  Biso   1.000  H
  C306     1.0000 0.49670  0.12500  0.03170  Biso   1.000  C
  H354     1.0000 0.49980  0.14290  0.01960  Biso   1.000  H
  C307     1.0000 0.48930  0.09720  0.01980  Biso   1.000  C
  H355     1.0000 0.48650  0.09330  0.99850  Biso   1.000  H
  S21      1.0000 0.48540  0.06945  0.04877  Biso   1.000  S
  C308     1.0000 0.50348  0.13018  0.14993  Biso   1.000  C
  H356     1.0000 0.49380  0.14460  0.16320  Biso   1.000  H
  C309     1.0000 0.53736  0.13016  0.15031  Biso   1.000  C
  C310     1.0000 0.55945  0.12371  0.12788  Biso   1.000  C
  H357     1.0000 0.55510  0.11550  0.10810  Biso   1.000  H
  C311     1.0000 0.58540  0.14246  0.16799  Biso   1.000  C
  C312     1.0000 0.54170  0.15760  0.20376  Biso   1.000  C
  C313     1.0000 0.54071  0.19283  0.19896  Biso   1.000  C
  C314     1.0000 0.54111  0.20626  0.16913  Biso   1.000  C
  H358     1.0000 0.54120  0.19330  0.15150  Biso   1.000  H
  C315     1.0000 0.54139  0.23830  0.16539  Biso   1.000  C
  H359     1.0000 0.54170  0.24690  0.14530  Biso   1.000  H
  C316     1.0000 0.54117  0.25784  0.19128  Biso   1.000  C
  C317     1.0000 0.53988  0.24464  0.22101  Biso   1.000  C
  H360     1.0000 0.53890  0.25760  0.23860  Biso   1.000  H
  C318     1.0000 0.54004  0.21268  0.22471  Biso   1.000  C
  H361     1.0000 0.53970  0.20420  0.24480  Biso   1.000  H
  C319     1.0000 0.54316  0.29225  0.18735  Biso   1.000  C
  C320     1.0000 0.61148  0.15282  0.18888  Biso   1.000  C
  H362     1.0000 0.60480  0.17090  0.20070  Biso   1.000  H
  H363     1.0000 0.62910  0.15890  0.17620  Biso   1.000  H
  C321     1.0000 0.62100  0.12630  0.21200  Biso   1.000  C
  H364     1.0000 0.62730  0.10770  0.20040  Biso   1.000  H
  H365     1.0000 0.60330  0.12080  0.22530  Biso   1.000  H
  C322     1.0000 0.64870  0.13830  0.23240  Biso   1.000  C
  H366     1.0000 0.64360  0.15890  0.24070  Biso   1.000  H
  H367     1.0000 0.65170  0.12420  0.25010  Biso   1.000  H
  C323     1.0000 0.67940  0.14030  0.21360  Biso   1.000  C
  H368     1.0000 0.69600  0.14770  0.22690  Biso   1.000  H
  H369     1.0000 0.68470  0.11980  0.20570  Biso   1.000  H
  H370     1.0000 0.67670  0.15450  0.19630  Biso   1.000  H
  N21      1.0000 0.58910  0.13112  0.13881  Biso   1.000  N
  N22      1.0000 0.55469  0.14206  0.17586  Biso   1.000  N
  O41      1.0000 0.43060  0.09916  0.12329  Biso   1.000  O
  O42      1.0000 0.43945  0.14259  0.14882  Biso   1.000  O
  O43      1.0000 0.54485  0.30117  0.15817  Biso   1.000  O
  H371     1.0000 0.54810  0.31960  0.15260  Biso   1.000  H
  O44      1.0000 0.54289  0.31103  0.20922  Biso   1.000  O
  H372     1.0000 0.48330  0.06670  0.11890  Biso   1.000  H
  H373     1.0000 0.51630  0.08170  0.11570  Biso   1.000  H
  C324     1.0000 0.48950  0.08960  0.07760  Biso   1.000  C
  C325     1.0000 0.47880  0.07010  0.05560  Biso   1.000  C
  H374     1.0000 0.47250  0.04960  0.05950  Biso   1.000  H
  C326     1.0000 0.47830  0.08520  0.02400  Biso   1.000  C
  H375     1.0000 0.47140  0.07520  0.00580  Biso   1.000  H
  C327     1.0000 0.48890  0.11470  0.02460  Biso   1.000  C
  H376     1.0000 0.49050  0.12770  0.00720  Biso   1.000  H
  S22      1.0000 0.49897  0.12523  0.06178  Biso   1.000  S
  H377     1.0000 0.60260  0.16090  0.20800  Biso   1.000  H
  H378     1.0000 0.62220  0.16990  0.17870  Biso   1.000  H
  C328     1.0000 0.63470  0.12670  0.19860  Biso   1.000  C
  H379     1.0000 0.64160  0.11520  0.18020  Biso   1.000  H
  H380     1.0000 0.62450  0.11210  0.21270  Biso   1.000  H
  C329     1.0000 0.66340  0.14230  0.21520  Biso   1.000  C
  H381     1.0000 0.67340  0.15700  0.20090  Biso   1.000  H
  H382     1.0000 0.65630  0.15400  0.23340  Biso   1.000  H
  C330     1.0000 0.68730  0.11740  0.22550  Biso   1.000  C
  H383     1.0000 0.70480  0.12740  0.23570  Biso   1.000  H
  H384     1.0000 0.67750  0.10300  0.23990  Biso   1.000  H
  H385     1.0000 0.69470  0.10610  0.20740  Biso   1.000  H
  C331     1.0000 0.94991  0.61829  0.63520  Biso   1.000  C
  C332     1.0000 0.98421  0.61206  0.63285  Biso   1.000  C
  C333     1.0000 0.99428  0.58527  0.61230  Biso   1.000  C
  H386     1.0000 0.98030  0.56780  0.61510  Biso   1.000  H
  H387     1.0000 0.01510  0.57880  0.61810  Biso   1.000  H
  C334     1.0000 0.99380  0.59560  0.57828  Biso   1.000  C
  C335     1.0000 0.99930  0.62410  0.56650  Biso   1.000  C
  H388     1.0000 0.00430  0.64150  0.57880  Biso   1.000  H
  C336     1.0000 0.99670  0.62500  0.53170  Biso   1.000  C
  H389     1.0000 0.99980  0.64290  0.51960  Biso   1.000  H
  C337     1.0000 0.98930  0.59720  0.51980  Biso   1.000  C
  H390     1.0000 0.98650  0.59330  0.49850  Biso   1.000  H
  S23      1.0000 0.98540  0.56945  0.54877  Biso   1.000  S
  C338     1.0000 0.00348  0.63018  0.64993  Biso   1.000  C
  H391     1.0000 0.99380  0.64460  0.66320  Biso   1.000  H
  C339     1.0000 0.03736  0.63016  0.65031  Biso   1.000  C
  C340     1.0000 0.05945  0.62371  0.62788  Biso   1.000  C
  H392     1.0000 0.05510  0.61550  0.60810  Biso   1.000  H
  C341     1.0000 0.08540  0.64246  0.66799  Biso   1.000  C
  C342     1.0000 0.04170  0.65760  0.70376  Biso   1.000  C
  C343     1.0000 0.04071  0.69283  0.69896  Biso   1.000  C
  C344     1.0000 0.04111  0.70626  0.66913  Biso   1.000  C
  H393     1.0000 0.04120  0.69330  0.65150  Biso   1.000  H
  C345     1.0000 0.04139  0.73830  0.66539  Biso   1.000  C
  H394     1.0000 0.04170  0.74690  0.64530  Biso   1.000  H
  C346     1.0000 0.04117  0.75784  0.69128  Biso   1.000  C
  C347     1.0000 0.03988  0.74464  0.72101  Biso   1.000  C
  H395     1.0000 0.03890  0.75760  0.73860  Biso   1.000  H
  C348     1.0000 0.04004  0.71268  0.72471  Biso   1.000  C
  H396     1.0000 0.03970  0.70420  0.74480  Biso   1.000  H
  C349     1.0000 0.04316  0.79225  0.68735  Biso   1.000  C
  C350     1.0000 0.11148  0.65282  0.68888  Biso   1.000  C
  H397     1.0000 0.10480  0.67090  0.70070  Biso   1.000  H
  H398     1.0000 0.12910  0.65890  0.67620  Biso   1.000  H
  C351     1.0000 0.12100  0.62630  0.71200  Biso   1.000  C
  H399     1.0000 0.12730  0.60770  0.70040  Biso   1.000  H
  H400     1.0000 0.10330  0.62080  0.72530  Biso   1.000  H
  C352     1.0000 0.14870  0.63830  0.73240  Biso   1.000  C
  H401     1.0000 0.14360  0.65890  0.74070  Biso   1.000  H
  H402     1.0000 0.15170  0.62420  0.75010  Biso   1.000  H
  C353     1.0000 0.17940  0.64030  0.71360  Biso   1.000  C
  H403     1.0000 0.19600  0.64770  0.72690  Biso   1.000  H
  H404     1.0000 0.18470  0.61980  0.70570  Biso   1.000  H
  H405     1.0000 0.17670  0.65450  0.69630  Biso   1.000  H
  N23      1.0000 0.08910  0.63112  0.63881  Biso   1.000  N
  N24      1.0000 0.05469  0.64206  0.67586  Biso   1.000  N
  O45      1.0000 0.93060  0.59916  0.62329  Biso   1.000  O
  O46      1.0000 0.93945  0.64259  0.64882  Biso   1.000  O
  O47      1.0000 0.04485  0.80117  0.65817  Biso   1.000  O
  H406     1.0000 0.04810  0.81960  0.65260  Biso   1.000  H
  O48      1.0000 0.04289  0.81103  0.70922  Biso   1.000  O
  H407     1.0000 0.98330  0.56670  0.61890  Biso   1.000  H
  H408     1.0000 0.01630  0.58170  0.61570  Biso   1.000  H
  C354     1.0000 0.98950  0.58960  0.57760  Biso   1.000  C
  C355     1.0000 0.97880  0.57010  0.55560  Biso   1.000  C
  H409     1.0000 0.97250  0.54960  0.55950  Biso   1.000  H
  C356     1.0000 0.97830  0.58520  0.52400  Biso   1.000  C
  H410     1.0000 0.97140  0.57520  0.50580  Biso   1.000  H
  C357     1.0000 0.98890  0.61470  0.52460  Biso   1.000  C
  H411     1.0000 0.99050  0.62770  0.50720  Biso   1.000  H
  S24      1.0000 0.99897  0.62523  0.56178  Biso   1.000  S
  H412     1.0000 0.10260  0.66090  0.70800  Biso   1.000  H
  H413     1.0000 0.12220  0.66990  0.67870  Biso   1.000  H
  C358     1.0000 0.13470  0.62670  0.69860  Biso   1.000  C
  H414     1.0000 0.14160  0.61520  0.68020  Biso   1.000  H
  H415     1.0000 0.12450  0.61210  0.71270  Biso   1.000  H
  C359     1.0000 0.16340  0.64230  0.71520  Biso   1.000  C
  H416     1.0000 0.17340  0.65700  0.70090  Biso   1.000  H
  H417     1.0000 0.15630  0.65400  0.73340  Biso   1.000  H
  C360     1.0000 0.18730  0.61740  0.72550  Biso   1.000  C
  H418     1.0000 0.20480  0.62740  0.73570  Biso   1.000  H
  H419     1.0000 0.17750  0.60300  0.73990  Biso   1.000  H
  H420     1.0000 0.19470  0.60610  0.70740  Biso   1.000  H
  C361     1.0000 0.55009  0.61829  0.36480  Biso   1.000  C
  C362     1.0000 0.51579  0.61206  0.36715  Biso   1.000  C
  C363     1.0000 0.50572  0.58527  0.38770  Biso   1.000  C
  H421     1.0000 0.51970  0.56780  0.38490  Biso   1.000  H
  H422     1.0000 0.48490  0.57880  0.38190  Biso   1.000  H
  C364     1.0000 0.50620  0.59560  0.42172  Biso   1.000  C
  C365     1.0000 0.50070  0.62410  0.43350  Biso   1.000  C
  H423     1.0000 0.49570  0.64150  0.42120  Biso   1.000  H
  C366     1.0000 0.50330  0.62500  0.46830  Biso   1.000  C
  H424     1.0000 0.50020  0.64290  0.48040  Biso   1.000  H
  C367     1.0000 0.51070  0.59720  0.48020  Biso   1.000  C
  H425     1.0000 0.51350  0.59330  0.50150  Biso   1.000  H
  S25      1.0000 0.51460  0.56945  0.45123  Biso   1.000  S
  C368     1.0000 0.49652  0.63018  0.35007  Biso   1.000  C
  H426     1.0000 0.50620  0.64460  0.33680  Biso   1.000  H
  C369     1.0000 0.46264  0.63016  0.34969  Biso   1.000  C
  C370     1.0000 0.44055  0.62371  0.37212  Biso   1.000  C
  H427     1.0000 0.44490  0.61550  0.39190  Biso   1.000  H
  C371     1.0000 0.41460  0.64246  0.33201  Biso   1.000  C
  C372     1.0000 0.45830  0.65760  0.29624  Biso   1.000  C
  C373     1.0000 0.45929  0.69283  0.30104  Biso   1.000  C
  C374     1.0000 0.45889  0.70626  0.33087  Biso   1.000  C
  H428     1.0000 0.45880  0.69330  0.34850  Biso   1.000  H
  C375     1.0000 0.45861  0.73830  0.33461  Biso   1.000  C
  H429     1.0000 0.45830  0.74690  0.35470  Biso   1.000  H
  C376     1.0000 0.45883  0.75784  0.30872  Biso   1.000  C
  C377     1.0000 0.46012  0.74464  0.27899  Biso   1.000  C
  H430     1.0000 0.46110  0.75760  0.26140  Biso   1.000  H
  C378     1.0000 0.45996  0.71268  0.27529  Biso   1.000  C
  H431     1.0000 0.46030  0.70420  0.25520  Biso   1.000  H
  C379     1.0000 0.45684  0.79225  0.31265  Biso   1.000  C
  C380     1.0000 0.38852  0.65282  0.31112  Biso   1.000  C
  H432     1.0000 0.39520  0.67090  0.29930  Biso   1.000  H
  H433     1.0000 0.37090  0.65890  0.32380  Biso   1.000  H
  C381     1.0000 0.37900  0.62630  0.28800  Biso   1.000  C
  H434     1.0000 0.37270  0.60770  0.29960  Biso   1.000  H
  H435     1.0000 0.39670  0.62080  0.27470  Biso   1.000  H
  C382     1.0000 0.35130  0.63830  0.26760  Biso   1.000  C
  H436     1.0000 0.35640  0.65890  0.25930  Biso   1.000  H
  H437     1.0000 0.34830  0.62420  0.24990  Biso   1.000  H
  C383     1.0000 0.32060  0.64030  0.28640  Biso   1.000  C
  H438     1.0000 0.30400  0.64770  0.27310  Biso   1.000  H
  H439     1.0000 0.31530  0.61980  0.29430  Biso   1.000  H
  H440     1.0000 0.32330  0.65450  0.30370  Biso   1.000  H
  N25      1.0000 0.41090  0.63112  0.36119  Biso   1.000  N
  N26      1.0000 0.44531  0.64206  0.32414  Biso   1.000  N
  O49      1.0000 0.56940  0.59916  0.37671  Biso   1.000  O
  O50      1.0000 0.56055  0.64259  0.35118  Biso   1.000  O
  O51      1.0000 0.45515  0.80117  0.34183  Biso   1.000  O
  H441     1.0000 0.45190  0.81960  0.34740  Biso   1.000  H
  O52      1.0000 0.45711  0.81103  0.29078  Biso   1.000  O
  H442     1.0000 0.51670  0.56670  0.38110  Biso   1.000  H
  H443     1.0000 0.48370  0.58170  0.38430  Biso   1.000  H
  C384     1.0000 0.51050  0.58960  0.42240  Biso   1.000  C
  C385     1.0000 0.52120  0.57010  0.44440  Biso   1.000  C
  H444     1.0000 0.52750  0.54960  0.44050  Biso   1.000  H
  C386     1.0000 0.52170  0.58520  0.47600  Biso   1.000  C
  H445     1.0000 0.52860  0.57520  0.49420  Biso   1.000  H
  C387     1.0000 0.51110  0.61470  0.47540  Biso   1.000  C
  H446     1.0000 0.50950  0.62770  0.49280  Biso   1.000  H
  S26      1.0000 0.50103  0.62523  0.43822  Biso   1.000  S
  H447     1.0000 0.39740  0.66090  0.29200  Biso   1.000  H
  H448     1.0000 0.37780  0.66990  0.32130  Biso   1.000  H
  C388     1.0000 0.36530  0.62670  0.30140  Biso   1.000  C
  H449     1.0000 0.35840  0.61520  0.31980  Biso   1.000  H
  H450     1.0000 0.37550  0.61210  0.28730  Biso   1.000  H
  C389     1.0000 0.33660  0.64230  0.28480  Biso   1.000  C
  H451     1.0000 0.32660  0.65700  0.29910  Biso   1.000  H
  H452     1.0000 0.34370  0.65400  0.26660  Biso   1.000  H
  C390     1.0000 0.31270  0.61740  0.27450  Biso   1.000  C
  H453     1.0000 0.29520  0.62740  0.26430  Biso   1.000  H
  H454     1.0000 0.32250  0.60300  0.26010  Biso   1.000  H
  H455     1.0000 0.30530  0.60610  0.29260  Biso   1.000  H
  C391     1.0000 0.05009  0.11829  0.86480  Biso   1.000  C
  C392     1.0000 0.01579  0.11206  0.86715  Biso   1.000  C
  C393     1.0000 0.00572  0.08527  0.88770  Biso   1.000  C
  H456     1.0000 0.01970  0.06780  0.88490  Biso   1.000  H
  H457     1.0000 0.98490  0.07880  0.88190  Biso   1.000  H
  C394     1.0000 0.00620  0.09560  0.92172  Biso   1.000  C
  C395     1.0000 0.00070  0.12410  0.93350  Biso   1.000  C
  H458     1.0000 0.99570  0.14150  0.92120  Biso   1.000  H
  C396     1.0000 0.00330  0.12500  0.96830  Biso   1.000  C
  H459     1.0000 0.00020  0.14290  0.98040  Biso   1.000  H
  C397     1.0000 0.01070  0.09720  0.98020  Biso   1.000  C
  H460     1.0000 0.01350  0.09330  0.00150  Biso   1.000  H
  S27      1.0000 0.01460  0.06945  0.95123  Biso   1.000  S
  C398     1.0000 0.99652  0.13018  0.85007  Biso   1.000  C
  H461     1.0000 0.00620  0.14460  0.83680  Biso   1.000  H
  C399     1.0000 0.96264  0.13016  0.84969  Biso   1.000  C
  C400     1.0000 0.94055  0.12371  0.87212  Biso   1.000  C
  H462     1.0000 0.94490  0.11550  0.89190  Biso   1.000  H
  C401     1.0000 0.91460  0.14246  0.83201  Biso   1.000  C
  C402     1.0000 0.95830  0.15760  0.79624  Biso   1.000  C
  C403     1.0000 0.95929  0.19283  0.80104  Biso   1.000  C
  C404     1.0000 0.95889  0.20626  0.83087  Biso   1.000  C
  H463     1.0000 0.95880  0.19330  0.84850  Biso   1.000  H
  C405     1.0000 0.95861  0.23830  0.83461  Biso   1.000  C
  H464     1.0000 0.95830  0.24690  0.85470  Biso   1.000  H
  C406     1.0000 0.95883  0.25784  0.80872  Biso   1.000  C
  C407     1.0000 0.96012  0.24464  0.77899  Biso   1.000  C
  H465     1.0000 0.96110  0.25760  0.76140  Biso   1.000  H
  C408     1.0000 0.95996  0.21268  0.77529  Biso   1.000  C
  H466     1.0000 0.96030  0.20420  0.75520  Biso   1.000  H
  C409     1.0000 0.95684  0.29225  0.81265  Biso   1.000  C
  C410     1.0000 0.88852  0.15282  0.81112  Biso   1.000  C
  H467     1.0000 0.89520  0.17090  0.79930  Biso   1.000  H
  H468     1.0000 0.87090  0.15890  0.82380  Biso   1.000  H
  C411     1.0000 0.87900  0.12630  0.78800  Biso   1.000  C
  H469     1.0000 0.87270  0.10770  0.79960  Biso   1.000  H
  H470     1.0000 0.89670  0.12080  0.77470  Biso   1.000  H
  C412     1.0000 0.85130  0.13830  0.76760  Biso   1.000  C
  H471     1.0000 0.85640  0.15890  0.75930  Biso   1.000  H
  H472     1.0000 0.84830  0.12420  0.74990  Biso   1.000  H
  C413     1.0000 0.82060  0.14030  0.78640  Biso   1.000  C
  H473     1.0000 0.80400  0.14770  0.77310  Biso   1.000  H
  H474     1.0000 0.81530  0.11980  0.79430  Biso   1.000  H
  H475     1.0000 0.82330  0.15450  0.80370  Biso   1.000  H
  N27      1.0000 0.91090  0.13112  0.86119  Biso   1.000  N
  N28      1.0000 0.94531  0.14206  0.82414  Biso   1.000  N
  O53      1.0000 0.06940  0.09916  0.87671  Biso   1.000  O
  O54      1.0000 0.06055  0.14259  0.85118  Biso   1.000  O
  O55      1.0000 0.95515  0.30117  0.84183  Biso   1.000  O
  H476     1.0000 0.95190  0.31960  0.84740  Biso   1.000  H
  O56      1.0000 0.95711  0.31103  0.79078  Biso   1.000  O
  H477     1.0000 0.01670  0.06670  0.88110  Biso   1.000  H
  H478     1.0000 0.98370  0.08170  0.88430  Biso   1.000  H
  C414     1.0000 0.01050  0.08960  0.92240  Biso   1.000  C
  C415     1.0000 0.02120  0.07010  0.94440  Biso   1.000  C
  H479     1.0000 0.02750  0.04960  0.94050  Biso   1.000  H
  C416     1.0000 0.02170  0.08520  0.97600  Biso   1.000  C
  H480     1.0000 0.02860  0.07520  0.99420  Biso   1.000  H
  C417     1.0000 0.01110  0.11470  0.97540  Biso   1.000  C
  H481     1.0000 0.00950  0.12770  0.99280  Biso   1.000  H
  S28      1.0000 0.00103  0.12523  0.93822  Biso   1.000  S
  H482     1.0000 0.89740  0.16090  0.79200  Biso   1.000  H
  H483     1.0000 0.87780  0.16990  0.82130  Biso   1.000  H
  C418     1.0000 0.86530  0.12670  0.80140  Biso   1.000  C
  H484     1.0000 0.85840  0.11520  0.81980  Biso   1.000  H
  H485     1.0000 0.87550  0.11210  0.78730  Biso   1.000  H
  C419     1.0000 0.83660  0.14230  0.78480  Biso   1.000  C
  H486     1.0000 0.82660  0.15700  0.79910  Biso   1.000  H
  H487     1.0000 0.84370  0.15400  0.76660  Biso   1.000  H
  C420     1.0000 0.81270  0.11740  0.77450  Biso   1.000  C
  H488     1.0000 0.79520  0.12740  0.76430  Biso   1.000  H
  H489     1.0000 0.82250  0.10300  0.76010  Biso   1.000  H
  H490     1.0000 0.80530  0.10610  0.79260  Biso   1.000  H
  C421     1.0000 0.05009  0.88171  0.63520  Biso   1.000  C
  C422     1.0000 0.01579  0.88794  0.63285  Biso   1.000  C
  C423     1.0000 0.00572  0.91473  0.61230  Biso   1.000  C
  H491     1.0000 0.01970  0.93220  0.61510  Biso   1.000  H
  H492     1.0000 0.98490  0.92120  0.61810  Biso   1.000  H
  C424     1.0000 0.00620  0.90440  0.57828  Biso   1.000  C
  C425     1.0000 0.00070  0.87590  0.56650  Biso   1.000  C
  H493     1.0000 0.99570  0.85850  0.57880  Biso   1.000  H
  C426     1.0000 0.00330  0.87500  0.53170  Biso   1.000  C
  H494     1.0000 0.00020  0.85710  0.51960  Biso   1.000  H
  C427     1.0000 0.01070  0.90280  0.51980  Biso   1.000  C
  H495     1.0000 0.01350  0.90670  0.49850  Biso   1.000  H
  S29      1.0000 0.01460  0.93055  0.54877  Biso   1.000  S
  C428     1.0000 0.99652  0.86982  0.64993  Biso   1.000  C
  H496     1.0000 0.00620  0.85540  0.66320  Biso   1.000  H
  C429     1.0000 0.96264  0.86984  0.65031  Biso   1.000  C
  C430     1.0000 0.94055  0.87629  0.62788  Biso   1.000  C
  H497     1.0000 0.94490  0.88450  0.60810  Biso   1.000  H
  C431     1.0000 0.91460  0.85754  0.66799  Biso   1.000  C
  C432     1.0000 0.95830  0.84240  0.70376  Biso   1.000  C
  C433     1.0000 0.95929  0.80717  0.69896  Biso   1.000  C
  C434     1.0000 0.95889  0.79374  0.66913  Biso   1.000  C
  H498     1.0000 0.95880  0.80670  0.65150  Biso   1.000  H
  C435     1.0000 0.95861  0.76170  0.66539  Biso   1.000  C
  H499     1.0000 0.95830  0.75310  0.64530  Biso   1.000  H
  C436     1.0000 0.95883  0.74216  0.69128  Biso   1.000  C
  C437     1.0000 0.96012  0.75536  0.72101  Biso   1.000  C
  H500     1.0000 0.96110  0.74240  0.73860  Biso   1.000  H
  C438     1.0000 0.95996  0.78732  0.72471  Biso   1.000  C
  H501     1.0000 0.96030  0.79580  0.74480  Biso   1.000  H
  C439     1.0000 0.95684  0.70775  0.68735  Biso   1.000  C
  C440     1.0000 0.88852  0.84718  0.68888  Biso   1.000  C
  H502     1.0000 0.89520  0.82910  0.70070  Biso   1.000  H
  H503     1.0000 0.87090  0.84110  0.67620  Biso   1.000  H
  C441     1.0000 0.87900  0.87370  0.71200  Biso   1.000  C
  H504     1.0000 0.87270  0.89230  0.70040  Biso   1.000  H
  H505     1.0000 0.89670  0.87920  0.72530  Biso   1.000  H
  C442     1.0000 0.85130  0.86170  0.73240  Biso   1.000  C
  H506     1.0000 0.85640  0.84110  0.74070  Biso   1.000  H
  H507     1.0000 0.84830  0.87580  0.75010  Biso   1.000  H
  C443     1.0000 0.82060  0.85970  0.71360  Biso   1.000  C
  H508     1.0000 0.80400  0.85230  0.72690  Biso   1.000  H
  H509     1.0000 0.81530  0.88020  0.70570  Biso   1.000  H
  H510     1.0000 0.82330  0.84550  0.69630  Biso   1.000  H
  N29      1.0000 0.91090  0.86888  0.63881  Biso   1.000  N
  N30      1.0000 0.94531  0.85794  0.67586  Biso   1.000  N
  O57      1.0000 0.06940  0.90084  0.62329  Biso   1.000  O
  O58      1.0000 0.06055  0.85741  0.64882  Biso   1.000  O
  O59      1.0000 0.95515  0.69883  0.65817  Biso   1.000  O
  H511     1.0000 0.95190  0.68040  0.65260  Biso   1.000  H
  O60      1.0000 0.95711  0.68897  0.70922  Biso   1.000  O
  H512     1.0000 0.01670  0.93330  0.61890  Biso   1.000  H
  H513     1.0000 0.98370  0.91830  0.61570  Biso   1.000  H
  C444     1.0000 0.01050  0.91040  0.57760  Biso   1.000  C
  C445     1.0000 0.02120  0.92990  0.55560  Biso   1.000  C
  H514     1.0000 0.02750  0.95040  0.55950  Biso   1.000  H
  C446     1.0000 0.02170  0.91480  0.52400  Biso   1.000  C
  H515     1.0000 0.02860  0.92480  0.50580  Biso   1.000  H
  C447     1.0000 0.01110  0.88530  0.52460  Biso   1.000  C
  H516     1.0000 0.00950  0.87230  0.50720  Biso   1.000  H
  S30      1.0000 0.00103  0.87477  0.56178  Biso   1.000  S
  H517     1.0000 0.89740  0.83910  0.70800  Biso   1.000  H
  H518     1.0000 0.87780  0.83010  0.67870  Biso   1.000  H
  C448     1.0000 0.86530  0.87330  0.69860  Biso   1.000  C
  H519     1.0000 0.85840  0.88480  0.68020  Biso   1.000  H
  H520     1.0000 0.87550  0.88790  0.71270  Biso   1.000  H
  C449     1.0000 0.83660  0.85770  0.71520  Biso   1.000  C
  H521     1.0000 0.82660  0.84300  0.70090  Biso   1.000  H
  H522     1.0000 0.84370  0.84600  0.73340  Biso   1.000  H
  C450     1.0000 0.81270  0.88260  0.72550  Biso   1.000  C
  H523     1.0000 0.79520  0.87260  0.73570  Biso   1.000  H
  H524     1.0000 0.82250  0.89700  0.73990  Biso   1.000  H
  H525     1.0000 0.80530  0.89390  0.70740  Biso   1.000  H
  C451     1.0000 0.55009  0.38171  0.13520  Biso   1.000  C
  C452     1.0000 0.51579  0.38794  0.13285  Biso   1.000  C
  C453     1.0000 0.50572  0.41473  0.11230  Biso   1.000  C
  H526     1.0000 0.51970  0.43220  0.11510  Biso   1.000  H
  H527     1.0000 0.48490  0.42120  0.11810  Biso   1.000  H
  C454     1.0000 0.50620  0.40440  0.07828  Biso   1.000  C
  C455     1.0000 0.50070  0.37590  0.06650  Biso   1.000  C
  H528     1.0000 0.49570  0.35850  0.07880  Biso   1.000  H
  C456     1.0000 0.50330  0.37500  0.03170  Biso   1.000  C
  H529     1.0000 0.50020  0.35710  0.01960  Biso   1.000  H
  C457     1.0000 0.51070  0.40280  0.01980  Biso   1.000  C
  H530     1.0000 0.51350  0.40670  0.99850  Biso   1.000  H
  S31      1.0000 0.51460  0.43055  0.04877  Biso   1.000  S
  C458     1.0000 0.49652  0.36982  0.14993  Biso   1.000  C
  H531     1.0000 0.50620  0.35540  0.16320  Biso   1.000  H
  C459     1.0000 0.46264  0.36984  0.15031  Biso   1.000  C
  C460     1.0000 0.44055  0.37629  0.12788  Biso   1.000  C
  H532     1.0000 0.44490  0.38450  0.10810  Biso   1.000  H
  C461     1.0000 0.41460  0.35754  0.16799  Biso   1.000  C
  C462     1.0000 0.45830  0.34240  0.20376  Biso   1.000  C
  C463     1.0000 0.45929  0.30717  0.19896  Biso   1.000  C
  C464     1.0000 0.45889  0.29374  0.16913  Biso   1.000  C
  H533     1.0000 0.45880  0.30670  0.15150  Biso   1.000  H
  C465     1.0000 0.45861  0.26170  0.16539  Biso   1.000  C
  H534     1.0000 0.45830  0.25310  0.14530  Biso   1.000  H
  C466     1.0000 0.45883  0.24216  0.19128  Biso   1.000  C
  C467     1.0000 0.46012  0.25536  0.22101  Biso   1.000  C
  H535     1.0000 0.46110  0.24240  0.23860  Biso   1.000  H
  C468     1.0000 0.45996  0.28732  0.22471  Biso   1.000  C
  H536     1.0000 0.46030  0.29580  0.24480  Biso   1.000  H
  C469     1.0000 0.45684  0.20775  0.18735  Biso   1.000  C
  C470     1.0000 0.38852  0.34718  0.18888  Biso   1.000  C
  H537     1.0000 0.39520  0.32910  0.20070  Biso   1.000  H
  H538     1.0000 0.37090  0.34110  0.17620  Biso   1.000  H
  C471     1.0000 0.37900  0.37370  0.21200  Biso   1.000  C
  H539     1.0000 0.37270  0.39230  0.20040  Biso   1.000  H
  H540     1.0000 0.39670  0.37920  0.22530  Biso   1.000  H
  C472     1.0000 0.35130  0.36170  0.23240  Biso   1.000  C
  H541     1.0000 0.35640  0.34110  0.24070  Biso   1.000  H
  H542     1.0000 0.34830  0.37580  0.25010  Biso   1.000  H
  C473     1.0000 0.32060  0.35970  0.21360  Biso   1.000  C
  H543     1.0000 0.30400  0.35230  0.22690  Biso   1.000  H
  H544     1.0000 0.31530  0.38020  0.20570  Biso   1.000  H
  H545     1.0000 0.32330  0.34550  0.19630  Biso   1.000  H
  N31      1.0000 0.41090  0.36888  0.13881  Biso   1.000  N
  N32      1.0000 0.44531  0.35794  0.17586  Biso   1.000  N
  O61      1.0000 0.56940  0.40084  0.12329  Biso   1.000  O
  O62      1.0000 0.56055  0.35741  0.14882  Biso   1.000  O
  O63      1.0000 0.45515  0.19883  0.15817  Biso   1.000  O
  H546     1.0000 0.45190  0.18040  0.15260  Biso   1.000  H
  O64      1.0000 0.45711  0.18897  0.20922  Biso   1.000  O
  H547     1.0000 0.51670  0.43330  0.11890  Biso   1.000  H
  H548     1.0000 0.48370  0.41830  0.11570  Biso   1.000  H
  C474     1.0000 0.51050  0.41040  0.07760  Biso   1.000  C
  C475     1.0000 0.52120  0.42990  0.05560  Biso   1.000  C
  H549     1.0000 0.52750  0.45040  0.05950  Biso   1.000  H
  C476     1.0000 0.52170  0.41480  0.02400  Biso   1.000  C
  H550     1.0000 0.52860  0.42480  0.00580  Biso   1.000  H
  C477     1.0000 0.51110  0.38530  0.02460  Biso   1.000  C
  H551     1.0000 0.50950  0.37230  0.00720  Biso   1.000  H
  S32      1.0000 0.50103  0.37477  0.06178  Biso   1.000  S
  H552     1.0000 0.39740  0.33910  0.20800  Biso   1.000  H
  H553     1.0000 0.37780  0.33010  0.17870  Biso   1.000  H
  C478     1.0000 0.36530  0.37330  0.19860  Biso   1.000  C
  H554     1.0000 0.35840  0.38480  0.18020  Biso   1.000  H
  H555     1.0000 0.37550  0.38790  0.21270  Biso   1.000  H
  C479     1.0000 0.33660  0.35770  0.21520  Biso   1.000  C
  H556     1.0000 0.32660  0.34300  0.20090  Biso   1.000  H
  H557     1.0000 0.34370  0.34600  0.23340  Biso   1.000  H
  C480     1.0000 0.31270  0.38260  0.22550  Biso   1.000  C
  H558     1.0000 0.29520  0.37260  0.23570  Biso   1.000  H
  H559     1.0000 0.32250  0.39700  0.23990  Biso   1.000  H
  H560     1.0000 0.30530  0.39390  0.20740  Biso   1.000  H
  C481     1.0000 0.86480  0.94991  0.38171  Biso   1.000  C
  C482     1.0000 0.86715  0.98421  0.38794  Biso   1.000  C
  C483     1.0000 0.88770  0.99428  0.41473  Biso   1.000  C
  H561     1.0000 0.88490  0.98030  0.43220  Biso   1.000  H
  H562     1.0000 0.88190  0.01510  0.42120  Biso   1.000  H
  C484     1.0000 0.92172  0.99380  0.40440  Biso   1.000  C
  C485     1.0000 0.93350  0.99930  0.37590  Biso   1.000  C
  H563     1.0000 0.92120  0.00430  0.35850  Biso   1.000  H
  C486     1.0000 0.96830  0.99670  0.37500  Biso   1.000  C
  H564     1.0000 0.98040  0.99980  0.35710  Biso   1.000  H
  C487     1.0000 0.98020  0.98930  0.40280  Biso   1.000  C
  H565     1.0000 0.00150  0.98650  0.40670  Biso   1.000  H
  S33      1.0000 0.95123  0.98540  0.43055  Biso   1.000  S
  C488     1.0000 0.85007  0.00348  0.36982  Biso   1.000  C
  H566     1.0000 0.83680  0.99380  0.35540  Biso   1.000  H
  C489     1.0000 0.84969  0.03736  0.36984  Biso   1.000  C
  C490     1.0000 0.87212  0.05945  0.37629  Biso   1.000  C
  H567     1.0000 0.89190  0.05510  0.38450  Biso   1.000  H
  C491     1.0000 0.83201  0.08540  0.35754  Biso   1.000  C
  C492     1.0000 0.79624  0.04170  0.34240  Biso   1.000  C
  C493     1.0000 0.80104  0.04071  0.30717  Biso   1.000  C
  C494     1.0000 0.83087  0.04111  0.29374  Biso   1.000  C
  H568     1.0000 0.84850  0.04120  0.30670  Biso   1.000  H
  C495     1.0000 0.83461  0.04139  0.26170  Biso   1.000  C
  H569     1.0000 0.85470  0.04170  0.25310  Biso   1.000  H
  C496     1.0000 0.80872  0.04117  0.24216  Biso   1.000  C
  C497     1.0000 0.77899  0.03988  0.25536  Biso   1.000  C
  H570     1.0000 0.76140  0.03890  0.24240  Biso   1.000  H
  C498     1.0000 0.77529  0.04004  0.28732  Biso   1.000  C
  H571     1.0000 0.75520  0.03970  0.29580  Biso   1.000  H
  C499     1.0000 0.81265  0.04316  0.20775  Biso   1.000  C
  C500     1.0000 0.81112  0.11148  0.34718  Biso   1.000  C
  H572     1.0000 0.79930  0.10480  0.32910  Biso   1.000  H
  H573     1.0000 0.82380  0.12910  0.34110  Biso   1.000  H
  C501     1.0000 0.78800  0.12100  0.37370  Biso   1.000  C
  H574     1.0000 0.79960  0.12730  0.39230  Biso   1.000  H
  H575     1.0000 0.77470  0.10330  0.37920  Biso   1.000  H
  C502     1.0000 0.76760  0.14870  0.36170  Biso   1.000  C
  H576     1.0000 0.75930  0.14360  0.34110  Biso   1.000  H
  H577     1.0000 0.74990  0.15170  0.37580  Biso   1.000  H
  C503     1.0000 0.78640  0.17940  0.35970  Biso   1.000  C
  H578     1.0000 0.77310  0.19600  0.35230  Biso   1.000  H
  H579     1.0000 0.79430  0.18470  0.38020  Biso   1.000  H
  H580     1.0000 0.80370  0.17670  0.34550  Biso   1.000  H
  N33      1.0000 0.86119  0.08910  0.36888  Biso   1.000  N
  N34      1.0000 0.82414  0.05469  0.35794  Biso   1.000  N
  O65      1.0000 0.87671  0.93060  0.40084  Biso   1.000  O
  O66      1.0000 0.85118  0.93945  0.35741  Biso   1.000  O
  O67      1.0000 0.84183  0.04485  0.19883  Biso   1.000  O
  H581     1.0000 0.84740  0.04810  0.18040  Biso   1.000  H
  O68      1.0000 0.79078  0.04289  0.18897  Biso   1.000  O
  H582     1.0000 0.88110  0.98330  0.43330  Biso   1.000  H
  H583     1.0000 0.88430  0.01630  0.41830  Biso   1.000  H
  C504     1.0000 0.92240  0.98950  0.41040  Biso   1.000  C
  C505     1.0000 0.94440  0.97880  0.42990  Biso   1.000  C
  H584     1.0000 0.94050  0.97250  0.45040  Biso   1.000  H
  C506     1.0000 0.97600  0.97830  0.41480  Biso   1.000  C
  H585     1.0000 0.99420  0.97140  0.42480  Biso   1.000  H
  C507     1.0000 0.97540  0.98890  0.38530  Biso   1.000  C
  H586     1.0000 0.99280  0.99050  0.37230  Biso   1.000  H
  S34      1.0000 0.93822  0.99897  0.37477  Biso   1.000  S
  H587     1.0000 0.79200  0.10260  0.33910  Biso   1.000  H
  H588     1.0000 0.82130  0.12220  0.33010  Biso   1.000  H
  C508     1.0000 0.80140  0.13470  0.37330  Biso   1.000  C
  H589     1.0000 0.81980  0.14160  0.38480  Biso   1.000  H
  H590     1.0000 0.78730  0.12450  0.38790  Biso   1.000  H
  C509     1.0000 0.78480  0.16340  0.35770  Biso   1.000  C
  H591     1.0000 0.79910  0.17340  0.34300  Biso   1.000  H
  H592     1.0000 0.76660  0.15630  0.34600  Biso   1.000  H
  C510     1.0000 0.77450  0.18730  0.38260  Biso   1.000  C
  H593     1.0000 0.76430  0.20480  0.37260  Biso   1.000  H
  H594     1.0000 0.76010  0.17750  0.39700  Biso   1.000  H
  H595     1.0000 0.79260  0.19470  0.39390  Biso   1.000  H
  C511     1.0000 0.36480  0.44991  0.88171  Biso   1.000  C
  C512     1.0000 0.36715  0.48421  0.88794  Biso   1.000  C
  C513     1.0000 0.38770  0.49428  0.91473  Biso   1.000  C
  H596     1.0000 0.38490  0.48030  0.93220  Biso   1.000  H
  H597     1.0000 0.38190  0.51510  0.92120  Biso   1.000  H
  C514     1.0000 0.42172  0.49380  0.90440  Biso   1.000  C
  C515     1.0000 0.43350  0.49930  0.87590  Biso   1.000  C
  H598     1.0000 0.42120  0.50430  0.85850  Biso   1.000  H
  C516     1.0000 0.46830  0.49670  0.87500  Biso   1.000  C
  H599     1.0000 0.48040  0.49980  0.85710  Biso   1.000  H
  C517     1.0000 0.48020  0.48930  0.90280  Biso   1.000  C
  H600     1.0000 0.50150  0.48650  0.90670  Biso   1.000  H
  S35      1.0000 0.45123  0.48540  0.93055  Biso   1.000  S
  C518     1.0000 0.35007  0.50348  0.86982  Biso   1.000  C
  H601     1.0000 0.33680  0.49380  0.85540  Biso   1.000  H
  C519     1.0000 0.34969  0.53736  0.86984  Biso   1.000  C
  C520     1.0000 0.37212  0.55945  0.87629  Biso   1.000  C
  H602     1.0000 0.39190  0.55510  0.88450  Biso   1.000  H
  C521     1.0000 0.33201  0.58540  0.85754  Biso   1.000  C
  C522     1.0000 0.29624  0.54170  0.84240  Biso   1.000  C
  C523     1.0000 0.30104  0.54071  0.80717  Biso   1.000  C
  C524     1.0000 0.33087  0.54111  0.79374  Biso   1.000  C
  H603     1.0000 0.34850  0.54120  0.80670  Biso   1.000  H
  C525     1.0000 0.33461  0.54139  0.76170  Biso   1.000  C
  H604     1.0000 0.35470  0.54170  0.75310  Biso   1.000  H
  C526     1.0000 0.30872  0.54117  0.74216  Biso   1.000  C
  C527     1.0000 0.27899  0.53988  0.75536  Biso   1.000  C
  H605     1.0000 0.26140  0.53890  0.74240  Biso   1.000  H
  C528     1.0000 0.27529  0.54004  0.78732  Biso   1.000  C
  H606     1.0000 0.25520  0.53970  0.79580  Biso   1.000  H
  C529     1.0000 0.31265  0.54316  0.70775  Biso   1.000  C
  C530     1.0000 0.31112  0.61148  0.84718  Biso   1.000  C
  H607     1.0000 0.29930  0.60480  0.82910  Biso   1.000  H
  H608     1.0000 0.32380  0.62910  0.84110  Biso   1.000  H
  C531     1.0000 0.28800  0.62100  0.87370  Biso   1.000  C
  H609     1.0000 0.29960  0.62730  0.89230  Biso   1.000  H
  H610     1.0000 0.27470  0.60330  0.87920  Biso   1.000  H
  C532     1.0000 0.26760  0.64870  0.86170  Biso   1.000  C
  H611     1.0000 0.25930  0.64360  0.84110  Biso   1.000  H
  H612     1.0000 0.24990  0.65170  0.87580  Biso   1.000  H
  C533     1.0000 0.28640  0.67940  0.85970  Biso   1.000  C
  H613     1.0000 0.27310  0.69600  0.85230  Biso   1.000  H
  H614     1.0000 0.29430  0.68470  0.88020  Biso   1.000  H
  H615     1.0000 0.30370  0.67670  0.84550  Biso   1.000  H
  N35      1.0000 0.36119  0.58910  0.86888  Biso   1.000  N
  N36      1.0000 0.32414  0.55469  0.85794  Biso   1.000  N
  O69      1.0000 0.37671  0.43060  0.90084  Biso   1.000  O
  O70      1.0000 0.35118  0.43945  0.85741  Biso   1.000  O
  O71      1.0000 0.34183  0.54485  0.69883  Biso   1.000  O
  H616     1.0000 0.34740  0.54810  0.68040  Biso   1.000  H
  O72      1.0000 0.29078  0.54289  0.68897  Biso   1.000  O
  H617     1.0000 0.38110  0.48330  0.93330  Biso   1.000  H
  H618     1.0000 0.38430  0.51630  0.91830  Biso   1.000  H
  C534     1.0000 0.42240  0.48950  0.91040  Biso   1.000  C
  C535     1.0000 0.44440  0.47880  0.92990  Biso   1.000  C
  H619     1.0000 0.44050  0.47250  0.95040  Biso   1.000  H
  C536     1.0000 0.47600  0.47830  0.91480  Biso   1.000  C
  H620     1.0000 0.49420  0.47140  0.92480  Biso   1.000  H
  C537     1.0000 0.47540  0.48890  0.88530  Biso   1.000  C
  H621     1.0000 0.49280  0.49050  0.87230  Biso   1.000  H
  S36      1.0000 0.43822  0.49897  0.87477  Biso   1.000  S
  H622     1.0000 0.29200  0.60260  0.83910  Biso   1.000  H
  H623     1.0000 0.32130  0.62220  0.83010  Biso   1.000  H
  C538     1.0000 0.30140  0.63470  0.87330  Biso   1.000  C
  H624     1.0000 0.31980  0.64160  0.88480  Biso   1.000  H
  H625     1.0000 0.28730  0.62450  0.88790  Biso   1.000  H
  C539     1.0000 0.28480  0.66340  0.85770  Biso   1.000  C
  H626     1.0000 0.29910  0.67340  0.84300  Biso   1.000  H
  H627     1.0000 0.26660  0.65630  0.84600  Biso   1.000  H
  C540     1.0000 0.27450  0.68730  0.88260  Biso   1.000  C
  H628     1.0000 0.26430  0.70480  0.87260  Biso   1.000  H
  H629     1.0000 0.26010  0.67750  0.89700  Biso   1.000  H
  H630     1.0000 0.29260  0.69470  0.89390  Biso   1.000  H
  C541     1.0000 0.13520  0.44991  0.11829  Biso   1.000  C
  C542     1.0000 0.13285  0.48421  0.11206  Biso   1.000  C
  C543     1.0000 0.11230  0.49428  0.08527  Biso   1.000  C
  H631     1.0000 0.11510  0.48030  0.06780  Biso   1.000  H
  H632     1.0000 0.11810  0.51510  0.07880  Biso   1.000  H
  C544     1.0000 0.07828  0.49380  0.09560  Biso   1.000  C
  C545     1.0000 0.06650  0.49930  0.12410  Biso   1.000  C
  H633     1.0000 0.07880  0.50430  0.14150  Biso   1.000  H
  C546     1.0000 0.03170  0.49670  0.12500  Biso   1.000  C
  H634     1.0000 0.01960  0.49980  0.14290  Biso   1.000  H
  C547     1.0000 0.01980  0.48930  0.09720  Biso   1.000  C
  H635     1.0000 0.99850  0.48650  0.09330  Biso   1.000  H
  S37      1.0000 0.04877  0.48540  0.06945  Biso   1.000  S
  C548     1.0000 0.14993  0.50348  0.13018  Biso   1.000  C
  H636     1.0000 0.16320  0.49380  0.14460  Biso   1.000  H
  C549     1.0000 0.15031  0.53736  0.13016  Biso   1.000  C
  C550     1.0000 0.12788  0.55945  0.12371  Biso   1.000  C
  H637     1.0000 0.10810  0.55510  0.11550  Biso   1.000  H
  C551     1.0000 0.16799  0.58540  0.14246  Biso   1.000  C
  C552     1.0000 0.20376  0.54170  0.15760  Biso   1.000  C
  C553     1.0000 0.19896  0.54071  0.19283  Biso   1.000  C
  C554     1.0000 0.16913  0.54111  0.20626  Biso   1.000  C
  H638     1.0000 0.15150  0.54120  0.19330  Biso   1.000  H
  C555     1.0000 0.16539  0.54139  0.23830  Biso   1.000  C
  H639     1.0000 0.14530  0.54170  0.24690  Biso   1.000  H
  C556     1.0000 0.19128  0.54117  0.25784  Biso   1.000  C
  C557     1.0000 0.22101  0.53988  0.24464  Biso   1.000  C
  H640     1.0000 0.23860  0.53890  0.25760  Biso   1.000  H
  C558     1.0000 0.22471  0.54004  0.21268  Biso   1.000  C
  H641     1.0000 0.24480  0.53970  0.20420  Biso   1.000  H
  C559     1.0000 0.18735  0.54316  0.29225  Biso   1.000  C
  C560     1.0000 0.18888  0.61148  0.15282  Biso   1.000  C
  H642     1.0000 0.20070  0.60480  0.17090  Biso   1.000  H
  H643     1.0000 0.17620  0.62910  0.15890  Biso   1.000  H
  C561     1.0000 0.21200  0.62100  0.12630  Biso   1.000  C
  H644     1.0000 0.20040  0.62730  0.10770  Biso   1.000  H
  H645     1.0000 0.22530  0.60330  0.12080  Biso   1.000  H
  C562     1.0000 0.23240  0.64870  0.13830  Biso   1.000  C
  H646     1.0000 0.24070  0.64360  0.15890  Biso   1.000  H
  H647     1.0000 0.25010  0.65170  0.12420  Biso   1.000  H
  C563     1.0000 0.21360  0.67940  0.14030  Biso   1.000  C
  H648     1.0000 0.22690  0.69600  0.14770  Biso   1.000  H
  H649     1.0000 0.20570  0.68470  0.11980  Biso   1.000  H
  H650     1.0000 0.19630  0.67670  0.15450  Biso   1.000  H
  N37      1.0000 0.13881  0.58910  0.13112  Biso   1.000  N
  N38      1.0000 0.17586  0.55469  0.14206  Biso   1.000  N
  O73      1.0000 0.12329  0.43060  0.09916  Biso   1.000  O
  O74      1.0000 0.14882  0.43945  0.14259  Biso   1.000  O
  O75      1.0000 0.15817  0.54485  0.30117  Biso   1.000  O
  H651     1.0000 0.15260  0.54810  0.31960  Biso   1.000  H
  O76      1.0000 0.20922  0.54289  0.31103  Biso   1.000  O
  H652     1.0000 0.11890  0.48330  0.06670  Biso   1.000  H
  H653     1.0000 0.11570  0.51630  0.08170  Biso   1.000  H
  C564     1.0000 0.07760  0.48950  0.08960  Biso   1.000  C
  C565     1.0000 0.05560  0.47880  0.07010  Biso   1.000  C
  H654     1.0000 0.05950  0.47250  0.04960  Biso   1.000  H
  C566     1.0000 0.02400  0.47830  0.08520  Biso   1.000  C
  H655     1.0000 0.00580  0.47140  0.07520  Biso   1.000  H
  C567     1.0000 0.02460  0.48890  0.11470  Biso   1.000  C
  H656     1.0000 0.00720  0.49050  0.12770  Biso   1.000  H
  S38      1.0000 0.06178  0.49897  0.12523  Biso   1.000  S
  H657     1.0000 0.20800  0.60260  0.16090  Biso   1.000  H
  H658     1.0000 0.17870  0.62220  0.16990  Biso   1.000  H
  C568     1.0000 0.19860  0.63470  0.12670  Biso   1.000  C
  H659     1.0000 0.18020  0.64160  0.11520  Biso   1.000  H
  H660     1.0000 0.21270  0.62450  0.11210  Biso   1.000  H
  C569     1.0000 0.21520  0.66340  0.14230  Biso   1.000  C
  H661     1.0000 0.20090  0.67340  0.15700  Biso   1.000  H
  H662     1.0000 0.23340  0.65630  0.15400  Biso   1.000  H
  C570     1.0000 0.22550  0.68730  0.11740  Biso   1.000  C
  H663     1.0000 0.23570  0.70480  0.12740  Biso   1.000  H
  H664     1.0000 0.23990  0.67750  0.10300  Biso   1.000  H
  H665     1.0000 0.20740  0.69470  0.10610  Biso   1.000  H
  C571     1.0000 0.63520  0.94991  0.61829  Biso   1.000  C
  C572     1.0000 0.63285  0.98421  0.61206  Biso   1.000  C
  C573     1.0000 0.61230  0.99428  0.58527  Biso   1.000  C
  H666     1.0000 0.61510  0.98030  0.56780  Biso   1.000  H
  H667     1.0000 0.61810  0.01510  0.57880  Biso   1.000  H
  C574     1.0000 0.57828  0.99380  0.59560  Biso   1.000  C
  C575     1.0000 0.56650  0.99930  0.62410  Biso   1.000  C
  H668     1.0000 0.57880  0.00430  0.64150  Biso   1.000  H
  C576     1.0000 0.53170  0.99670  0.62500  Biso   1.000  C
  H669     1.0000 0.51960  0.99980  0.64290  Biso   1.000  H
  C577     1.0000 0.51980  0.98930  0.59720  Biso   1.000  C
  H670     1.0000 0.49850  0.98650  0.59330  Biso   1.000  H
  S39      1.0000 0.54877  0.98540  0.56945  Biso   1.000  S
  C578     1.0000 0.64993  0.00348  0.63018  Biso   1.000  C
  H671     1.0000 0.66320  0.99380  0.64460  Biso   1.000  H
  C579     1.0000 0.65031  0.03736  0.63016  Biso   1.000  C
  C580     1.0000 0.62788  0.05945  0.62371  Biso   1.000  C
  H672     1.0000 0.60810  0.05510  0.61550  Biso   1.000  H
  C581     1.0000 0.66799  0.08540  0.64246  Biso   1.000  C
  C582     1.0000 0.70376  0.04170  0.65760  Biso   1.000  C
  C583     1.0000 0.69896  0.04071  0.69283  Biso   1.000  C
  C584     1.0000 0.66913  0.04111  0.70626  Biso   1.000  C
  H673     1.0000 0.65150  0.04120  0.69330  Biso   1.000  H
  C585     1.0000 0.66539  0.04139  0.73830  Biso   1.000  C
  H674     1.0000 0.64530  0.04170  0.74690  Biso   1.000  H
  C586     1.0000 0.69128  0.04117  0.75784  Biso   1.000  C
  C587     1.0000 0.72101  0.03988  0.74464  Biso   1.000  C
  H675     1.0000 0.73860  0.03890  0.75760  Biso   1.000  H
  C588     1.0000 0.72471  0.04004  0.71268  Biso   1.000  C
  H676     1.0000 0.74480  0.03970  0.70420  Biso   1.000  H
  C589     1.0000 0.68735  0.04316  0.79225  Biso   1.000  C
  C590     1.0000 0.68888  0.11148  0.65282  Biso   1.000  C
  H677     1.0000 0.70070  0.10480  0.67090  Biso   1.000  H
  H678     1.0000 0.67620  0.12910  0.65890  Biso   1.000  H
  C591     1.0000 0.71200  0.12100  0.62630  Biso   1.000  C
  H679     1.0000 0.70040  0.12730  0.60770  Biso   1.000  H
  H680     1.0000 0.72530  0.10330  0.62080  Biso   1.000  H
  C592     1.0000 0.73240  0.14870  0.63830  Biso   1.000  C
  H681     1.0000 0.74070  0.14360  0.65890  Biso   1.000  H
  H682     1.0000 0.75010  0.15170  0.62420  Biso   1.000  H
  C593     1.0000 0.71360  0.17940  0.64030  Biso   1.000  C
  H683     1.0000 0.72690  0.19600  0.64770  Biso   1.000  H
  H684     1.0000 0.70570  0.18470  0.61980  Biso   1.000  H
  H685     1.0000 0.69630  0.17670  0.65450  Biso   1.000  H
  N39      1.0000 0.63881  0.08910  0.63112  Biso   1.000  N
  N40      1.0000 0.67586  0.05469  0.64206  Biso   1.000  N
  O77      1.0000 0.62329  0.93060  0.59916  Biso   1.000  O
  O78      1.0000 0.64882  0.93945  0.64259  Biso   1.000  O
  O79      1.0000 0.65817  0.04485  0.80117  Biso   1.000  O
  H686     1.0000 0.65260  0.04810  0.81960  Biso   1.000  H
  O80      1.0000 0.70922  0.04289  0.81103  Biso   1.000  O
  H687     1.0000 0.61890  0.98330  0.56670  Biso   1.000  H
  H688     1.0000 0.61570  0.01630  0.58170  Biso   1.000  H
  C594     1.0000 0.57760  0.98950  0.58960  Biso   1.000  C
  C595     1.0000 0.55560  0.97880  0.57010  Biso   1.000  C
  H689     1.0000 0.55950  0.97250  0.54960  Biso   1.000  H
  C596     1.0000 0.52400  0.97830  0.58520  Biso   1.000  C
  H690     1.0000 0.50580  0.97140  0.57520  Biso   1.000  H
  C597     1.0000 0.52460  0.98890  0.61470  Biso   1.000  C
  H691     1.0000 0.50720  0.99050  0.62770  Biso   1.000  H
  S40      1.0000 0.56178  0.99897  0.62523  Biso   1.000  S
  H692     1.0000 0.70800  0.10260  0.66090  Biso   1.000  H
  H693     1.0000 0.67870  0.12220  0.66990  Biso   1.000  H
  C598     1.0000 0.69860  0.13470  0.62670  Biso   1.000  C
  H694     1.0000 0.68020  0.14160  0.61520  Biso   1.000  H
  H695     1.0000 0.71270  0.12450  0.61210  Biso   1.000  H
  C599     1.0000 0.71520  0.16340  0.64230  Biso   1.000  C
  H696     1.0000 0.70090  0.17340  0.65700  Biso   1.000  H
  H697     1.0000 0.73340  0.15630  0.65400  Biso   1.000  H
  C600     1.0000 0.72550  0.18730  0.61740  Biso   1.000  C
  H698     1.0000 0.73570  0.20480  0.62740  Biso   1.000  H
  H699     1.0000 0.73990  0.17750  0.60300  Biso   1.000  H
  H700     1.0000 0.70740  0.19470  0.60610  Biso   1.000  H
  C601     1.0000 0.36480  0.55009  0.61829  Biso   1.000  C
  C602     1.0000 0.36715  0.51579  0.61206  Biso   1.000  C
  C603     1.0000 0.38770  0.50572  0.58527  Biso   1.000  C
  H701     1.0000 0.38490  0.51970  0.56780  Biso   1.000  H
  H702     1.0000 0.38190  0.48490  0.57880  Biso   1.000  H
  C604     1.0000 0.42172  0.50620  0.59560  Biso   1.000  C
  C605     1.0000 0.43350  0.50070  0.62410  Biso   1.000  C
  H703     1.0000 0.42120  0.49570  0.64150  Biso   1.000  H
  C606     1.0000 0.46830  0.50330  0.62500  Biso   1.000  C
  H704     1.0000 0.48040  0.50020  0.64290  Biso   1.000  H
  C607     1.0000 0.48020  0.51070  0.59720  Biso   1.000  C
  H705     1.0000 0.50150  0.51350  0.59330  Biso   1.000  H
  S41      1.0000 0.45123  0.51460  0.56945  Biso   1.000  S
  C608     1.0000 0.35007  0.49652  0.63018  Biso   1.000  C
  H706     1.0000 0.33680  0.50620  0.64460  Biso   1.000  H
  C609     1.0000 0.34969  0.46264  0.63016  Biso   1.000  C
  C610     1.0000 0.37212  0.44055  0.62371  Biso   1.000  C
  H707     1.0000 0.39190  0.44490  0.61550  Biso   1.000  H
  C611     1.0000 0.33201  0.41460  0.64246  Biso   1.000  C
  C612     1.0000 0.29624  0.45830  0.65760  Biso   1.000  C
  C613     1.0000 0.30104  0.45929  0.69283  Biso   1.000  C
  C614     1.0000 0.33087  0.45889  0.70626  Biso   1.000  C
  H708     1.0000 0.34850  0.45880  0.69330  Biso   1.000  H
  C615     1.0000 0.33461  0.45861  0.73830  Biso   1.000  C
  H709     1.0000 0.35470  0.45830  0.74690  Biso   1.000  H
  C616     1.0000 0.30872  0.45883  0.75784  Biso   1.000  C
  C617     1.0000 0.27899  0.46012  0.74464  Biso   1.000  C
  H710     1.0000 0.26140  0.46110  0.75760  Biso   1.000  H
  C618     1.0000 0.27529  0.45996  0.71268  Biso   1.000  C
  H711     1.0000 0.25520  0.46030  0.70420  Biso   1.000  H
  C619     1.0000 0.31265  0.45684  0.79225  Biso   1.000  C
  C620     1.0000 0.31112  0.38852  0.65282  Biso   1.000  C
  H712     1.0000 0.29930  0.39520  0.67090  Biso   1.000  H
  H713     1.0000 0.32380  0.37090  0.65890  Biso   1.000  H
  C621     1.0000 0.28800  0.37900  0.62630  Biso   1.000  C
  H714     1.0000 0.29960  0.37270  0.60770  Biso   1.000  H
  H715     1.0000 0.27470  0.39670  0.62080  Biso   1.000  H
  C622     1.0000 0.26760  0.35130  0.63830  Biso   1.000  C
  H716     1.0000 0.25930  0.35640  0.65890  Biso   1.000  H
  H717     1.0000 0.24990  0.34830  0.62420  Biso   1.000  H
  C623     1.0000 0.28640  0.32060  0.64030  Biso   1.000  C
  H718     1.0000 0.27310  0.30400  0.64770  Biso   1.000  H
  H719     1.0000 0.29430  0.31530  0.61980  Biso   1.000  H
  H720     1.0000 0.30370  0.32330  0.65450  Biso   1.000  H
  N41      1.0000 0.36119  0.41090  0.63112  Biso   1.000  N
  N42      1.0000 0.32414  0.44531  0.64206  Biso   1.000  N
  O81      1.0000 0.37671  0.56940  0.59916  Biso   1.000  O
  O82      1.0000 0.35118  0.56055  0.64259  Biso   1.000  O
  O83      1.0000 0.34183  0.45515  0.80117  Biso   1.000  O
  H721     1.0000 0.34740  0.45190  0.81960  Biso   1.000  H
  O84      1.0000 0.29078  0.45711  0.81103  Biso   1.000  O
  H722     1.0000 0.38110  0.51670  0.56670  Biso   1.000  H
  H723     1.0000 0.38430  0.48370  0.58170  Biso   1.000  H
  C624     1.0000 0.42240  0.51050  0.58960  Biso   1.000  C
  C625     1.0000 0.44440  0.52120  0.57010  Biso   1.000  C
  H724     1.0000 0.44050  0.52750  0.54960  Biso   1.000  H
  C626     1.0000 0.47600  0.52170  0.58520  Biso   1.000  C
  H725     1.0000 0.49420  0.52860  0.57520  Biso   1.000  H
  C627     1.0000 0.47540  0.51110  0.61470  Biso   1.000  C
  H726     1.0000 0.49280  0.50950  0.62770  Biso   1.000  H
  S42      1.0000 0.43822  0.50103  0.62523  Biso   1.000  S
  H727     1.0000 0.29200  0.39740  0.66090  Biso   1.000  H
  H728     1.0000 0.32130  0.37780  0.66990  Biso   1.000  H
  C628     1.0000 0.30140  0.36530  0.62670  Biso   1.000  C
  H729     1.0000 0.31980  0.35840  0.61520  Biso   1.000  H
  H730     1.0000 0.28730  0.37550  0.61210  Biso   1.000  H
  C629     1.0000 0.28480  0.33660  0.64230  Biso   1.000  C
  H731     1.0000 0.29910  0.32660  0.65700  Biso   1.000  H
  H732     1.0000 0.26660  0.34370  0.65400  Biso   1.000  H
  C630     1.0000 0.27450  0.31270  0.61740  Biso   1.000  C
  H733     1.0000 0.26430  0.29520  0.62740  Biso   1.000  H
  H734     1.0000 0.26010  0.32250  0.60300  Biso   1.000  H
  H735     1.0000 0.29260  0.30530  0.60610  Biso   1.000  H
  C631     1.0000 0.86480  0.05009  0.11829  Biso   1.000  C
  C632     1.0000 0.86715  0.01579  0.11206  Biso   1.000  C
  C633     1.0000 0.88770  0.00572  0.08527  Biso   1.000  C
  H736     1.0000 0.88490  0.01970  0.06780  Biso   1.000  H
  H737     1.0000 0.88190  0.98490  0.07880  Biso   1.000  H
  C634     1.0000 0.92172  0.00620  0.09560  Biso   1.000  C
  C635     1.0000 0.93350  0.00070  0.12410  Biso   1.000  C
  H738     1.0000 0.92120  0.99570  0.14150  Biso   1.000  H
  C636     1.0000 0.96830  0.00330  0.12500  Biso   1.000  C
  H739     1.0000 0.98040  0.00020  0.14290  Biso   1.000  H
  C637     1.0000 0.98020  0.01070  0.09720  Biso   1.000  C
  H740     1.0000 0.00150  0.01350  0.09330  Biso   1.000  H
  S43      1.0000 0.95123  0.01460  0.06945  Biso   1.000  S
  C638     1.0000 0.85007  0.99652  0.13018  Biso   1.000  C
  H741     1.0000 0.83680  0.00620  0.14460  Biso   1.000  H
  C639     1.0000 0.84969  0.96264  0.13016  Biso   1.000  C
  C640     1.0000 0.87212  0.94055  0.12371  Biso   1.000  C
  H742     1.0000 0.89190  0.94490  0.11550  Biso   1.000  H
  C641     1.0000 0.83201  0.91460  0.14246  Biso   1.000  C
  C642     1.0000 0.79624  0.95830  0.15760  Biso   1.000  C
  C643     1.0000 0.80104  0.95929  0.19283  Biso   1.000  C
  C644     1.0000 0.83087  0.95889  0.20626  Biso   1.000  C
  H743     1.0000 0.84850  0.95880  0.19330  Biso   1.000  H
  C645     1.0000 0.83461  0.95861  0.23830  Biso   1.000  C
  H744     1.0000 0.85470  0.95830  0.24690  Biso   1.000  H
  C646     1.0000 0.80872  0.95883  0.25784  Biso   1.000  C
  C647     1.0000 0.77899  0.96012  0.24464  Biso   1.000  C
  H745     1.0000 0.76140  0.96110  0.25760  Biso   1.000  H
  C648     1.0000 0.77529  0.95996  0.21268  Biso   1.000  C
  H746     1.0000 0.75520  0.96030  0.20420  Biso   1.000  H
  C649     1.0000 0.81265  0.95684  0.29225  Biso   1.000  C
  C650     1.0000 0.81112  0.88852  0.15282  Biso   1.000  C
  H747     1.0000 0.79930  0.89520  0.17090  Biso   1.000  H
  H748     1.0000 0.82380  0.87090  0.15890  Biso   1.000  H
  C651     1.0000 0.78800  0.87900  0.12630  Biso   1.000  C
  H749     1.0000 0.79960  0.87270  0.10770  Biso   1.000  H
  H750     1.0000 0.77470  0.89670  0.12080  Biso   1.000  H
  C652     1.0000 0.76760  0.85130  0.13830  Biso   1.000  C
  H751     1.0000 0.75930  0.85640  0.15890  Biso   1.000  H
  H752     1.0000 0.74990  0.84830  0.12420  Biso   1.000  H
  C653     1.0000 0.78640  0.82060  0.14030  Biso   1.000  C
  H753     1.0000 0.77310  0.80400  0.14770  Biso   1.000  H
  H754     1.0000 0.79430  0.81530  0.11980  Biso   1.000  H
  H755     1.0000 0.80370  0.82330  0.15450  Biso   1.000  H
  N43      1.0000 0.86119  0.91090  0.13112  Biso   1.000  N
  N44      1.0000 0.82414  0.94531  0.14206  Biso   1.000  N
  O85      1.0000 0.87671  0.06940  0.09916  Biso   1.000  O
  O86      1.0000 0.85118  0.06055  0.14259  Biso   1.000  O
  O87      1.0000 0.84183  0.95515  0.30117  Biso   1.000  O
  H756     1.0000 0.84740  0.95190  0.31960  Biso   1.000  H
  O88      1.0000 0.79078  0.95711  0.31103  Biso   1.000  O
  H757     1.0000 0.88110  0.01670  0.06670  Biso   1.000  H
  H758     1.0000 0.88430  0.98370  0.08170  Biso   1.000  H
  C654     1.0000 0.92240  0.01050  0.08960  Biso   1.000  C
  C655     1.0000 0.94440  0.02120  0.07010  Biso   1.000  C
  H759     1.0000 0.94050  0.02750  0.04960  Biso   1.000  H
  C656     1.0000 0.97600  0.02170  0.08520  Biso   1.000  C
  H760     1.0000 0.99420  0.02860  0.07520  Biso   1.000  H
  C657     1.0000 0.97540  0.01110  0.11470  Biso   1.000  C
  H761     1.0000 0.99280  0.00950  0.12770  Biso   1.000  H
  S44      1.0000 0.93822  0.00103  0.12523  Biso   1.000  S
  H762     1.0000 0.79200  0.89740  0.16090  Biso   1.000  H
  H763     1.0000 0.82130  0.87780  0.16990  Biso   1.000  H
  C658     1.0000 0.80140  0.86530  0.12670  Biso   1.000  C
  H764     1.0000 0.81980  0.85840  0.11520  Biso   1.000  H
  H765     1.0000 0.78730  0.87550  0.11210  Biso   1.000  H
  C659     1.0000 0.78480  0.83660  0.14230  Biso   1.000  C
  H766     1.0000 0.79910  0.82660  0.15700  Biso   1.000  H
  H767     1.0000 0.76660  0.84370  0.15400  Biso   1.000  H
  C660     1.0000 0.77450  0.81270  0.11740  Biso   1.000  C
  H768     1.0000 0.76430  0.79520  0.12740  Biso   1.000  H
  H769     1.0000 0.76010  0.82250  0.10300  Biso   1.000  H
  H770     1.0000 0.79260  0.80530  0.10610  Biso   1.000  H
  C661     1.0000 0.63520  0.05009  0.88171  Biso   1.000  C
  C662     1.0000 0.63285  0.01579  0.88794  Biso   1.000  C
  C663     1.0000 0.61230  0.00572  0.91473  Biso   1.000  C
  H771     1.0000 0.61510  0.01970  0.93220  Biso   1.000  H
  H772     1.0000 0.61810  0.98490  0.92120  Biso   1.000  H
  C664     1.0000 0.57828  0.00620  0.90440  Biso   1.000  C
  C665     1.0000 0.56650  0.00070  0.87590  Biso   1.000  C
  H773     1.0000 0.57880  0.99570  0.85850  Biso   1.000  H
  C666     1.0000 0.53170  0.00330  0.87500  Biso   1.000  C
  H774     1.0000 0.51960  0.00020  0.85710  Biso   1.000  H
  C667     1.0000 0.51980  0.01070  0.90280  Biso   1.000  C
  H775     1.0000 0.49850  0.01350  0.90670  Biso   1.000  H
  S45      1.0000 0.54877  0.01460  0.93055  Biso   1.000  S
  C668     1.0000 0.64993  0.99652  0.86982  Biso   1.000  C
  H776     1.0000 0.66320  0.00620  0.85540  Biso   1.000  H
  C669     1.0000 0.65031  0.96264  0.86984  Biso   1.000  C
  C670     1.0000 0.62788  0.94055  0.87629  Biso   1.000  C
  H777     1.0000 0.60810  0.94490  0.88450  Biso   1.000  H
  C671     1.0000 0.66799  0.91460  0.85754  Biso   1.000  C
  C672     1.0000 0.70376  0.95830  0.84240  Biso   1.000  C
  C673     1.0000 0.69896  0.95929  0.80717  Biso   1.000  C
  C674     1.0000 0.66913  0.95889  0.79374  Biso   1.000  C
  H778     1.0000 0.65150  0.95880  0.80670  Biso   1.000  H
  C675     1.0000 0.66539  0.95861  0.76170  Biso   1.000  C
  H779     1.0000 0.64530  0.95830  0.75310  Biso   1.000  H
  C676     1.0000 0.69128  0.95883  0.74216  Biso   1.000  C
  C677     1.0000 0.72101  0.96012  0.75536  Biso   1.000  C
  H780     1.0000 0.73860  0.96110  0.74240  Biso   1.000  H
  C678     1.0000 0.72471  0.95996  0.78732  Biso   1.000  C
  H781     1.0000 0.74480  0.96030  0.79580  Biso   1.000  H
  C679     1.0000 0.68735  0.95684  0.70775  Biso   1.000  C
  C680     1.0000 0.68888  0.88852  0.84718  Biso   1.000  C
  H782     1.0000 0.70070  0.89520  0.82910  Biso   1.000  H
  H783     1.0000 0.67620  0.87090  0.84110  Biso   1.000  H
  C681     1.0000 0.71200  0.87900  0.87370  Biso   1.000  C
  H784     1.0000 0.70040  0.87270  0.89230  Biso   1.000  H
  H785     1.0000 0.72530  0.89670  0.87920  Biso   1.000  H
  C682     1.0000 0.73240  0.85130  0.86170  Biso   1.000  C
  H786     1.0000 0.74070  0.85640  0.84110  Biso   1.000  H
  H787     1.0000 0.75010  0.84830  0.87580  Biso   1.000  H
  C683     1.0000 0.71360  0.82060  0.85970  Biso   1.000  C
  H788     1.0000 0.72690  0.80400  0.85230  Biso   1.000  H
  H789     1.0000 0.70570  0.81530  0.88020  Biso   1.000  H
  H790     1.0000 0.69630  0.82330  0.84550  Biso   1.000  H
  N45      1.0000 0.63881  0.91090  0.86888  Biso   1.000  N
  N46      1.0000 0.67586  0.94531  0.85794  Biso   1.000  N
  O89      1.0000 0.62329  0.06940  0.90084  Biso   1.000  O
  O90      1.0000 0.64882  0.06055  0.85741  Biso   1.000  O
  O91      1.0000 0.65817  0.95515  0.69883  Biso   1.000  O
  H791     1.0000 0.65260  0.95190  0.68040  Biso   1.000  H
  O92      1.0000 0.70922  0.95711  0.68897  Biso   1.000  O
  H792     1.0000 0.61890  0.01670  0.93330  Biso   1.000  H
  H793     1.0000 0.61570  0.98370  0.91830  Biso   1.000  H
  C684     1.0000 0.57760  0.01050  0.91040  Biso   1.000  C
  C685     1.0000 0.55560  0.02120  0.92990  Biso   1.000  C
  H794     1.0000 0.55950  0.02750  0.95040  Biso   1.000  H
  C686     1.0000 0.52400  0.02170  0.91480  Biso   1.000  C
  H795     1.0000 0.50580  0.02860  0.92480  Biso   1.000  H
  C687     1.0000 0.52460  0.01110  0.88530  Biso   1.000  C
  H796     1.0000 0.50720  0.00950  0.87230  Biso   1.000  H
  S46      1.0000 0.56178  0.00103  0.87477  Biso   1.000  S
  H797     1.0000 0.70800  0.89740  0.83910  Biso   1.000  H
  H798     1.0000 0.67870  0.87780  0.83010  Biso   1.000  H
  C688     1.0000 0.69860  0.86530  0.87330  Biso   1.000  C
  H799     1.0000 0.68020  0.85840  0.88480  Biso   1.000  H
  H800     1.0000 0.71270  0.87550  0.88790  Biso   1.000  H
  C689     1.0000 0.71520  0.83660  0.85770  Biso   1.000  C
  H801     1.0000 0.70090  0.82660  0.84300  Biso   1.000  H
  H802     1.0000 0.73340  0.84370  0.84600  Biso   1.000  H
  C690     1.0000 0.72550  0.81270  0.88260  Biso   1.000  C
  H803     1.0000 0.73570  0.79520  0.87260  Biso   1.000  H
  H804     1.0000 0.73990  0.82250  0.89700  Biso   1.000  H
  H805     1.0000 0.70740  0.80530  0.89390  Biso   1.000  H
  C691     1.0000 0.13520  0.55009  0.38171  Biso   1.000  C
  C692     1.0000 0.13285  0.51579  0.38794  Biso   1.000  C
  C693     1.0000 0.11230  0.50572  0.41473  Biso   1.000  C
  H806     1.0000 0.11510  0.51970  0.43220  Biso   1.000  H
  H807     1.0000 0.11810  0.48490  0.42120  Biso   1.000  H
  C694     1.0000 0.07828  0.50620  0.40440  Biso   1.000  C
  C695     1.0000 0.06650  0.50070  0.37590  Biso   1.000  C
  H808     1.0000 0.07880  0.49570  0.35850  Biso   1.000  H
  C696     1.0000 0.03170  0.50330  0.37500  Biso   1.000  C
  H809     1.0000 0.01960  0.50020  0.35710  Biso   1.000  H
  C697     1.0000 0.01980  0.51070  0.40280  Biso   1.000  C
  H810     1.0000 0.99850  0.51350  0.40670  Biso   1.000  H
  S47      1.0000 0.04877  0.51460  0.43055  Biso   1.000  S
  C698     1.0000 0.14993  0.49652  0.36982  Biso   1.000  C
  H811     1.0000 0.16320  0.50620  0.35540  Biso   1.000  H
  C699     1.0000 0.15031  0.46264  0.36984  Biso   1.000  C
  C700     1.0000 0.12788  0.44055  0.37629  Biso   1.000  C
  H812     1.0000 0.10810  0.44490  0.38450  Biso   1.000  H
  C701     1.0000 0.16799  0.41460  0.35754  Biso   1.000  C
  C702     1.0000 0.20376  0.45830  0.34240  Biso   1.000  C
  C703     1.0000 0.19896  0.45929  0.30717  Biso   1.000  C
  C704     1.0000 0.16913  0.45889  0.29374  Biso   1.000  C
  H813     1.0000 0.15150  0.45880  0.30670  Biso   1.000  H
  C705     1.0000 0.16539  0.45861  0.26170  Biso   1.000  C
  H814     1.0000 0.14530  0.45830  0.25310  Biso   1.000  H
  C706     1.0000 0.19128  0.45883  0.24216  Biso   1.000  C
  C707     1.0000 0.22101  0.46012  0.25536  Biso   1.000  C
  H815     1.0000 0.23860  0.46110  0.24240  Biso   1.000  H
  C708     1.0000 0.22471  0.45996  0.28732  Biso   1.000  C
  H816     1.0000 0.24480  0.46030  0.29580  Biso   1.000  H
  C709     1.0000 0.18735  0.45684  0.20775  Biso   1.000  C
  C710     1.0000 0.18888  0.38852  0.34718  Biso   1.000  C
  H817     1.0000 0.20070  0.39520  0.32910  Biso   1.000  H
  H818     1.0000 0.17620  0.37090  0.34110  Biso   1.000  H
  C711     1.0000 0.21200  0.37900  0.37370  Biso   1.000  C
  H819     1.0000 0.20040  0.37270  0.39230  Biso   1.000  H
  H820     1.0000 0.22530  0.39670  0.37920  Biso   1.000  H
  C712     1.0000 0.23240  0.35130  0.36170  Biso   1.000  C
  H821     1.0000 0.24070  0.35640  0.34110  Biso   1.000  H
  H822     1.0000 0.25010  0.34830  0.37580  Biso   1.000  H
  C713     1.0000 0.21360  0.32060  0.35970  Biso   1.000  C
  H823     1.0000 0.22690  0.30400  0.35230  Biso   1.000  H
  H824     1.0000 0.20570  0.31530  0.38020  Biso   1.000  H
  H825     1.0000 0.19630  0.32330  0.34550  Biso   1.000  H
  N47      1.0000 0.13881  0.41090  0.36888  Biso   1.000  N
  N48      1.0000 0.17586  0.44531  0.35794  Biso   1.000  N
  O93      1.0000 0.12329  0.56940  0.40084  Biso   1.000  O
  O94      1.0000 0.14882  0.56055  0.35741  Biso   1.000  O
  O95      1.0000 0.15817  0.45515  0.19883  Biso   1.000  O
  H826     1.0000 0.15260  0.45190  0.18040  Biso   1.000  H
  O96      1.0000 0.20922  0.45711  0.18897  Biso   1.000  O
  H827     1.0000 0.11890  0.51670  0.43330  Biso   1.000  H
  H828     1.0000 0.11570  0.48370  0.41830  Biso   1.000  H
  C714     1.0000 0.07760  0.51050  0.41040  Biso   1.000  C
  C715     1.0000 0.05560  0.52120  0.42990  Biso   1.000  C
  H829     1.0000 0.05950  0.52750  0.45040  Biso   1.000  H
  C716     1.0000 0.02400  0.52170  0.41480  Biso   1.000  C
  H830     1.0000 0.00580  0.52860  0.42480  Biso   1.000  H
  C717     1.0000 0.02460  0.51110  0.38530  Biso   1.000  C
  H831     1.0000 0.00720  0.50950  0.37230  Biso   1.000  H
  S48      1.0000 0.06178  0.50103  0.37477  Biso   1.000  S
  H832     1.0000 0.20800  0.39740  0.33910  Biso   1.000  H
  H833     1.0000 0.17870  0.37780  0.33010  Biso   1.000  H
  C718     1.0000 0.19860  0.36530  0.37330  Biso   1.000  C
  H834     1.0000 0.18020  0.35840  0.38480  Biso   1.000  H
  H835     1.0000 0.21270  0.37550  0.38790  Biso   1.000  H
  C719     1.0000 0.21520  0.33660  0.35770  Biso   1.000  C
  H836     1.0000 0.20090  0.32660  0.34300  Biso   1.000  H
  H837     1.0000 0.23340  0.34370  0.34600  Biso   1.000  H
  C720     1.0000 0.22550  0.31270  0.38260  Biso   1.000  C
  H838     1.0000 0.23570  0.29520  0.37260  Biso   1.000  H
  H839     1.0000 0.23990  0.32250  0.39700  Biso   1.000  H
  H840     1.0000 0.20740  0.30530  0.39390  Biso   1.000  H
  C721     1.0000 0.61480  0.63171  0.30009  Biso   1.000  C
  C722     1.0000 0.61715  0.63794  0.26579  Biso   1.000  C
  C723     1.0000 0.63770  0.66473  0.25572  Biso   1.000  C
  H841     1.0000 0.63490  0.68220  0.26970  Biso   1.000  H
  H842     1.0000 0.63190  0.67120  0.23490  Biso   1.000  H
  C724     1.0000 0.67172  0.65440  0.25620  Biso   1.000  C
  C725     1.0000 0.68350  0.62590  0.25070  Biso   1.000  C
  H843     1.0000 0.67120  0.60850  0.24570  Biso   1.000  H
  C726     1.0000 0.71830  0.62500  0.25330  Biso   1.000  C
  H844     1.0000 0.73040  0.60710  0.25020  Biso   1.000  H
  C727     1.0000 0.73020  0.65280  0.26070  Biso   1.000  C
  H845     1.0000 0.75150  0.65670  0.26350  Biso   1.000  H
  S49      1.0000 0.70123  0.68055  0.26460  Biso   1.000  S
  C728     1.0000 0.60007  0.61982  0.24652  Biso   1.000  C
  H846     1.0000 0.58680  0.60540  0.25620  Biso   1.000  H
  C729     1.0000 0.59969  0.61984  0.21264  Biso   1.000  C
  C730     1.0000 0.62212  0.62629  0.19055  Biso   1.000  C
  H847     1.0000 0.64190  0.63450  0.19490  Biso   1.000  H
  C731     1.0000 0.58201  0.60754  0.16460  Biso   1.000  C
  C732     1.0000 0.54624  0.59240  0.20830  Biso   1.000  C
  C733     1.0000 0.55104  0.55717  0.20929  Biso   1.000  C
  C734     1.0000 0.58087  0.54374  0.20889  Biso   1.000  C
  H848     1.0000 0.59850  0.55670  0.20880  Biso   1.000  H
  C735     1.0000 0.58461  0.51170  0.20861  Biso   1.000  C
  H849     1.0000 0.60470  0.50310  0.20830  Biso   1.000  H
  C736     1.0000 0.55872  0.49216  0.20883  Biso   1.000  C
  C737     1.0000 0.52899  0.50536  0.21012  Biso   1.000  C
  H850     1.0000 0.51140  0.49240  0.21110  Biso   1.000  H
  C738     1.0000 0.52529  0.53732  0.20996  Biso   1.000  C
  H851     1.0000 0.50520  0.54580  0.21030  Biso   1.000  H
  C739     1.0000 0.56265  0.45775  0.20684  Biso   1.000  C
  C740     1.0000 0.56112  0.59718  0.13852  Biso   1.000  C
  H852     1.0000 0.54930  0.57910  0.14520  Biso   1.000  H
  H853     1.0000 0.57380  0.59110  0.12090  Biso   1.000  H
  C741     1.0000 0.53800  0.62370  0.12900  Biso   1.000  C
  H854     1.0000 0.54960  0.64230  0.12270  Biso   1.000  H
  H855     1.0000 0.52470  0.62920  0.14670  Biso   1.000  H
  C742     1.0000 0.51760  0.61170  0.10130  Biso   1.000  C
  H856     1.0000 0.50930  0.59110  0.10640  Biso   1.000  H
  H857     1.0000 0.49990  0.62580  0.09830  Biso   1.000  H
  C743     1.0000 0.53640  0.60970  0.07060  Biso   1.000  C
  H858     1.0000 0.52310  0.60230  0.05400  Biso   1.000  H
  H859     1.0000 0.54430  0.63020  0.06530  Biso   1.000  H
  H860     1.0000 0.55370  0.59550  0.07330  Biso   1.000  H
  N49      1.0000 0.61119  0.61888  0.16090  Biso   1.000  N
  N50      1.0000 0.57414  0.60794  0.19531  Biso   1.000  N
  O97      1.0000 0.62671  0.65084  0.31940  Biso   1.000  O
  O98      1.0000 0.60118  0.60741  0.31055  Biso   1.000  O
  O99      1.0000 0.59183  0.44883  0.20515  Biso   1.000  O
  H861     1.0000 0.59740  0.43040  0.20190  Biso   1.000  H
  O100     1.0000 0.54078  0.43897  0.20711  Biso   1.000  O
  H862     1.0000 0.63110  0.68330  0.26670  Biso   1.000  H
  H863     1.0000 0.63430  0.66830  0.23370  Biso   1.000  H
  C744     1.0000 0.67240  0.66040  0.26050  Biso   1.000  C
  C745     1.0000 0.69440  0.67990  0.27120  Biso   1.000  C
  H864     1.0000 0.69050  0.70040  0.27750  Biso   1.000  H
  C746     1.0000 0.72600  0.66480  0.27170  Biso   1.000  C
  H865     1.0000 0.74420  0.67480  0.27860  Biso   1.000  H
  C747     1.0000 0.72540  0.63530  0.26110  Biso   1.000  C
  H866     1.0000 0.74280  0.62230  0.25950  Biso   1.000  H
  S50      1.0000 0.68822  0.62477  0.25103  Biso   1.000  S
  H867     1.0000 0.54200  0.58910  0.14740  Biso   1.000  H
  H868     1.0000 0.57130  0.58010  0.12780  Biso   1.000  H
  C748     1.0000 0.55140  0.62330  0.11530  Biso   1.000  C
  H869     1.0000 0.56980  0.63480  0.10840  Biso   1.000  H
  H870     1.0000 0.53730  0.63790  0.12550  Biso   1.000  H
  C749     1.0000 0.53480  0.60770  0.08660  Biso   1.000  C
  H871     1.0000 0.54910  0.59300  0.07660  Biso   1.000  H
  H872     1.0000 0.51660  0.59600  0.09370  Biso   1.000  H
  C750     1.0000 0.52450  0.63260  0.06270  Biso   1.000  C
  H873     1.0000 0.51430  0.62260  0.04520  Biso   1.000  H
  H874     1.0000 0.51010  0.64700  0.07250  Biso   1.000  H
  H875     1.0000 0.54260  0.64390  0.05530  Biso   1.000  H
  C751     1.0000 0.11480  0.13171  0.80009  Biso   1.000  C
  C752     1.0000 0.11715  0.13794  0.76579  Biso   1.000  C
  C753     1.0000 0.13770  0.16473  0.75572  Biso   1.000  C
  H876     1.0000 0.13490  0.18220  0.76970  Biso   1.000  H
  H877     1.0000 0.13190  0.17120  0.73490  Biso   1.000  H
  C754     1.0000 0.17172  0.15440  0.75620  Biso   1.000  C
  C755     1.0000 0.18350  0.12590  0.75070  Biso   1.000  C
  H878     1.0000 0.17120  0.10850  0.74570  Biso   1.000  H
  C756     1.0000 0.21830  0.12500  0.75330  Biso   1.000  C
  H879     1.0000 0.23040  0.10710  0.75020  Biso   1.000  H
  C757     1.0000 0.23020  0.15280  0.76070  Biso   1.000  C
  H880     1.0000 0.25150  0.15670  0.76350  Biso   1.000  H
  S51      1.0000 0.20123  0.18055  0.76460  Biso   1.000  S
  C758     1.0000 0.10007  0.11982  0.74652  Biso   1.000  C
  H881     1.0000 0.08680  0.10540  0.75620  Biso   1.000  H
  C759     1.0000 0.09969  0.11984  0.71264  Biso   1.000  C
  C760     1.0000 0.12212  0.12629  0.69055  Biso   1.000  C
  H882     1.0000 0.14190  0.13450  0.69490  Biso   1.000  H
  C761     1.0000 0.08201  0.10754  0.66460  Biso   1.000  C
  C762     1.0000 0.04624  0.09240  0.70830  Biso   1.000  C
  C763     1.0000 0.05104  0.05717  0.70929  Biso   1.000  C
  C764     1.0000 0.08087  0.04374  0.70889  Biso   1.000  C
  H883     1.0000 0.09850  0.05670  0.70880  Biso   1.000  H
  C765     1.0000 0.08461  0.01170  0.70861  Biso   1.000  C
  H884     1.0000 0.10470  0.00310  0.70830  Biso   1.000  H
  C766     1.0000 0.05872  0.99216  0.70883  Biso   1.000  C
  C767     1.0000 0.02899  0.00536  0.71012  Biso   1.000  C
  H885     1.0000 0.01140  0.99240  0.71110  Biso   1.000  H
  C768     1.0000 0.02529  0.03732  0.70996  Biso   1.000  C
  H886     1.0000 0.00520  0.04580  0.71030  Biso   1.000  H
  C769     1.0000 0.06265  0.95775  0.70684  Biso   1.000  C
  C770     1.0000 0.06112  0.09718  0.63852  Biso   1.000  C
  H887     1.0000 0.04930  0.07910  0.64520  Biso   1.000  H
  H888     1.0000 0.07380  0.09110  0.62090  Biso   1.000  H
  C771     1.0000 0.03800  0.12370  0.62900  Biso   1.000  C
  H889     1.0000 0.04960  0.14230  0.62270  Biso   1.000  H
  H890     1.0000 0.02470  0.12920  0.64670  Biso   1.000  H
  C772     1.0000 0.01760  0.11170  0.60130  Biso   1.000  C
  H891     1.0000 0.00930  0.09110  0.60640  Biso   1.000  H
  H892     1.0000 0.99990  0.12580  0.59830  Biso   1.000  H
  C773     1.0000 0.03640  0.10970  0.57060  Biso   1.000  C
  H893     1.0000 0.02310  0.10230  0.55400  Biso   1.000  H
  H894     1.0000 0.04430  0.13020  0.56530  Biso   1.000  H
  H895     1.0000 0.05370  0.09550  0.57330  Biso   1.000  H
  N51      1.0000 0.11119  0.11888  0.66090  Biso   1.000  N
  N52      1.0000 0.07414  0.10794  0.69531  Biso   1.000  N
  O101     1.0000 0.12671  0.15084  0.81940  Biso   1.000  O
  O102     1.0000 0.10118  0.10741  0.81055  Biso   1.000  O
  O103     1.0000 0.09183  0.94883  0.70515  Biso   1.000  O
  H896     1.0000 0.09740  0.93040  0.70190  Biso   1.000  H
  O104     1.0000 0.04078  0.93897  0.70711  Biso   1.000  O
  H897     1.0000 0.13110  0.18330  0.76670  Biso   1.000  H
  H898     1.0000 0.13430  0.16830  0.73370  Biso   1.000  H
  C774     1.0000 0.17240  0.16040  0.76050  Biso   1.000  C
  C775     1.0000 0.19440  0.17990  0.77120  Biso   1.000  C
  H899     1.0000 0.19050  0.20040  0.77750  Biso   1.000  H
  C776     1.0000 0.22600  0.16480  0.77170  Biso   1.000  C
  H900     1.0000 0.24420  0.17480  0.77860  Biso   1.000  H
  C777     1.0000 0.22540  0.13530  0.76110  Biso   1.000  C
  H901     1.0000 0.24280  0.12230  0.75950  Biso   1.000  H
  S52      1.0000 0.18822  0.12477  0.75103  Biso   1.000  S
  H902     1.0000 0.04200  0.08910  0.64740  Biso   1.000  H
  H903     1.0000 0.07130  0.08010  0.62780  Biso   1.000  H
  C778     1.0000 0.05140  0.12330  0.61530  Biso   1.000  C
  H904     1.0000 0.06980  0.13480  0.60840  Biso   1.000  H
  H905     1.0000 0.03730  0.13790  0.62550  Biso   1.000  H
  C779     1.0000 0.03480  0.10770  0.58660  Biso   1.000  C
  H906     1.0000 0.04910  0.09300  0.57660  Biso   1.000  H
  H907     1.0000 0.01660  0.09600  0.59370  Biso   1.000  H
  C780     1.0000 0.02450  0.13260  0.56270  Biso   1.000  C
  H908     1.0000 0.01430  0.12260  0.54520  Biso   1.000  H
  H909     1.0000 0.01010  0.14700  0.57250  Biso   1.000  H
  H910     1.0000 0.04260  0.14390  0.55530  Biso   1.000  H
  C781     1.0000 0.88520  0.36829  0.80009  Biso   1.000  C
  C782     1.0000 0.88285  0.36206  0.76579  Biso   1.000  C
  C783     1.0000 0.86230  0.33527  0.75572  Biso   1.000  C
  H911     1.0000 0.86510  0.31780  0.76970  Biso   1.000  H
  H912     1.0000 0.86810  0.32880  0.73490  Biso   1.000  H
  C784     1.0000 0.82828  0.34560  0.75620  Biso   1.000  C
  C785     1.0000 0.81650  0.37410  0.75070  Biso   1.000  C
  H913     1.0000 0.82880  0.39150  0.74570  Biso   1.000  H
  C786     1.0000 0.78170  0.37500  0.75330  Biso   1.000  C
  H914     1.0000 0.76960  0.39290  0.75020  Biso   1.000  H
  C787     1.0000 0.76980  0.34720  0.76070  Biso   1.000  C
  H915     1.0000 0.74850  0.34330  0.76350  Biso   1.000  H
  S53      1.0000 0.79877  0.31945  0.76460  Biso   1.000  S
  C788     1.0000 0.89993  0.38018  0.74652  Biso   1.000  C
  H916     1.0000 0.91320  0.39460  0.75620  Biso   1.000  H
  C789     1.0000 0.90031  0.38016  0.71264  Biso   1.000  C
  C790     1.0000 0.87788  0.37371  0.69055  Biso   1.000  C
  H917     1.0000 0.85810  0.36550  0.69490  Biso   1.000  H
  C791     1.0000 0.91799  0.39246  0.66460  Biso   1.000  C
  C792     1.0000 0.95376  0.40760  0.70830  Biso   1.000  C
  C793     1.0000 0.94896  0.44283  0.70929  Biso   1.000  C
  C794     1.0000 0.91913  0.45626  0.70889  Biso   1.000  C
  H918     1.0000 0.90150  0.44330  0.70880  Biso   1.000  H
  C795     1.0000 0.91539  0.48830  0.70861  Biso   1.000  C
  H919     1.0000 0.89530  0.49690  0.70830  Biso   1.000  H
  C796     1.0000 0.94128  0.50784  0.70883  Biso   1.000  C
  C797     1.0000 0.97101  0.49464  0.71012  Biso   1.000  C
  H920     1.0000 0.98860  0.50760  0.71110  Biso   1.000  H
  C798     1.0000 0.97471  0.46268  0.70996  Biso   1.000  C
  H921     1.0000 0.99480  0.45420  0.71030  Biso   1.000  H
  C799     1.0000 0.93735  0.54225  0.70684  Biso   1.000  C
  C800     1.0000 0.93888  0.40282  0.63852  Biso   1.000  C
  H922     1.0000 0.95070  0.42090  0.64520  Biso   1.000  H
  H923     1.0000 0.92620  0.40890  0.62090  Biso   1.000  H
  C801     1.0000 0.96200  0.37630  0.62900  Biso   1.000  C
  H924     1.0000 0.95040  0.35770  0.62270  Biso   1.000  H
  H925     1.0000 0.97530  0.37080  0.64670  Biso   1.000  H
  C802     1.0000 0.98240  0.38830  0.60130  Biso   1.000  C
  H926     1.0000 0.99070  0.40890  0.60640  Biso   1.000  H
  H927     1.0000 0.00010  0.37420  0.59830  Biso   1.000  H
  C803     1.0000 0.96360  0.39030  0.57060  Biso   1.000  C
  H928     1.0000 0.97690  0.39770  0.55400  Biso   1.000  H
  H929     1.0000 0.95570  0.36980  0.56530  Biso   1.000  H
  H930     1.0000 0.94630  0.40450  0.57330  Biso   1.000  H
  N53      1.0000 0.88881  0.38112  0.66090  Biso   1.000  N
  N54      1.0000 0.92586  0.39206  0.69531  Biso   1.000  N
  O105     1.0000 0.87329  0.34916  0.81940  Biso   1.000  O
  O106     1.0000 0.89882  0.39259  0.81055  Biso   1.000  O
  O107     1.0000 0.90817  0.55117  0.70515  Biso   1.000  O
  H931     1.0000 0.90260  0.56960  0.70190  Biso   1.000  H
  O108     1.0000 0.95922  0.56103  0.70711  Biso   1.000  O
  H932     1.0000 0.86890  0.31670  0.76670  Biso   1.000  H
  H933     1.0000 0.86570  0.33170  0.73370  Biso   1.000  H
  C804     1.0000 0.82760  0.33960  0.76050  Biso   1.000  C
  C805     1.0000 0.80560  0.32010  0.77120  Biso   1.000  C
  H934     1.0000 0.80950  0.29960  0.77750  Biso   1.000  H
  C806     1.0000 0.77400  0.33520  0.77170  Biso   1.000  C
  H935     1.0000 0.75580  0.32520  0.77860  Biso   1.000  H
  C807     1.0000 0.77460  0.36470  0.76110  Biso   1.000  C
  H936     1.0000 0.75720  0.37770  0.75950  Biso   1.000  H
  S54      1.0000 0.81178  0.37523  0.75103  Biso   1.000  S
  H937     1.0000 0.95800  0.41090  0.64740  Biso   1.000  H
  H938     1.0000 0.92870  0.41990  0.62780  Biso   1.000  H
  C808     1.0000 0.94860  0.37670  0.61530  Biso   1.000  C
  H939     1.0000 0.93020  0.36520  0.60840  Biso   1.000  H
  H940     1.0000 0.96270  0.36210  0.62550  Biso   1.000  H
  C809     1.0000 0.96520  0.39230  0.58660  Biso   1.000  C
  H941     1.0000 0.95090  0.40700  0.57660  Biso   1.000  H
  H942     1.0000 0.98340  0.40400  0.59370  Biso   1.000  H
  C810     1.0000 0.97550  0.36740  0.56270  Biso   1.000  C
  H943     1.0000 0.98570  0.37740  0.54520  Biso   1.000  H
  H944     1.0000 0.98990  0.35300  0.57250  Biso   1.000  H
  H945     1.0000 0.95740  0.35610  0.55530  Biso   1.000  H
  C811     1.0000 0.38520  0.86829  0.30009  Biso   1.000  C
  C812     1.0000 0.38285  0.86206  0.26579  Biso   1.000  C
  C813     1.0000 0.36230  0.83527  0.25572  Biso   1.000  C
  H946     1.0000 0.36510  0.81780  0.26970  Biso   1.000  H
  H947     1.0000 0.36810  0.82880  0.23490  Biso   1.000  H
  C814     1.0000 0.32828  0.84560  0.25620  Biso   1.000  C
  C815     1.0000 0.31650  0.87410  0.25070  Biso   1.000  C
  H948     1.0000 0.32880  0.89150  0.24570  Biso   1.000  H
  C816     1.0000 0.28170  0.87500  0.25330  Biso   1.000  C
  H949     1.0000 0.26960  0.89290  0.25020  Biso   1.000  H
  C817     1.0000 0.26980  0.84720  0.26070  Biso   1.000  C
  H950     1.0000 0.24850  0.84330  0.26350  Biso   1.000  H
  S55      1.0000 0.29877  0.81945  0.26460  Biso   1.000  S
  C818     1.0000 0.39993  0.88018  0.24652  Biso   1.000  C
  H951     1.0000 0.41320  0.89460  0.25620  Biso   1.000  H
  C819     1.0000 0.40031  0.88016  0.21264  Biso   1.000  C
  C820     1.0000 0.37788  0.87371  0.19055  Biso   1.000  C
  H952     1.0000 0.35810  0.86550  0.19490  Biso   1.000  H
  C821     1.0000 0.41799  0.89246  0.16460  Biso   1.000  C
  C822     1.0000 0.45376  0.90760  0.20830  Biso   1.000  C
  C823     1.0000 0.44896  0.94283  0.20929  Biso   1.000  C
  C824     1.0000 0.41913  0.95626  0.20889  Biso   1.000  C
  H953     1.0000 0.40150  0.94330  0.20880  Biso   1.000  H
  C825     1.0000 0.41539  0.98830  0.20861  Biso   1.000  C
  H954     1.0000 0.39530  0.99690  0.20830  Biso   1.000  H
  C826     1.0000 0.44128  0.00784  0.20883  Biso   1.000  C
  C827     1.0000 0.47101  0.99464  0.21012  Biso   1.000  C
  H955     1.0000 0.48860  0.00760  0.21110  Biso   1.000  H
  C828     1.0000 0.47471  0.96268  0.20996  Biso   1.000  C
  H956     1.0000 0.49480  0.95420  0.21030  Biso   1.000  H
  C829     1.0000 0.43735  0.04225  0.20684  Biso   1.000  C
  C830     1.0000 0.43888  0.90282  0.13852  Biso   1.000  C
  H957     1.0000 0.45070  0.92090  0.14520  Biso   1.000  H
  H958     1.0000 0.42620  0.90890  0.12090  Biso   1.000  H
  C831     1.0000 0.46200  0.87630  0.12900  Biso   1.000  C
  H959     1.0000 0.45040  0.85770  0.12270  Biso   1.000  H
  H960     1.0000 0.47530  0.87080  0.14670  Biso   1.000  H
  C832     1.0000 0.48240  0.88830  0.10130  Biso   1.000  C
  H961     1.0000 0.49070  0.90890  0.10640  Biso   1.000  H
  H962     1.0000 0.50010  0.87420  0.09830  Biso   1.000  H
  C833     1.0000 0.46360  0.89030  0.07060  Biso   1.000  C
  H963     1.0000 0.47690  0.89770  0.05400  Biso   1.000  H
  H964     1.0000 0.45570  0.86980  0.06530  Biso   1.000  H
  H965     1.0000 0.44630  0.90450  0.07330  Biso   1.000  H
  N55      1.0000 0.38881  0.88112  0.16090  Biso   1.000  N
  N56      1.0000 0.42586  0.89206  0.19531  Biso   1.000  N
  O109     1.0000 0.37329  0.84916  0.31940  Biso   1.000  O
  O110     1.0000 0.39882  0.89259  0.31055  Biso   1.000  O
  O111     1.0000 0.40817  0.05117  0.20515  Biso   1.000  O
  H966     1.0000 0.40260  0.06960  0.20190  Biso   1.000  H
  O112     1.0000 0.45922  0.06103  0.20711  Biso   1.000  O
  H967     1.0000 0.36890  0.81670  0.26670  Biso   1.000  H
  H968     1.0000 0.36570  0.83170  0.23370  Biso   1.000  H
  C834     1.0000 0.32760  0.83960  0.26050  Biso   1.000  C
  C835     1.0000 0.30560  0.82010  0.27120  Biso   1.000  C
  H969     1.0000 0.30950  0.79960  0.27750  Biso   1.000  H
  C836     1.0000 0.27400  0.83520  0.27170  Biso   1.000  C
  H970     1.0000 0.25580  0.82520  0.27860  Biso   1.000  H
  C837     1.0000 0.27460  0.86470  0.26110  Biso   1.000  C
  H971     1.0000 0.25720  0.87770  0.25950  Biso   1.000  H
  S56      1.0000 0.31178  0.87523  0.25103  Biso   1.000  S
  H972     1.0000 0.45800  0.91090  0.14740  Biso   1.000  H
  H973     1.0000 0.42870  0.91990  0.12780  Biso   1.000  H
  C838     1.0000 0.44860  0.87670  0.11530  Biso   1.000  C
  H974     1.0000 0.43020  0.86520  0.10840  Biso   1.000  H
  H975     1.0000 0.46270  0.86210  0.12550  Biso   1.000  H
  C839     1.0000 0.46520  0.89230  0.08660  Biso   1.000  C
  H976     1.0000 0.45090  0.90700  0.07660  Biso   1.000  H
  H977     1.0000 0.48340  0.90400  0.09370  Biso   1.000  H
  C840     1.0000 0.47550  0.86740  0.06270  Biso   1.000  C
  H978     1.0000 0.48570  0.87740  0.04520  Biso   1.000  H
  H979     1.0000 0.48990  0.85300  0.07250  Biso   1.000  H
  H980     1.0000 0.45740  0.85610  0.05530  Biso   1.000  H
  C841     1.0000 0.11480  0.86829  0.69991  Biso   1.000  C
  C842     1.0000 0.11715  0.86206  0.73421  Biso   1.000  C
  C843     1.0000 0.13770  0.83527  0.74428  Biso   1.000  C
  H981     1.0000 0.13490  0.81780  0.73030  Biso   1.000  H
  H982     1.0000 0.13190  0.82880  0.76510  Biso   1.000  H
  C844     1.0000 0.17172  0.84560  0.74380  Biso   1.000  C
  C845     1.0000 0.18350  0.87410  0.74930  Biso   1.000  C
  H983     1.0000 0.17120  0.89150  0.75430  Biso   1.000  H
  C846     1.0000 0.21830  0.87500  0.74670  Biso   1.000  C
  H984     1.0000 0.23040  0.89290  0.74980  Biso   1.000  H
  C847     1.0000 0.23020  0.84720  0.73930  Biso   1.000  C
  H985     1.0000 0.25150  0.84330  0.73650  Biso   1.000  H
  S57      1.0000 0.20123  0.81945  0.73540  Biso   1.000  S
  C848     1.0000 0.10007  0.88018  0.75348  Biso   1.000  C
  H986     1.0000 0.08680  0.89460  0.74380  Biso   1.000  H
  C849     1.0000 0.09969  0.88016  0.78736  Biso   1.000  C
  C850     1.0000 0.12212  0.87371  0.80945  Biso   1.000  C
  H987     1.0000 0.14190  0.86550  0.80510  Biso   1.000  H
  C851     1.0000 0.08201  0.89246  0.83540  Biso   1.000  C
  C852     1.0000 0.04624  0.90760  0.79170  Biso   1.000  C
  C853     1.0000 0.05104  0.94283  0.79071  Biso   1.000  C
  C854     1.0000 0.08087  0.95626  0.79111  Biso   1.000  C
  H988     1.0000 0.09850  0.94330  0.79120  Biso   1.000  H
  C855     1.0000 0.08461  0.98830  0.79139  Biso   1.000  C
  H989     1.0000 0.10470  0.99690  0.79170  Biso   1.000  H
  C856     1.0000 0.05872  0.00784  0.79117  Biso   1.000  C
  C857     1.0000 0.02899  0.99464  0.78988  Biso   1.000  C
  H990     1.0000 0.01140  0.00760  0.78890  Biso   1.000  H
  C858     1.0000 0.02529  0.96268  0.79004  Biso   1.000  C
  H991     1.0000 0.00520  0.95420  0.78970  Biso   1.000  H
  C859     1.0000 0.06265  0.04225  0.79316  Biso   1.000  C
  C860     1.0000 0.06112  0.90282  0.86148  Biso   1.000  C
  H992     1.0000 0.04930  0.92090  0.85480  Biso   1.000  H
  H993     1.0000 0.07380  0.90890  0.87910  Biso   1.000  H
  C861     1.0000 0.03800  0.87630  0.87100  Biso   1.000  C
  H994     1.0000 0.04960  0.85770  0.87730  Biso   1.000  H
  H995     1.0000 0.02470  0.87080  0.85330  Biso   1.000  H
  C862     1.0000 0.01760  0.88830  0.89870  Biso   1.000  C
  H996     1.0000 0.00930  0.90890  0.89360  Biso   1.000  H
  H997     1.0000 0.99990  0.87420  0.90170  Biso   1.000  H
  C863     1.0000 0.03640  0.89030  0.92940  Biso   1.000  C
  H998     1.0000 0.02310  0.89770  0.94600  Biso   1.000  H
  H999     1.0000 0.04430  0.86980  0.93470  Biso   1.000  H
  H1000    1.0000 0.05370  0.90450  0.92670  Biso   1.000  H
  N57      1.0000 0.11119  0.88112  0.83910  Biso   1.000  N
  N58      1.0000 0.07414  0.89206  0.80469  Biso   1.000  N
  O113     1.0000 0.12671  0.84916  0.68060  Biso   1.000  O
  O114     1.0000 0.10118  0.89259  0.68945  Biso   1.000  O
  O115     1.0000 0.09183  0.05117  0.79485  Biso   1.000  O
  H1001    1.0000 0.09740  0.06960  0.79810  Biso   1.000  H
  O116     1.0000 0.04078  0.06103  0.79289  Biso   1.000  O
  H1002    1.0000 0.13110  0.81670  0.73330  Biso   1.000  H
  H1003    1.0000 0.13430  0.83170  0.76630  Biso   1.000  H
  C864     1.0000 0.17240  0.83960  0.73950  Biso   1.000  C
  C865     1.0000 0.19440  0.82010  0.72880  Biso   1.000  C
  H1004    1.0000 0.19050  0.79960  0.72250  Biso   1.000  H
  C866     1.0000 0.22600  0.83520  0.72830  Biso   1.000  C
  H1005    1.0000 0.24420  0.82520  0.72140  Biso   1.000  H
  C867     1.0000 0.22540  0.86470  0.73890  Biso   1.000  C
  H1006    1.0000 0.24280  0.87770  0.74050  Biso   1.000  H
  S58      1.0000 0.18822  0.87523  0.74897  Biso   1.000  S
  H1007    1.0000 0.04200  0.91090  0.85260  Biso   1.000  H
  H1008    1.0000 0.07130  0.91990  0.87220  Biso   1.000  H
  C868     1.0000 0.05140  0.87670  0.88470  Biso   1.000  C
  H1009    1.0000 0.06980  0.86520  0.89160  Biso   1.000  H
  H1010    1.0000 0.03730  0.86210  0.87450  Biso   1.000  H
  C869     1.0000 0.03480  0.89230  0.91340  Biso   1.000  C
  H1011    1.0000 0.04910  0.90700  0.92340  Biso   1.000  H
  H1012    1.0000 0.01660  0.90400  0.90630  Biso   1.000  H
  C870     1.0000 0.02450  0.86740  0.93730  Biso   1.000  C
  H1013    1.0000 0.01430  0.87740  0.95480  Biso   1.000  H
  H1014    1.0000 0.01010  0.85300  0.92750  Biso   1.000  H
  H1015    1.0000 0.04260  0.85610  0.94470  Biso   1.000  H
  C871     1.0000 0.61480  0.36829  0.19991  Biso   1.000  C
  C872     1.0000 0.61715  0.36206  0.23421  Biso   1.000  C
  C873     1.0000 0.63770  0.33527  0.24428  Biso   1.000  C
  H1016    1.0000 0.63490  0.31780  0.23030  Biso   1.000  H
  H1017    1.0000 0.63190  0.32880  0.26510  Biso   1.000  H
  C874     1.0000 0.67172  0.34560  0.24380  Biso   1.000  C
  C875     1.0000 0.68350  0.37410  0.24930  Biso   1.000  C
  H1018    1.0000 0.67120  0.39150  0.25430  Biso   1.000  H
  C876     1.0000 0.71830  0.37500  0.24670  Biso   1.000  C
  H1019    1.0000 0.73040  0.39290  0.24980  Biso   1.000  H
  C877     1.0000 0.73020  0.34720  0.23930  Biso   1.000  C
  H1020    1.0000 0.75150  0.34330  0.23650  Biso   1.000  H
  S59      1.0000 0.70123  0.31945  0.23540  Biso   1.000  S
  C878     1.0000 0.60007  0.38018  0.25348  Biso   1.000  C
  H1021    1.0000 0.58680  0.39460  0.24380  Biso   1.000  H
  C879     1.0000 0.59969  0.38016  0.28736  Biso   1.000  C
  C880     1.0000 0.62212  0.37371  0.30945  Biso   1.000  C
  H1022    1.0000 0.64190  0.36550  0.30510  Biso   1.000  H
  C881     1.0000 0.58201  0.39246  0.33540  Biso   1.000  C
  C882     1.0000 0.54624  0.40760  0.29170  Biso   1.000  C
  C883     1.0000 0.55104  0.44283  0.29071  Biso   1.000  C
  C884     1.0000 0.58087  0.45626  0.29111  Biso   1.000  C
  H1023    1.0000 0.59850  0.44330  0.29120  Biso   1.000  H
  C885     1.0000 0.58461  0.48830  0.29139  Biso   1.000  C
  H1024    1.0000 0.60470  0.49690  0.29170  Biso   1.000  H
  C886     1.0000 0.55872  0.50784  0.29117  Biso   1.000  C
  C887     1.0000 0.52899  0.49464  0.28988  Biso   1.000  C
  H1025    1.0000 0.51140  0.50760  0.28890  Biso   1.000  H
  C888     1.0000 0.52529  0.46268  0.29004  Biso   1.000  C
  H1026    1.0000 0.50520  0.45420  0.28970  Biso   1.000  H
  C889     1.0000 0.56265  0.54225  0.29316  Biso   1.000  C
  C890     1.0000 0.56112  0.40282  0.36148  Biso   1.000  C
  H1027    1.0000 0.54930  0.42090  0.35480  Biso   1.000  H
  H1028    1.0000 0.57380  0.40890  0.37910  Biso   1.000  H
  C891     1.0000 0.53800  0.37630  0.37100  Biso   1.000  C
  H1029    1.0000 0.54960  0.35770  0.37730  Biso   1.000  H
  H1030    1.0000 0.52470  0.37080  0.35330  Biso   1.000  H
  C892     1.0000 0.51760  0.38830  0.39870  Biso   1.000  C
  H1031    1.0000 0.50930  0.40890  0.39360  Biso   1.000  H
  H1032    1.0000 0.49990  0.37420  0.40170  Biso   1.000  H
  C893     1.0000 0.53640  0.39030  0.42940  Biso   1.000  C
  H1033    1.0000 0.52310  0.39770  0.44600  Biso   1.000  H
  H1034    1.0000 0.54430  0.36980  0.43470  Biso   1.000  H
  H1035    1.0000 0.55370  0.40450  0.42670  Biso   1.000  H
  N59      1.0000 0.61119  0.38112  0.33910  Biso   1.000  N
  N60      1.0000 0.57414  0.39206  0.30469  Biso   1.000  N
  O117     1.0000 0.62671  0.34916  0.18060  Biso   1.000  O
  O118     1.0000 0.60118  0.39259  0.18945  Biso   1.000  O
  O119     1.0000 0.59183  0.55117  0.29485  Biso   1.000  O
  H1036    1.0000 0.59740  0.56960  0.29810  Biso   1.000  H
  O120     1.0000 0.54078  0.56103  0.29289  Biso   1.000  O
  H1037    1.0000 0.63110  0.31670  0.23330  Biso   1.000  H
  H1038    1.0000 0.63430  0.33170  0.26630  Biso   1.000  H
  C894     1.0000 0.67240  0.33960  0.23950  Biso   1.000  C
  C895     1.0000 0.69440  0.32010  0.22880  Biso   1.000  C
  H1039    1.0000 0.69050  0.29960  0.22250  Biso   1.000  H
  C896     1.0000 0.72600  0.33520  0.22830  Biso   1.000  C
  H1040    1.0000 0.74420  0.32520  0.22140  Biso   1.000  H
  C897     1.0000 0.72540  0.36470  0.23890  Biso   1.000  C
  H1041    1.0000 0.74280  0.37770  0.24050  Biso   1.000  H
  S60      1.0000 0.68822  0.37523  0.24897  Biso   1.000  S
  H1042    1.0000 0.54200  0.41090  0.35260  Biso   1.000  H
  H1043    1.0000 0.57130  0.41990  0.37220  Biso   1.000  H
  C898     1.0000 0.55140  0.37670  0.38470  Biso   1.000  C
  H1044    1.0000 0.56980  0.36520  0.39160  Biso   1.000  H
  H1045    1.0000 0.53730  0.36210  0.37450  Biso   1.000  H
  C899     1.0000 0.53480  0.39230  0.41340  Biso   1.000  C
  H1046    1.0000 0.54910  0.40700  0.42340  Biso   1.000  H
  H1047    1.0000 0.51660  0.40400  0.40630  Biso   1.000  H
  C900     1.0000 0.52450  0.36740  0.43730  Biso   1.000  C
  H1048    1.0000 0.51430  0.37740  0.45480  Biso   1.000  H
  H1049    1.0000 0.51010  0.35300  0.42750  Biso   1.000  H
  H1050    1.0000 0.54260  0.35610  0.44470  Biso   1.000  H
  C901     1.0000 0.38520  0.13171  0.19991  Biso   1.000  C
  C902     1.0000 0.38285  0.13794  0.23421  Biso   1.000  C
  C903     1.0000 0.36230  0.16473  0.24428  Biso   1.000  C
  H1051    1.0000 0.36510  0.18220  0.23030  Biso   1.000  H
  H1052    1.0000 0.36810  0.17120  0.26510  Biso   1.000  H
  C904     1.0000 0.32828  0.15440  0.24380  Biso   1.000  C
  C905     1.0000 0.31650  0.12590  0.24930  Biso   1.000  C
  H1053    1.0000 0.32880  0.10850  0.25430  Biso   1.000  H
  C906     1.0000 0.28170  0.12500  0.24670  Biso   1.000  C
  H1054    1.0000 0.26960  0.10710  0.24980  Biso   1.000  H
  C907     1.0000 0.26980  0.15280  0.23930  Biso   1.000  C
  H1055    1.0000 0.24850  0.15670  0.23650  Biso   1.000  H
  S61      1.0000 0.29877  0.18055  0.23540  Biso   1.000  S
  C908     1.0000 0.39993  0.11982  0.25348  Biso   1.000  C
  H1056    1.0000 0.41320  0.10540  0.24380  Biso   1.000  H
  C909     1.0000 0.40031  0.11984  0.28736  Biso   1.000  C
  C910     1.0000 0.37788  0.12629  0.30945  Biso   1.000  C
  H1057    1.0000 0.35810  0.13450  0.30510  Biso   1.000  H
  C911     1.0000 0.41799  0.10754  0.33540  Biso   1.000  C
  C912     1.0000 0.45376  0.09240  0.29170  Biso   1.000  C
  C913     1.0000 0.44896  0.05717  0.29071  Biso   1.000  C
  C914     1.0000 0.41913  0.04374  0.29111  Biso   1.000  C
  H1058    1.0000 0.40150  0.05670  0.29120  Biso   1.000  H
  C915     1.0000 0.41539  0.01170  0.29139  Biso   1.000  C
  H1059    1.0000 0.39530  0.00310  0.29170  Biso   1.000  H
  C916     1.0000 0.44128  0.99216  0.29117  Biso   1.000  C
  C917     1.0000 0.47101  0.00536  0.28988  Biso   1.000  C
  H1060    1.0000 0.48860  0.99240  0.28890  Biso   1.000  H
  C918     1.0000 0.47471  0.03732  0.29004  Biso   1.000  C
  H1061    1.0000 0.49480  0.04580  0.28970  Biso   1.000  H
  C919     1.0000 0.43735  0.95775  0.29316  Biso   1.000  C
  C920     1.0000 0.43888  0.09718  0.36148  Biso   1.000  C
  H1062    1.0000 0.45070  0.07910  0.35480  Biso   1.000  H
  H1063    1.0000 0.42620  0.09110  0.37910  Biso   1.000  H
  C921     1.0000 0.46200  0.12370  0.37100  Biso   1.000  C
  H1064    1.0000 0.45040  0.14230  0.37730  Biso   1.000  H
  H1065    1.0000 0.47530  0.12920  0.35330  Biso   1.000  H
  C922     1.0000 0.48240  0.11170  0.39870  Biso   1.000  C
  H1066    1.0000 0.49070  0.09110  0.39360  Biso   1.000  H
  H1067    1.0000 0.50010  0.12580  0.40170  Biso   1.000  H
  C923     1.0000 0.46360  0.10970  0.42940  Biso   1.000  C
  H1068    1.0000 0.47690  0.10230  0.44600  Biso   1.000  H
  H1069    1.0000 0.45570  0.13020  0.43470  Biso   1.000  H
  H1070    1.0000 0.44630  0.09550  0.42670  Biso   1.000  H
  N61      1.0000 0.38881  0.11888  0.33910  Biso   1.000  N
  N62      1.0000 0.42586  0.10794  0.30469  Biso   1.000  N
  O121     1.0000 0.37329  0.15084  0.18060  Biso   1.000  O
  O122     1.0000 0.39882  0.10741  0.18945  Biso   1.000  O
  O123     1.0000 0.40817  0.94883  0.29485  Biso   1.000  O
  H1071    1.0000 0.40260  0.93040  0.29810  Biso   1.000  H
  O124     1.0000 0.45922  0.93897  0.29289  Biso   1.000  O
  H1072    1.0000 0.36890  0.18330  0.23330  Biso   1.000  H
  H1073    1.0000 0.36570  0.16830  0.26630  Biso   1.000  H
  C924     1.0000 0.32760  0.16040  0.23950  Biso   1.000  C
  C925     1.0000 0.30560  0.17990  0.22880  Biso   1.000  C
  H1074    1.0000 0.30950  0.20040  0.22250  Biso   1.000  H
  C926     1.0000 0.27400  0.16480  0.22830  Biso   1.000  C
  H1075    1.0000 0.25580  0.17480  0.22140  Biso   1.000  H
  C927     1.0000 0.27460  0.13530  0.23890  Biso   1.000  C
  H1076    1.0000 0.25720  0.12230  0.24050  Biso   1.000  H
  S62      1.0000 0.31178  0.12477  0.24897  Biso   1.000  S
  H1077    1.0000 0.45800  0.08910  0.35260  Biso   1.000  H
  H1078    1.0000 0.42870  0.08010  0.37220  Biso   1.000  H
  C928     1.0000 0.44860  0.12330  0.38470  Biso   1.000  C
  H1079    1.0000 0.43020  0.13480  0.39160  Biso   1.000  H
  H1080    1.0000 0.46270  0.13790  0.37450  Biso   1.000  H
  C929     1.0000 0.46520  0.10770  0.41340  Biso   1.000  C
  H1081    1.0000 0.45090  0.09300  0.42340  Biso   1.000  H
  H1082    1.0000 0.48340  0.09600  0.40630  Biso   1.000  H
  C930     1.0000 0.47550  0.13260  0.43730  Biso   1.000  C
  H1083    1.0000 0.48570  0.12260  0.45480  Biso   1.000  H
  H1084    1.0000 0.48990  0.14700  0.42750  Biso   1.000  H
  H1085    1.0000 0.45740  0.14390  0.44470  Biso   1.000  H
  C931     1.0000 0.88520  0.63171  0.69991  Biso   1.000  C
  C932     1.0000 0.88285  0.63794  0.73421  Biso   1.000  C
  C933     1.0000 0.86230  0.66473  0.74428  Biso   1.000  C
  H1086    1.0000 0.86510  0.68220  0.73030  Biso   1.000  H
  H1087    1.0000 0.86810  0.67120  0.76510  Biso   1.000  H
  C934     1.0000 0.82828  0.65440  0.74380  Biso   1.000  C
  C935     1.0000 0.81650  0.62590  0.74930  Biso   1.000  C
  H1088    1.0000 0.82880  0.60850  0.75430  Biso   1.000  H
  C936     1.0000 0.78170  0.62500  0.74670  Biso   1.000  C
  H1089    1.0000 0.76960  0.60710  0.74980  Biso   1.000  H
  C937     1.0000 0.76980  0.65280  0.73930  Biso   1.000  C
  H1090    1.0000 0.74850  0.65670  0.73650  Biso   1.000  H
  S63      1.0000 0.79877  0.68055  0.73540  Biso   1.000  S
  C938     1.0000 0.89993  0.61982  0.75348  Biso   1.000  C
  H1091    1.0000 0.91320  0.60540  0.74380  Biso   1.000  H
  C939     1.0000 0.90031  0.61984  0.78736  Biso   1.000  C
  C940     1.0000 0.87788  0.62629  0.80945  Biso   1.000  C
  H1092    1.0000 0.85810  0.63450  0.80510  Biso   1.000  H
  C941     1.0000 0.91799  0.60754  0.83540  Biso   1.000  C
  C942     1.0000 0.95376  0.59240  0.79170  Biso   1.000  C
  C943     1.0000 0.94896  0.55717  0.79071  Biso   1.000  C
  C944     1.0000 0.91913  0.54374  0.79111  Biso   1.000  C
  H1093    1.0000 0.90150  0.55670  0.79120  Biso   1.000  H
  C945     1.0000 0.91539  0.51170  0.79139  Biso   1.000  C
  H1094    1.0000 0.89530  0.50310  0.79170  Biso   1.000  H
  C946     1.0000 0.94128  0.49216  0.79117  Biso   1.000  C
  C947     1.0000 0.97101  0.50536  0.78988  Biso   1.000  C
  H1095    1.0000 0.98860  0.49240  0.78890  Biso   1.000  H
  C948     1.0000 0.97471  0.53732  0.79004  Biso   1.000  C
  H1096    1.0000 0.99480  0.54580  0.78970  Biso   1.000  H
  C949     1.0000 0.93735  0.45775  0.79316  Biso   1.000  C
  C950     1.0000 0.93888  0.59718  0.86148  Biso   1.000  C
  H1097    1.0000 0.95070  0.57910  0.85480  Biso   1.000  H
  H1098    1.0000 0.92620  0.59110  0.87910  Biso   1.000  H
  C951     1.0000 0.96200  0.62370  0.87100  Biso   1.000  C
  H1099    1.0000 0.95040  0.64230  0.87730  Biso   1.000  H
  H1100    1.0000 0.97530  0.62920  0.85330  Biso   1.000  H
  C952     1.0000 0.98240  0.61170  0.89870  Biso   1.000  C
  H1101    1.0000 0.99070  0.59110  0.89360  Biso   1.000  H
  H1102    1.0000 0.00010  0.62580  0.90170  Biso   1.000  H
  C953     1.0000 0.96360  0.60970  0.92940  Biso   1.000  C
  H1103    1.0000 0.97690  0.60230  0.94600  Biso   1.000  H
  H1104    1.0000 0.95570  0.63020  0.93470  Biso   1.000  H
  H1105    1.0000 0.94630  0.59550  0.92670  Biso   1.000  H
  N63      1.0000 0.88881  0.61888  0.83910  Biso   1.000  N
  N64      1.0000 0.92586  0.60794  0.80469  Biso   1.000  N
  O125     1.0000 0.87329  0.65084  0.68060  Biso   1.000  O
  O126     1.0000 0.89882  0.60741  0.68945  Biso   1.000  O
  O127     1.0000 0.90817  0.44883  0.79485  Biso   1.000  O
  H1106    1.0000 0.90260  0.43040  0.79810  Biso   1.000  H
  O128     1.0000 0.95922  0.43897  0.79289  Biso   1.000  O
  H1107    1.0000 0.86890  0.68330  0.73330  Biso   1.000  H
  H1108    1.0000 0.86570  0.66830  0.76630  Biso   1.000  H
  C954     1.0000 0.82760  0.66040  0.73950  Biso   1.000  C
  C955     1.0000 0.80560  0.67990  0.72880  Biso   1.000  C
  H1109    1.0000 0.80950  0.70040  0.72250  Biso   1.000  H
  C956     1.0000 0.77400  0.66480  0.72830  Biso   1.000  C
  H1110    1.0000 0.75580  0.67480  0.72140  Biso   1.000  H
  C957     1.0000 0.77460  0.63530  0.73890  Biso   1.000  C
  H1111    1.0000 0.75720  0.62230  0.74050  Biso   1.000  H
  S64      1.0000 0.81178  0.62477  0.74897  Biso   1.000  S
  H1112    1.0000 0.95800  0.58910  0.85260  Biso   1.000  H
  H1113    1.0000 0.92870  0.58010  0.87220  Biso   1.000  H
  C958     1.0000 0.94860  0.62330  0.88470  Biso   1.000  C
  H1114    1.0000 0.93020  0.63480  0.89160  Biso   1.000  H
  H1115    1.0000 0.96270  0.63790  0.87450  Biso   1.000  H
  C959     1.0000 0.96520  0.60770  0.91340  Biso   1.000  C
  H1116    1.0000 0.95090  0.59300  0.92340  Biso   1.000  H
  H1117    1.0000 0.98340  0.59600  0.90630  Biso   1.000  H
  C960     1.0000 0.97550  0.63260  0.93730  Biso   1.000  C
  H1118    1.0000 0.98570  0.62260  0.95480  Biso   1.000  H
  H1119    1.0000 0.98990  0.64700  0.92750  Biso   1.000  H
  H1120    1.0000 0.95740  0.64390  0.94470  Biso   1.000  H
  C961     1.0000 0.13171  0.19991  0.38520  Biso   1.000  C
  C962     1.0000 0.13794  0.23421  0.38285  Biso   1.000  C
  C963     1.0000 0.16473  0.24428  0.36230  Biso   1.000  C
  H1121    1.0000 0.18220  0.23030  0.36510  Biso   1.000  H
  H1122    1.0000 0.17120  0.26510  0.36810  Biso   1.000  H
  C964     1.0000 0.15440  0.24380  0.32828  Biso   1.000  C
  C965     1.0000 0.12590  0.24930  0.31650  Biso   1.000  C
  H1123    1.0000 0.10850  0.25430  0.32880  Biso   1.000  H
  C966     1.0000 0.12500  0.24670  0.28170  Biso   1.000  C
  H1124    1.0000 0.10710  0.24980  0.26960  Biso   1.000  H
  C967     1.0000 0.15280  0.23930  0.26980  Biso   1.000  C
  H1125    1.0000 0.15670  0.23650  0.24850  Biso   1.000  H
  S65      1.0000 0.18055  0.23540  0.29877  Biso   1.000  S
  C968     1.0000 0.11982  0.25348  0.39993  Biso   1.000  C
  H1126    1.0000 0.10540  0.24380  0.41320  Biso   1.000  H
  C969     1.0000 0.11984  0.28736  0.40031  Biso   1.000  C
  C970     1.0000 0.12629  0.30945  0.37788  Biso   1.000  C
  H1127    1.0000 0.13450  0.30510  0.35810  Biso   1.000  H
  C971     1.0000 0.10754  0.33540  0.41799  Biso   1.000  C
  C972     1.0000 0.09240  0.29170  0.45376  Biso   1.000  C
  C973     1.0000 0.05717  0.29071  0.44896  Biso   1.000  C
  C974     1.0000 0.04374  0.29111  0.41913  Biso   1.000  C
  H1128    1.0000 0.05670  0.29120  0.40150  Biso   1.000  H
  C975     1.0000 0.01170  0.29139  0.41539  Biso   1.000  C
  H1129    1.0000 0.00310  0.29170  0.39530  Biso   1.000  H
  C976     1.0000 0.99216  0.29117  0.44128  Biso   1.000  C
  C977     1.0000 0.00536  0.28988  0.47101  Biso   1.000  C
  H1130    1.0000 0.99240  0.28890  0.48860  Biso   1.000  H
  C978     1.0000 0.03732  0.29004  0.47471  Biso   1.000  C
  H1131    1.0000 0.04580  0.28970  0.49480  Biso   1.000  H
  C979     1.0000 0.95775  0.29316  0.43735  Biso   1.000  C
  C980     1.0000 0.09718  0.36148  0.43888  Biso   1.000  C
  H1132    1.0000 0.07910  0.35480  0.45070  Biso   1.000  H
  H1133    1.0000 0.09110  0.37910  0.42620  Biso   1.000  H
  C981     1.0000 0.12370  0.37100  0.46200  Biso   1.000  C
  H1134    1.0000 0.14230  0.37730  0.45040  Biso   1.000  H
  H1135    1.0000 0.12920  0.35330  0.47530  Biso   1.000  H
  C982     1.0000 0.11170  0.39870  0.48240  Biso   1.000  C
  H1136    1.0000 0.09110  0.39360  0.49070  Biso   1.000  H
  H1137    1.0000 0.12580  0.40170  0.50010  Biso   1.000  H
  C983     1.0000 0.10970  0.42940  0.46360  Biso   1.000  C
  H1138    1.0000 0.10230  0.44600  0.47690  Biso   1.000  H
  H1139    1.0000 0.13020  0.43470  0.45570  Biso   1.000  H
  H1140    1.0000 0.09550  0.42670  0.44630  Biso   1.000  H
  N65      1.0000 0.11888  0.33910  0.38881  Biso   1.000  N
  N66      1.0000 0.10794  0.30469  0.42586  Biso   1.000  N
  O129     1.0000 0.15084  0.18060  0.37329  Biso   1.000  O
  O130     1.0000 0.10741  0.18945  0.39882  Biso   1.000  O
  O131     1.0000 0.94883  0.29485  0.40817  Biso   1.000  O
  H1141    1.0000 0.93040  0.29810  0.40260  Biso   1.000  H
  O132     1.0000 0.93897  0.29289  0.45922  Biso   1.000  O
  H1142    1.0000 0.18330  0.23330  0.36890  Biso   1.000  H
  H1143    1.0000 0.16830  0.26630  0.36570  Biso   1.000  H
  C984     1.0000 0.16040  0.23950  0.32760  Biso   1.000  C
  C985     1.0000 0.17990  0.22880  0.30560  Biso   1.000  C
  H1144    1.0000 0.20040  0.22250  0.30950  Biso   1.000  H
  C986     1.0000 0.16480  0.22830  0.27400  Biso   1.000  C
  H1145    1.0000 0.17480  0.22140  0.25580  Biso   1.000  H
  C987     1.0000 0.13530  0.23890  0.27460  Biso   1.000  C
  H1146    1.0000 0.12230  0.24050  0.25720  Biso   1.000  H
  S66      1.0000 0.12477  0.24897  0.31178  Biso   1.000  S
  H1147    1.0000 0.08910  0.35260  0.45800  Biso   1.000  H
  H1148    1.0000 0.08010  0.37220  0.42870  Biso   1.000  H
  C988     1.0000 0.12330  0.38470  0.44860  Biso   1.000  C
  H1149    1.0000 0.13480  0.39160  0.43020  Biso   1.000  H
  H1150    1.0000 0.13790  0.37450  0.46270  Biso   1.000  H
  C989     1.0000 0.10770  0.41340  0.46520  Biso   1.000  C
  H1151    1.0000 0.09300  0.42340  0.45090  Biso   1.000  H
  H1152    1.0000 0.09600  0.40630  0.48340  Biso   1.000  H
  C990     1.0000 0.13260  0.43730  0.47550  Biso   1.000  C
  H1153    1.0000 0.12260  0.45480  0.48570  Biso   1.000  H
  H1154    1.0000 0.14700  0.42750  0.48990  Biso   1.000  H
  H1155    1.0000 0.14390  0.44470  0.45740  Biso   1.000  H
  C991     1.0000 0.63171  0.69991  0.88520  Biso   1.000  C
  C992     1.0000 0.63794  0.73421  0.88285  Biso   1.000  C
  C993     1.0000 0.66473  0.74428  0.86230  Biso   1.000  C
  H1156    1.0000 0.68220  0.73030  0.86510  Biso   1.000  H
  H1157    1.0000 0.67120  0.76510  0.86810  Biso   1.000  H
  C994     1.0000 0.65440  0.74380  0.82828  Biso   1.000  C
  C995     1.0000 0.62590  0.74930  0.81650  Biso   1.000  C
  H1158    1.0000 0.60850  0.75430  0.82880  Biso   1.000  H
  C996     1.0000 0.62500  0.74670  0.78170  Biso   1.000  C
  H1159    1.0000 0.60710  0.74980  0.76960  Biso   1.000  H
  C997     1.0000 0.65280  0.73930  0.76980  Biso   1.000  C
  H1160    1.0000 0.65670  0.73650  0.74850  Biso   1.000  H
  S67      1.0000 0.68055  0.73540  0.79877  Biso   1.000  S
  C998     1.0000 0.61982  0.75348  0.89993  Biso   1.000  C
  H1161    1.0000 0.60540  0.74380  0.91320  Biso   1.000  H
  C999     1.0000 0.61984  0.78736  0.90031  Biso   1.000  C
  C1000    1.0000 0.62629  0.80945  0.87788  Biso   1.000  C
  H1162    1.0000 0.63450  0.80510  0.85810  Biso   1.000  H
  C1001    1.0000 0.60754  0.83540  0.91799  Biso   1.000  C
  C1002    1.0000 0.59240  0.79170  0.95376  Biso   1.000  C
  C1003    1.0000 0.55717  0.79071  0.94896  Biso   1.000  C
  C1004    1.0000 0.54374  0.79111  0.91913  Biso   1.000  C
  H1163    1.0000 0.55670  0.79120  0.90150  Biso   1.000  H
  C1005    1.0000 0.51170  0.79139  0.91539  Biso   1.000  C
  H1164    1.0000 0.50310  0.79170  0.89530  Biso   1.000  H
  C1006    1.0000 0.49216  0.79117  0.94128  Biso   1.000  C
  C1007    1.0000 0.50536  0.78988  0.97101  Biso   1.000  C
  H1165    1.0000 0.49240  0.78890  0.98860  Biso   1.000  H
  C1008    1.0000 0.53732  0.79004  0.97471  Biso   1.000  C
  H1166    1.0000 0.54580  0.78970  0.99480  Biso   1.000  H
  C1009    1.0000 0.45775  0.79316  0.93735  Biso   1.000  C
  C1010    1.0000 0.59718  0.86148  0.93888  Biso   1.000  C
  H1167    1.0000 0.57910  0.85480  0.95070  Biso   1.000  H
  H1168    1.0000 0.59110  0.87910  0.92620  Biso   1.000  H
  C1011    1.0000 0.62370  0.87100  0.96200  Biso   1.000  C
  H1169    1.0000 0.64230  0.87730  0.95040  Biso   1.000  H
  H1170    1.0000 0.62920  0.85330  0.97530  Biso   1.000  H
  C1012    1.0000 0.61170  0.89870  0.98240  Biso   1.000  C
  H1171    1.0000 0.59110  0.89360  0.99070  Biso   1.000  H
  H1172    1.0000 0.62580  0.90170  0.00010  Biso   1.000  H
  C1013    1.0000 0.60970  0.92940  0.96360  Biso   1.000  C
  H1173    1.0000 0.60230  0.94600  0.97690  Biso   1.000  H
  H1174    1.0000 0.63020  0.93470  0.95570  Biso   1.000  H
  H1175    1.0000 0.59550  0.92670  0.94630  Biso   1.000  H
  N67      1.0000 0.61888  0.83910  0.88881  Biso   1.000  N
  N68      1.0000 0.60794  0.80469  0.92586  Biso   1.000  N
  O133     1.0000 0.65084  0.68060  0.87329  Biso   1.000  O
  O134     1.0000 0.60741  0.68945  0.89882  Biso   1.000  O
  O135     1.0000 0.44883  0.79485  0.90817  Biso   1.000  O
  H1176    1.0000 0.43040  0.79810  0.90260  Biso   1.000  H
  O136     1.0000 0.43897  0.79289  0.95922  Biso   1.000  O
  H1177    1.0000 0.68330  0.73330  0.86890  Biso   1.000  H
  H1178    1.0000 0.66830  0.76630  0.86570  Biso   1.000  H
  C1014    1.0000 0.66040  0.73950  0.82760  Biso   1.000  C
  C1015    1.0000 0.67990  0.72880  0.80560  Biso   1.000  C
  H1179    1.0000 0.70040  0.72250  0.80950  Biso   1.000  H
  C1016    1.0000 0.66480  0.72830  0.77400  Biso   1.000  C
  H1180    1.0000 0.67480  0.72140  0.75580  Biso   1.000  H
  C1017    1.0000 0.63530  0.73890  0.77460  Biso   1.000  C
  H1181    1.0000 0.62230  0.74050  0.75720  Biso   1.000  H
  S68      1.0000 0.62477  0.74897  0.81178  Biso   1.000  S
  H1182    1.0000 0.58910  0.85260  0.95800  Biso   1.000  H
  H1183    1.0000 0.58010  0.87220  0.92870  Biso   1.000  H
  C1018    1.0000 0.62330  0.88470  0.94860  Biso   1.000  C
  H1184    1.0000 0.63480  0.89160  0.93020  Biso   1.000  H
  H1185    1.0000 0.63790  0.87450  0.96270  Biso   1.000  H
  C1019    1.0000 0.60770  0.91340  0.96520  Biso   1.000  C
  H1186    1.0000 0.59300  0.92340  0.95090  Biso   1.000  H
  H1187    1.0000 0.59600  0.90630  0.98340  Biso   1.000  H
  C1020    1.0000 0.63260  0.93730  0.97550  Biso   1.000  C
  H1188    1.0000 0.62260  0.95480  0.98570  Biso   1.000  H
  H1189    1.0000 0.64700  0.92750  0.98990  Biso   1.000  H
  H1190    1.0000 0.64390  0.94470  0.95740  Biso   1.000  H
  C1021    1.0000 0.86829  0.69991  0.11480  Biso   1.000  C
  C1022    1.0000 0.86206  0.73421  0.11715  Biso   1.000  C
  C1023    1.0000 0.83527  0.74428  0.13770  Biso   1.000  C
  H1191    1.0000 0.81780  0.73030  0.13490  Biso   1.000  H
  H1192    1.0000 0.82880  0.76510  0.13190  Biso   1.000  H
  C1024    1.0000 0.84560  0.74380  0.17172  Biso   1.000  C
  C1025    1.0000 0.87410  0.74930  0.18350  Biso   1.000  C
  H1193    1.0000 0.89150  0.75430  0.17120  Biso   1.000  H
  C1026    1.0000 0.87500  0.74670  0.21830  Biso   1.000  C
  H1194    1.0000 0.89290  0.74980  0.23040  Biso   1.000  H
  C1027    1.0000 0.84720  0.73930  0.23020  Biso   1.000  C
  H1195    1.0000 0.84330  0.73650  0.25150  Biso   1.000  H
  S69      1.0000 0.81945  0.73540  0.20123  Biso   1.000  S
  C1028    1.0000 0.88018  0.75348  0.10007  Biso   1.000  C
  H1196    1.0000 0.89460  0.74380  0.08680  Biso   1.000  H
  C1029    1.0000 0.88016  0.78736  0.09969  Biso   1.000  C
  C1030    1.0000 0.87371  0.80945  0.12212  Biso   1.000  C
  H1197    1.0000 0.86550  0.80510  0.14190  Biso   1.000  H
  C1031    1.0000 0.89246  0.83540  0.08201  Biso   1.000  C
  C1032    1.0000 0.90760  0.79170  0.04624  Biso   1.000  C
  C1033    1.0000 0.94283  0.79071  0.05104  Biso   1.000  C
  C1034    1.0000 0.95626  0.79111  0.08087  Biso   1.000  C
  H1198    1.0000 0.94330  0.79120  0.09850  Biso   1.000  H
  C1035    1.0000 0.98830  0.79139  0.08461  Biso   1.000  C
  H1199    1.0000 0.99690  0.79170  0.10470  Biso   1.000  H
  C1036    1.0000 0.00784  0.79117  0.05872  Biso   1.000  C
  C1037    1.0000 0.99464  0.78988  0.02899  Biso   1.000  C
  H1200    1.0000 0.00760  0.78890  0.01140  Biso   1.000  H
  C1038    1.0000 0.96268  0.79004  0.02529  Biso   1.000  C
  H1201    1.0000 0.95420  0.78970  0.00520  Biso   1.000  H
  C1039    1.0000 0.04225  0.79316  0.06265  Biso   1.000  C
  C1040    1.0000 0.90282  0.86148  0.06112  Biso   1.000  C
  H1202    1.0000 0.92090  0.85480  0.04930  Biso   1.000  H
  H1203    1.0000 0.90890  0.87910  0.07380  Biso   1.000  H
  C1041    1.0000 0.87630  0.87100  0.03800  Biso   1.000  C
  H1204    1.0000 0.85770  0.87730  0.04960  Biso   1.000  H
  H1205    1.0000 0.87080  0.85330  0.02470  Biso   1.000  H
  C1042    1.0000 0.88830  0.89870  0.01760  Biso   1.000  C
  H1206    1.0000 0.90890  0.89360  0.00930  Biso   1.000  H
  H1207    1.0000 0.87420  0.90170  0.99990  Biso   1.000  H
  C1043    1.0000 0.89030  0.92940  0.03640  Biso   1.000  C
  H1208    1.0000 0.89770  0.94600  0.02310  Biso   1.000  H
  H1209    1.0000 0.86980  0.93470  0.04430  Biso   1.000  H
  H1210    1.0000 0.90450  0.92670  0.05370  Biso   1.000  H
  N69      1.0000 0.88112  0.83910  0.11119  Biso   1.000  N
  N70      1.0000 0.89206  0.80469  0.07414  Biso   1.000  N
  O137     1.0000 0.84916  0.68060  0.12671  Biso   1.000  O
  O138     1.0000 0.89259  0.68945  0.10118  Biso   1.000  O
  O139     1.0000 0.05117  0.79485  0.09183  Biso   1.000  O
  H1211    1.0000 0.06960  0.79810  0.09740  Biso   1.000  H
  O140     1.0000 0.06103  0.79289  0.04078  Biso   1.000  O
  H1212    1.0000 0.81670  0.73330  0.13110  Biso   1.000  H
  H1213    1.0000 0.83170  0.76630  0.13430  Biso   1.000  H
  C1044    1.0000 0.83960  0.73950  0.17240  Biso   1.000  C
  C1045    1.0000 0.82010  0.72880  0.19440  Biso   1.000  C
  H1214    1.0000 0.79960  0.72250  0.19050  Biso   1.000  H
  C1046    1.0000 0.83520  0.72830  0.22600  Biso   1.000  C
  H1215    1.0000 0.82520  0.72140  0.24420  Biso   1.000  H
  C1047    1.0000 0.86470  0.73890  0.22540  Biso   1.000  C
  H1216    1.0000 0.87770  0.74050  0.24280  Biso   1.000  H
  S70      1.0000 0.87523  0.74897  0.18822  Biso   1.000  S
  H1217    1.0000 0.91090  0.85260  0.04200  Biso   1.000  H
  H1218    1.0000 0.91990  0.87220  0.07130  Biso   1.000  H
  C1048    1.0000 0.87670  0.88470  0.05140  Biso   1.000  C
  H1219    1.0000 0.86520  0.89160  0.06980  Biso   1.000  H
  H1220    1.0000 0.86210  0.87450  0.03730  Biso   1.000  H
  C1049    1.0000 0.89230  0.91340  0.03480  Biso   1.000  C
  H1221    1.0000 0.90700  0.92340  0.04910  Biso   1.000  H
  H1222    1.0000 0.90400  0.90630  0.01660  Biso   1.000  H
  C1050    1.0000 0.86740  0.93730  0.02450  Biso   1.000  C
  H1223    1.0000 0.87740  0.95480  0.01430  Biso   1.000  H
  H1224    1.0000 0.85300  0.92750  0.01010  Biso   1.000  H
  H1225    1.0000 0.85610  0.94470  0.04260  Biso   1.000  H
  C1051    1.0000 0.36829  0.19991  0.61480  Biso   1.000  C
  C1052    1.0000 0.36206  0.23421  0.61715  Biso   1.000  C
  C1053    1.0000 0.33527  0.24428  0.63770  Biso   1.000  C
  H1226    1.0000 0.31780  0.23030  0.63490  Biso   1.000  H
  H1227    1.0000 0.32880  0.26510  0.63190  Biso   1.000  H
  C1054    1.0000 0.34560  0.24380  0.67172  Biso   1.000  C
  C1055    1.0000 0.37410  0.24930  0.68350  Biso   1.000  C
  H1228    1.0000 0.39150  0.25430  0.67120  Biso   1.000  H
  C1056    1.0000 0.37500  0.24670  0.71830  Biso   1.000  C
  H1229    1.0000 0.39290  0.24980  0.73040  Biso   1.000  H
  C1057    1.0000 0.34720  0.23930  0.73020  Biso   1.000  C
  H1230    1.0000 0.34330  0.23650  0.75150  Biso   1.000  H
  S71      1.0000 0.31945  0.23540  0.70123  Biso   1.000  S
  C1058    1.0000 0.38018  0.25348  0.60007  Biso   1.000  C
  H1231    1.0000 0.39460  0.24380  0.58680  Biso   1.000  H
  C1059    1.0000 0.38016  0.28736  0.59969  Biso   1.000  C
  C1060    1.0000 0.37371  0.30945  0.62212  Biso   1.000  C
  H1232    1.0000 0.36550  0.30510  0.64190  Biso   1.000  H
  C1061    1.0000 0.39246  0.33540  0.58201  Biso   1.000  C
  C1062    1.0000 0.40760  0.29170  0.54624  Biso   1.000  C
  C1063    1.0000 0.44283  0.29071  0.55104  Biso   1.000  C
  C1064    1.0000 0.45626  0.29111  0.58087  Biso   1.000  C
  H1233    1.0000 0.44330  0.29120  0.59850  Biso   1.000  H
  C1065    1.0000 0.48830  0.29139  0.58461  Biso   1.000  C
  H1234    1.0000 0.49690  0.29170  0.60470  Biso   1.000  H
  C1066    1.0000 0.50784  0.29117  0.55872  Biso   1.000  C
  C1067    1.0000 0.49464  0.28988  0.52899  Biso   1.000  C
  H1235    1.0000 0.50760  0.28890  0.51140  Biso   1.000  H
  C1068    1.0000 0.46268  0.29004  0.52529  Biso   1.000  C
  H1236    1.0000 0.45420  0.28970  0.50520  Biso   1.000  H
  C1069    1.0000 0.54225  0.29316  0.56265  Biso   1.000  C
  C1070    1.0000 0.40282  0.36148  0.56112  Biso   1.000  C
  H1237    1.0000 0.42090  0.35480  0.54930  Biso   1.000  H
  H1238    1.0000 0.40890  0.37910  0.57380  Biso   1.000  H
  C1071    1.0000 0.37630  0.37100  0.53800  Biso   1.000  C
  H1239    1.0000 0.35770  0.37730  0.54960  Biso   1.000  H
  H1240    1.0000 0.37080  0.35330  0.52470  Biso   1.000  H
  C1072    1.0000 0.38830  0.39870  0.51760  Biso   1.000  C
  H1241    1.0000 0.40890  0.39360  0.50930  Biso   1.000  H
  H1242    1.0000 0.37420  0.40170  0.49990  Biso   1.000  H
  C1073    1.0000 0.39030  0.42940  0.53640  Biso   1.000  C
  H1243    1.0000 0.39770  0.44600  0.52310  Biso   1.000  H
  H1244    1.0000 0.36980  0.43470  0.54430  Biso   1.000  H
  H1245    1.0000 0.40450  0.42670  0.55370  Biso   1.000  H
  N71      1.0000 0.38112  0.33910  0.61119  Biso   1.000  N
  N72      1.0000 0.39206  0.30469  0.57414  Biso   1.000  N
  O141     1.0000 0.34916  0.18060  0.62671  Biso   1.000  O
  O142     1.0000 0.39259  0.18945  0.60118  Biso   1.000  O
  O143     1.0000 0.55117  0.29485  0.59183  Biso   1.000  O
  H1246    1.0000 0.56960  0.29810  0.59740  Biso   1.000  H
  O144     1.0000 0.56103  0.29289  0.54078  Biso   1.000  O
  H1247    1.0000 0.31670  0.23330  0.63110  Biso   1.000  H
  H1248    1.0000 0.33170  0.26630  0.63430  Biso   1.000  H
  C1074    1.0000 0.33960  0.23950  0.67240  Biso   1.000  C
  C1075    1.0000 0.32010  0.22880  0.69440  Biso   1.000  C
  H1249    1.0000 0.29960  0.22250  0.69050  Biso   1.000  H
  C1076    1.0000 0.33520  0.22830  0.72600  Biso   1.000  C
  H1250    1.0000 0.32520  0.22140  0.74420  Biso   1.000  H
  C1077    1.0000 0.36470  0.23890  0.72540  Biso   1.000  C
  H1251    1.0000 0.37770  0.24050  0.74280  Biso   1.000  H
  S72      1.0000 0.37523  0.24897  0.68822  Biso   1.000  S
  H1252    1.0000 0.41090  0.35260  0.54200  Biso   1.000  H
  H1253    1.0000 0.41990  0.37220  0.57130  Biso   1.000  H
  C1078    1.0000 0.37670  0.38470  0.55140  Biso   1.000  C
  H1254    1.0000 0.36520  0.39160  0.56980  Biso   1.000  H
  H1255    1.0000 0.36210  0.37450  0.53730  Biso   1.000  H
  C1079    1.0000 0.39230  0.41340  0.53480  Biso   1.000  C
  H1256    1.0000 0.40700  0.42340  0.54910  Biso   1.000  H
  H1257    1.0000 0.40400  0.40630  0.51660  Biso   1.000  H
  C1080    1.0000 0.36740  0.43730  0.52450  Biso   1.000  C
  H1258    1.0000 0.37740  0.45480  0.51430  Biso   1.000  H
  H1259    1.0000 0.35300  0.42750  0.51010  Biso   1.000  H
  H1260    1.0000 0.35610  0.44470  0.54260  Biso   1.000  H
  C1081    1.0000 0.36829  0.80009  0.88520  Biso   1.000  C
  C1082    1.0000 0.36206  0.76579  0.88285  Biso   1.000  C
  C1083    1.0000 0.33527  0.75572  0.86230  Biso   1.000  C
  H1261    1.0000 0.31780  0.76970  0.86510  Biso   1.000  H
  H1262    1.0000 0.32880  0.73490  0.86810  Biso   1.000  H
  C1084    1.0000 0.34560  0.75620  0.82828  Biso   1.000  C
  C1085    1.0000 0.37410  0.75070  0.81650  Biso   1.000  C
  H1263    1.0000 0.39150  0.74570  0.82880  Biso   1.000  H
  C1086    1.0000 0.37500  0.75330  0.78170  Biso   1.000  C
  H1264    1.0000 0.39290  0.75020  0.76960  Biso   1.000  H
  C1087    1.0000 0.34720  0.76070  0.76980  Biso   1.000  C
  H1265    1.0000 0.34330  0.76350  0.74850  Biso   1.000  H
  S73      1.0000 0.31945  0.76460  0.79877  Biso   1.000  S
  C1088    1.0000 0.38018  0.74652  0.89993  Biso   1.000  C
  H1266    1.0000 0.39460  0.75620  0.91320  Biso   1.000  H
  C1089    1.0000 0.38016  0.71264  0.90031  Biso   1.000  C
  C1090    1.0000 0.37371  0.69055  0.87788  Biso   1.000  C
  H1267    1.0000 0.36550  0.69490  0.85810  Biso   1.000  H
  C1091    1.0000 0.39246  0.66460  0.91799  Biso   1.000  C
  C1092    1.0000 0.40760  0.70830  0.95376  Biso   1.000  C
  C1093    1.0000 0.44283  0.70929  0.94896  Biso   1.000  C
  C1094    1.0000 0.45626  0.70889  0.91913  Biso   1.000  C
  H1268    1.0000 0.44330  0.70880  0.90150  Biso   1.000  H
  C1095    1.0000 0.48830  0.70861  0.91539  Biso   1.000  C
  H1269    1.0000 0.49690  0.70830  0.89530  Biso   1.000  H
  C1096    1.0000 0.50784  0.70883  0.94128  Biso   1.000  C
  C1097    1.0000 0.49464  0.71012  0.97101  Biso   1.000  C
  H1270    1.0000 0.50760  0.71110  0.98860  Biso   1.000  H
  C1098    1.0000 0.46268  0.70996  0.97471  Biso   1.000  C
  H1271    1.0000 0.45420  0.71030  0.99480  Biso   1.000  H
  C1099    1.0000 0.54225  0.70684  0.93735  Biso   1.000  C
  C1100    1.0000 0.40282  0.63852  0.93888  Biso   1.000  C
  H1272    1.0000 0.42090  0.64520  0.95070  Biso   1.000  H
  H1273    1.0000 0.40890  0.62090  0.92620  Biso   1.000  H
  C1101    1.0000 0.37630  0.62900  0.96200  Biso   1.000  C
  H1274    1.0000 0.35770  0.62270  0.95040  Biso   1.000  H
  H1275    1.0000 0.37080  0.64670  0.97530  Biso   1.000  H
  C1102    1.0000 0.38830  0.60130  0.98240  Biso   1.000  C
  H1276    1.0000 0.40890  0.60640  0.99070  Biso   1.000  H
  H1277    1.0000 0.37420  0.59830  0.00010  Biso   1.000  H
  C1103    1.0000 0.39030  0.57060  0.96360  Biso   1.000  C
  H1278    1.0000 0.39770  0.55400  0.97690  Biso   1.000  H
  H1279    1.0000 0.36980  0.56530  0.95570  Biso   1.000  H
  H1280    1.0000 0.40450  0.57330  0.94630  Biso   1.000  H
  N73      1.0000 0.38112  0.66090  0.88881  Biso   1.000  N
  N74      1.0000 0.39206  0.69531  0.92586  Biso   1.000  N
  O145     1.0000 0.34916  0.81940  0.87329  Biso   1.000  O
  O146     1.0000 0.39259  0.81055  0.89882  Biso   1.000  O
  O147     1.0000 0.55117  0.70515  0.90817  Biso   1.000  O
  H1281    1.0000 0.56960  0.70190  0.90260  Biso   1.000  H
  O148     1.0000 0.56103  0.70711  0.95922  Biso   1.000  O
  H1282    1.0000 0.31670  0.76670  0.86890  Biso   1.000  H
  H1283    1.0000 0.33170  0.73370  0.86570  Biso   1.000  H
  C1104    1.0000 0.33960  0.76050  0.82760  Biso   1.000  C
  C1105    1.0000 0.32010  0.77120  0.80560  Biso   1.000  C
  H1284    1.0000 0.29960  0.77750  0.80950  Biso   1.000  H
  C1106    1.0000 0.33520  0.77170  0.77400  Biso   1.000  C
  H1285    1.0000 0.32520  0.77860  0.75580  Biso   1.000  H
  C1107    1.0000 0.36470  0.76110  0.77460  Biso   1.000  C
  H1286    1.0000 0.37770  0.75950  0.75720  Biso   1.000  H
  S74      1.0000 0.37523  0.75103  0.81178  Biso   1.000  S
  H1287    1.0000 0.41090  0.64740  0.95800  Biso   1.000  H
  H1288    1.0000 0.41990  0.62780  0.92870  Biso   1.000  H
  C1108    1.0000 0.37670  0.61530  0.94860  Biso   1.000  C
  H1289    1.0000 0.36520  0.60840  0.93020  Biso   1.000  H
  H1290    1.0000 0.36210  0.62550  0.96270  Biso   1.000  H
  C1109    1.0000 0.39230  0.58660  0.96520  Biso   1.000  C
  H1291    1.0000 0.40700  0.57660  0.95090  Biso   1.000  H
  H1292    1.0000 0.40400  0.59370  0.98340  Biso   1.000  H
  C1110    1.0000 0.36740  0.56270  0.97550  Biso   1.000  C
  H1293    1.0000 0.37740  0.54520  0.98570  Biso   1.000  H
  H1294    1.0000 0.35300  0.57250  0.98990  Biso   1.000  H
  H1295    1.0000 0.35610  0.55530  0.95740  Biso   1.000  H
  C1111    1.0000 0.86829  0.30009  0.38520  Biso   1.000  C
  C1112    1.0000 0.86206  0.26579  0.38285  Biso   1.000  C
  C1113    1.0000 0.83527  0.25572  0.36230  Biso   1.000  C
  H1296    1.0000 0.81780  0.26970  0.36510  Biso   1.000  H
  H1297    1.0000 0.82880  0.23490  0.36810  Biso   1.000  H
  C1114    1.0000 0.84560  0.25620  0.32828  Biso   1.000  C
  C1115    1.0000 0.87410  0.25070  0.31650  Biso   1.000  C
  H1298    1.0000 0.89150  0.24570  0.32880  Biso   1.000  H
  C1116    1.0000 0.87500  0.25330  0.28170  Biso   1.000  C
  H1299    1.0000 0.89290  0.25020  0.26960  Biso   1.000  H
  C1117    1.0000 0.84720  0.26070  0.26980  Biso   1.000  C
  H1300    1.0000 0.84330  0.26350  0.24850  Biso   1.000  H
  S75      1.0000 0.81945  0.26460  0.29877  Biso   1.000  S
  C1118    1.0000 0.88018  0.24652  0.39993  Biso   1.000  C
  H1301    1.0000 0.89460  0.25620  0.41320  Biso   1.000  H
  C1119    1.0000 0.88016  0.21264  0.40031  Biso   1.000  C
  C1120    1.0000 0.87371  0.19055  0.37788  Biso   1.000  C
  H1302    1.0000 0.86550  0.19490  0.35810  Biso   1.000  H
  C1121    1.0000 0.89246  0.16460  0.41799  Biso   1.000  C
  C1122    1.0000 0.90760  0.20830  0.45376  Biso   1.000  C
  C1123    1.0000 0.94283  0.20929  0.44896  Biso   1.000  C
  C1124    1.0000 0.95626  0.20889  0.41913  Biso   1.000  C
  H1303    1.0000 0.94330  0.20880  0.40150  Biso   1.000  H
  C1125    1.0000 0.98830  0.20861  0.41539  Biso   1.000  C
  H1304    1.0000 0.99690  0.20830  0.39530  Biso   1.000  H
  C1126    1.0000 0.00784  0.20883  0.44128  Biso   1.000  C
  C1127    1.0000 0.99464  0.21012  0.47101  Biso   1.000  C
  H1305    1.0000 0.00760  0.21110  0.48860  Biso   1.000  H
  C1128    1.0000 0.96268  0.20996  0.47471  Biso   1.000  C
  H1306    1.0000 0.95420  0.21030  0.49480  Biso   1.000  H
  C1129    1.0000 0.04225  0.20684  0.43735  Biso   1.000  C
  C1130    1.0000 0.90282  0.13852  0.43888  Biso   1.000  C
  H1307    1.0000 0.92090  0.14520  0.45070  Biso   1.000  H
  H1308    1.0000 0.90890  0.12090  0.42620  Biso   1.000  H
  C1131    1.0000 0.87630  0.12900  0.46200  Biso   1.000  C
  H1309    1.0000 0.85770  0.12270  0.45040  Biso   1.000  H
  H1310    1.0000 0.87080  0.14670  0.47530  Biso   1.000  H
  C1132    1.0000 0.88830  0.10130  0.48240  Biso   1.000  C
  H1311    1.0000 0.90890  0.10640  0.49070  Biso   1.000  H
  H1312    1.0000 0.87420  0.09830  0.50010  Biso   1.000  H
  C1133    1.0000 0.89030  0.07060  0.46360  Biso   1.000  C
  H1313    1.0000 0.89770  0.05400  0.47690  Biso   1.000  H
  H1314    1.0000 0.86980  0.06530  0.45570  Biso   1.000  H
  H1315    1.0000 0.90450  0.07330  0.44630  Biso   1.000  H
  N75      1.0000 0.88112  0.16090  0.38881  Biso   1.000  N
  N76      1.0000 0.89206  0.19531  0.42586  Biso   1.000  N
  O149     1.0000 0.84916  0.31940  0.37329  Biso   1.000  O
  O150     1.0000 0.89259  0.31055  0.39882  Biso   1.000  O
  O151     1.0000 0.05117  0.20515  0.40817  Biso   1.000  O
  H1316    1.0000 0.06960  0.20190  0.40260  Biso   1.000  H
  O152     1.0000 0.06103  0.20711  0.45922  Biso   1.000  O
  H1317    1.0000 0.81670  0.26670  0.36890  Biso   1.000  H
  H1318    1.0000 0.83170  0.23370  0.36570  Biso   1.000  H
  C1134    1.0000 0.83960  0.26050  0.32760  Biso   1.000  C
  C1135    1.0000 0.82010  0.27120  0.30560  Biso   1.000  C
  H1319    1.0000 0.79960  0.27750  0.30950  Biso   1.000  H
  C1136    1.0000 0.83520  0.27170  0.27400  Biso   1.000  C
  H1320    1.0000 0.82520  0.27860  0.25580  Biso   1.000  H
  C1137    1.0000 0.86470  0.26110  0.27460  Biso   1.000  C
  H1321    1.0000 0.87770  0.25950  0.25720  Biso   1.000  H
  S76      1.0000 0.87523  0.25103  0.31178  Biso   1.000  S
  H1322    1.0000 0.91090  0.14740  0.45800  Biso   1.000  H
  H1323    1.0000 0.91990  0.12780  0.42870  Biso   1.000  H
  C1138    1.0000 0.87670  0.11530  0.44860  Biso   1.000  C
  H1324    1.0000 0.86520  0.10840  0.43020  Biso   1.000  H
  H1325    1.0000 0.86210  0.12550  0.46270  Biso   1.000  H
  C1139    1.0000 0.89230  0.08660  0.46520  Biso   1.000  C
  H1326    1.0000 0.90700  0.07660  0.45090  Biso   1.000  H
  H1327    1.0000 0.90400  0.09370  0.48340  Biso   1.000  H
  C1140    1.0000 0.86740  0.06270  0.47550  Biso   1.000  C
  H1328    1.0000 0.87740  0.04520  0.48570  Biso   1.000  H
  H1329    1.0000 0.85300  0.07250  0.48990  Biso   1.000  H
  H1330    1.0000 0.85610  0.05530  0.45740  Biso   1.000  H
  C1141    1.0000 0.63171  0.30009  0.61480  Biso   1.000  C
  C1142    1.0000 0.63794  0.26579  0.61715  Biso   1.000  C
  C1143    1.0000 0.66473  0.25572  0.63770  Biso   1.000  C
  H1331    1.0000 0.68220  0.26970  0.63490  Biso   1.000  H
  H1332    1.0000 0.67120  0.23490  0.63190  Biso   1.000  H
  C1144    1.0000 0.65440  0.25620  0.67172  Biso   1.000  C
  C1145    1.0000 0.62590  0.25070  0.68350  Biso   1.000  C
  H1333    1.0000 0.60850  0.24570  0.67120  Biso   1.000  H
  C1146    1.0000 0.62500  0.25330  0.71830  Biso   1.000  C
  H1334    1.0000 0.60710  0.25020  0.73040  Biso   1.000  H
  C1147    1.0000 0.65280  0.26070  0.73020  Biso   1.000  C
  H1335    1.0000 0.65670  0.26350  0.75150  Biso   1.000  H
  S77      1.0000 0.68055  0.26460  0.70123  Biso   1.000  S
  C1148    1.0000 0.61982  0.24652  0.60007  Biso   1.000  C
  H1336    1.0000 0.60540  0.25620  0.58680  Biso   1.000  H
  C1149    1.0000 0.61984  0.21264  0.59969  Biso   1.000  C
  C1150    1.0000 0.62629  0.19055  0.62212  Biso   1.000  C
  H1337    1.0000 0.63450  0.19490  0.64190  Biso   1.000  H
  C1151    1.0000 0.60754  0.16460  0.58201  Biso   1.000  C
  C1152    1.0000 0.59240  0.20830  0.54624  Biso   1.000  C
  C1153    1.0000 0.55717  0.20929  0.55104  Biso   1.000  C
  C1154    1.0000 0.54374  0.20889  0.58087  Biso   1.000  C
  H1338    1.0000 0.55670  0.20880  0.59850  Biso   1.000  H
  C1155    1.0000 0.51170  0.20861  0.58461  Biso   1.000  C
  H1339    1.0000 0.50310  0.20830  0.60470  Biso   1.000  H
  C1156    1.0000 0.49216  0.20883  0.55872  Biso   1.000  C
  C1157    1.0000 0.50536  0.21012  0.52899  Biso   1.000  C
  H1340    1.0000 0.49240  0.21110  0.51140  Biso   1.000  H
  C1158    1.0000 0.53732  0.20996  0.52529  Biso   1.000  C
  H1341    1.0000 0.54580  0.21030  0.50520  Biso   1.000  H
  C1159    1.0000 0.45775  0.20684  0.56265  Biso   1.000  C
  C1160    1.0000 0.59718  0.13852  0.56112  Biso   1.000  C
  H1342    1.0000 0.57910  0.14520  0.54930  Biso   1.000  H
  H1343    1.0000 0.59110  0.12090  0.57380  Biso   1.000  H
  C1161    1.0000 0.62370  0.12900  0.53800  Biso   1.000  C
  H1344    1.0000 0.64230  0.12270  0.54960  Biso   1.000  H
  H1345    1.0000 0.62920  0.14670  0.52470  Biso   1.000  H
  C1162    1.0000 0.61170  0.10130  0.51760  Biso   1.000  C
  H1346    1.0000 0.59110  0.10640  0.50930  Biso   1.000  H
  H1347    1.0000 0.62580  0.09830  0.49990  Biso   1.000  H
  C1163    1.0000 0.60970  0.07060  0.53640  Biso   1.000  C
  H1348    1.0000 0.60230  0.05400  0.52310  Biso   1.000  H
  H1349    1.0000 0.63020  0.06530  0.54430  Biso   1.000  H
  H1350    1.0000 0.59550  0.07330  0.55370  Biso   1.000  H
  N77      1.0000 0.61888  0.16090  0.61119  Biso   1.000  N
  N78      1.0000 0.60794  0.19531  0.57414  Biso   1.000  N
  O153     1.0000 0.65084  0.31940  0.62671  Biso   1.000  O
  O154     1.0000 0.60741  0.31055  0.60118  Biso   1.000  O
  O155     1.0000 0.44883  0.20515  0.59183  Biso   1.000  O
  H1351    1.0000 0.43040  0.20190  0.59740  Biso   1.000  H
  O156     1.0000 0.43897  0.20711  0.54078  Biso   1.000  O
  H1352    1.0000 0.68330  0.26670  0.63110  Biso   1.000  H
  H1353    1.0000 0.66830  0.23370  0.63430  Biso   1.000  H
  C1164    1.0000 0.66040  0.26050  0.67240  Biso   1.000  C
  C1165    1.0000 0.67990  0.27120  0.69440  Biso   1.000  C
  H1354    1.0000 0.70040  0.27750  0.69050  Biso   1.000  H
  C1166    1.0000 0.66480  0.27170  0.72600  Biso   1.000  C
  H1355    1.0000 0.67480  0.27860  0.74420  Biso   1.000  H
  C1167    1.0000 0.63530  0.26110  0.72540  Biso   1.000  C
  H1356    1.0000 0.62230  0.25950  0.74280  Biso   1.000  H
  S78      1.0000 0.62477  0.25103  0.68822  Biso   1.000  S
  H1357    1.0000 0.58910  0.14740  0.54200  Biso   1.000  H
  H1358    1.0000 0.58010  0.12780  0.57130  Biso   1.000  H
  C1168    1.0000 0.62330  0.11530  0.55140  Biso   1.000  C
  H1359    1.0000 0.63480  0.10840  0.56980  Biso   1.000  H
  H1360    1.0000 0.63790  0.12550  0.53730  Biso   1.000  H
  C1169    1.0000 0.60770  0.08660  0.53480  Biso   1.000  C
  H1361    1.0000 0.59300  0.07660  0.54910  Biso   1.000  H
  H1362    1.0000 0.59600  0.09370  0.51660  Biso   1.000  H
  C1170    1.0000 0.63260  0.06270  0.52450  Biso   1.000  C
  H1363    1.0000 0.62260  0.04520  0.51430  Biso   1.000  H
  H1364    1.0000 0.64700  0.07250  0.51010  Biso   1.000  H
  H1365    1.0000 0.64390  0.05530  0.54260  Biso   1.000  H
  C1171    1.0000 0.13171  0.80009  0.11480  Biso   1.000  C
  C1172    1.0000 0.13794  0.76579  0.11715  Biso   1.000  C
  C1173    1.0000 0.16473  0.75572  0.13770  Biso   1.000  C
  H1366    1.0000 0.18220  0.76970  0.13490  Biso   1.000  H
  H1367    1.0000 0.17120  0.73490  0.13190  Biso   1.000  H
  C1174    1.0000 0.15440  0.75620  0.17172  Biso   1.000  C
  C1175    1.0000 0.12590  0.75070  0.18350  Biso   1.000  C
  H1368    1.0000 0.10850  0.74570  0.17120  Biso   1.000  H
  C1176    1.0000 0.12500  0.75330  0.21830  Biso   1.000  C
  H1369    1.0000 0.10710  0.75020  0.23040  Biso   1.000  H
  C1177    1.0000 0.15280  0.76070  0.23020  Biso   1.000  C
  H1370    1.0000 0.15670  0.76350  0.25150  Biso   1.000  H
  S79      1.0000 0.18055  0.76460  0.20123  Biso   1.000  S
  C1178    1.0000 0.11982  0.74652  0.10007  Biso   1.000  C
  H1371    1.0000 0.10540  0.75620  0.08680  Biso   1.000  H
  C1179    1.0000 0.11984  0.71264  0.09969  Biso   1.000  C
  C1180    1.0000 0.12629  0.69055  0.12212  Biso   1.000  C
  H1372    1.0000 0.13450  0.69490  0.14190  Biso   1.000  H
  C1181    1.0000 0.10754  0.66460  0.08201  Biso   1.000  C
  C1182    1.0000 0.09240  0.70830  0.04624  Biso   1.000  C
  C1183    1.0000 0.05717  0.70929  0.05104  Biso   1.000  C
  C1184    1.0000 0.04374  0.70889  0.08087  Biso   1.000  C
  H1373    1.0000 0.05670  0.70880  0.09850  Biso   1.000  H
  C1185    1.0000 0.01170  0.70861  0.08461  Biso   1.000  C
  H1374    1.0000 0.00310  0.70830  0.10470  Biso   1.000  H
  C1186    1.0000 0.99216  0.70883  0.05872  Biso   1.000  C
  C1187    1.0000 0.00536  0.71012  0.02899  Biso   1.000  C
  H1375    1.0000 0.99240  0.71110  0.01140  Biso   1.000  H
  C1188    1.0000 0.03732  0.70996  0.02529  Biso   1.000  C
  H1376    1.0000 0.04580  0.71030  0.00520  Biso   1.000  H
  C1189    1.0000 0.95775  0.70684  0.06265  Biso   1.000  C
  C1190    1.0000 0.09718  0.63852  0.06112  Biso   1.000  C
  H1377    1.0000 0.07910  0.64520  0.04930  Biso   1.000  H
  H1378    1.0000 0.09110  0.62090  0.07380  Biso   1.000  H
  C1191    1.0000 0.12370  0.62900  0.03800  Biso   1.000  C
  H1379    1.0000 0.14230  0.62270  0.04960  Biso   1.000  H
  H1380    1.0000 0.12920  0.64670  0.02470  Biso   1.000  H
  C1192    1.0000 0.11170  0.60130  0.01760  Biso   1.000  C
  H1381    1.0000 0.09110  0.60640  0.00930  Biso   1.000  H
  H1382    1.0000 0.12580  0.59830  0.99990  Biso   1.000  H
  C1193    1.0000 0.10970  0.57060  0.03640  Biso   1.000  C
  H1383    1.0000 0.10230  0.55400  0.02310  Biso   1.000  H
  H1384    1.0000 0.13020  0.56530  0.04430  Biso   1.000  H
  H1385    1.0000 0.09550  0.57330  0.05370  Biso   1.000  H
  N79      1.0000 0.11888  0.66090  0.11119  Biso   1.000  N
  N80      1.0000 0.10794  0.69531  0.07414  Biso   1.000  N
  O157     1.0000 0.15084  0.81940  0.12671  Biso   1.000  O
  O158     1.0000 0.10741  0.81055  0.10118  Biso   1.000  O
  O159     1.0000 0.94883  0.70515  0.09183  Biso   1.000  O
  H1386    1.0000 0.93040  0.70190  0.09740  Biso   1.000  H
  O160     1.0000 0.93897  0.70711  0.04078  Biso   1.000  O
  H1387    1.0000 0.18330  0.76670  0.13110  Biso   1.000  H
  H1388    1.0000 0.16830  0.73370  0.13430  Biso   1.000  H
  C1194    1.0000 0.16040  0.76050  0.17240  Biso   1.000  C
  C1195    1.0000 0.17990  0.77120  0.19440  Biso   1.000  C
  H1389    1.0000 0.20040  0.77750  0.19050  Biso   1.000  H
  C1196    1.0000 0.16480  0.77170  0.22600  Biso   1.000  C
  H1390    1.0000 0.17480  0.77860  0.24420  Biso   1.000  H
  C1197    1.0000 0.13530  0.76110  0.22540  Biso   1.000  C
  H1391    1.0000 0.12230  0.75950  0.24280  Biso   1.000  H
  S80      1.0000 0.12477  0.75103  0.18822  Biso   1.000  S
  H1392    1.0000 0.08910  0.64740  0.04200  Biso   1.000  H
  H1393    1.0000 0.08010  0.62780  0.07130  Biso   1.000  H
  C1198    1.0000 0.12330  0.61530  0.05140  Biso   1.000  C
  H1394    1.0000 0.13480  0.60840  0.06980  Biso   1.000  H
  H1395    1.0000 0.13790  0.62550  0.03730  Biso   1.000  H
  C1199    1.0000 0.10770  0.58660  0.03480  Biso   1.000  C
  H1396    1.0000 0.09300  0.57660  0.04910  Biso   1.000  H
  H1397    1.0000 0.09600  0.59370  0.01660  Biso   1.000  H
  C1200    1.0000 0.13260  0.56270  0.02450  Biso   1.000  C
  H1398    1.0000 0.12260  0.54520  0.01430  Biso   1.000  H
  H1399    1.0000 0.14700  0.57250  0.01010  Biso   1.000  H
  H1400    1.0000 0.14390  0.55530  0.04260  Biso   1.000  H
  C1201    1.0000 0.69991  0.11480  0.86829  Biso   1.000  C
  C1202    1.0000 0.73421  0.11715  0.86206  Biso   1.000  C
  C1203    1.0000 0.74428  0.13770  0.83527  Biso   1.000  C
  H1401    1.0000 0.73030  0.13490  0.81780  Biso   1.000  H
  H1402    1.0000 0.76510  0.13190  0.82880  Biso   1.000  H
  C1204    1.0000 0.74380  0.17172  0.84560  Biso   1.000  C
  C1205    1.0000 0.74930  0.18350  0.87410  Biso   1.000  C
  H1403    1.0000 0.75430  0.17120  0.89150  Biso   1.000  H
  C1206    1.0000 0.74670  0.21830  0.87500  Biso   1.000  C
  H1404    1.0000 0.74980  0.23040  0.89290  Biso   1.000  H
  C1207    1.0000 0.73930  0.23020  0.84720  Biso   1.000  C
  H1405    1.0000 0.73650  0.25150  0.84330  Biso   1.000  H
  S81      1.0000 0.73540  0.20123  0.81945  Biso   1.000  S
  C1208    1.0000 0.75348  0.10007  0.88018  Biso   1.000  C
  H1406    1.0000 0.74380  0.08680  0.89460  Biso   1.000  H
  C1209    1.0000 0.78736  0.09969  0.88016  Biso   1.000  C
  C1210    1.0000 0.80945  0.12212  0.87371  Biso   1.000  C
  H1407    1.0000 0.80510  0.14190  0.86550  Biso   1.000  H
  C1211    1.0000 0.83540  0.08201  0.89246  Biso   1.000  C
  C1212    1.0000 0.79170  0.04624  0.90760  Biso   1.000  C
  C1213    1.0000 0.79071  0.05104  0.94283  Biso   1.000  C
  C1214    1.0000 0.79111  0.08087  0.95626  Biso   1.000  C
  H1408    1.0000 0.79120  0.09850  0.94330  Biso   1.000  H
  C1215    1.0000 0.79139  0.08461  0.98830  Biso   1.000  C
  H1409    1.0000 0.79170  0.10470  0.99690  Biso   1.000  H
  C1216    1.0000 0.79117  0.05872  0.00784  Biso   1.000  C
  C1217    1.0000 0.78988  0.02899  0.99464  Biso   1.000  C
  H1410    1.0000 0.78890  0.01140  0.00760  Biso   1.000  H
  C1218    1.0000 0.79004  0.02529  0.96268  Biso   1.000  C
  H1411    1.0000 0.78970  0.00520  0.95420  Biso   1.000  H
  C1219    1.0000 0.79316  0.06265  0.04225  Biso   1.000  C
  C1220    1.0000 0.86148  0.06112  0.90282  Biso   1.000  C
  H1412    1.0000 0.85480  0.04930  0.92090  Biso   1.000  H
  H1413    1.0000 0.87910  0.07380  0.90890  Biso   1.000  H
  C1221    1.0000 0.87100  0.03800  0.87630  Biso   1.000  C
  H1414    1.0000 0.87730  0.04960  0.85770  Biso   1.000  H
  H1415    1.0000 0.85330  0.02470  0.87080  Biso   1.000  H
  C1222    1.0000 0.89870  0.01760  0.88830  Biso   1.000  C
  H1416    1.0000 0.89360  0.00930  0.90890  Biso   1.000  H
  H1417    1.0000 0.90170  0.99990  0.87420  Biso   1.000  H
  C1223    1.0000 0.92940  0.03640  0.89030  Biso   1.000  C
  H1418    1.0000 0.94600  0.02310  0.89770  Biso   1.000  H
  H1419    1.0000 0.93470  0.04430  0.86980  Biso   1.000  H
  H1420    1.0000 0.92670  0.05370  0.90450  Biso   1.000  H
  N81      1.0000 0.83910  0.11119  0.88112  Biso   1.000  N
  N82      1.0000 0.80469  0.07414  0.89206  Biso   1.000  N
  O161     1.0000 0.68060  0.12671  0.84916  Biso   1.000  O
  O162     1.0000 0.68945  0.10118  0.89259  Biso   1.000  O
  O163     1.0000 0.79485  0.09183  0.05117  Biso   1.000  O
  H1421    1.0000 0.79810  0.09740  0.06960  Biso   1.000  H
  O164     1.0000 0.79289  0.04078  0.06103  Biso   1.000  O
  H1422    1.0000 0.73330  0.13110  0.81670  Biso   1.000  H
  H1423    1.0000 0.76630  0.13430  0.83170  Biso   1.000  H
  C1224    1.0000 0.73950  0.17240  0.83960  Biso   1.000  C
  C1225    1.0000 0.72880  0.19440  0.82010  Biso   1.000  C
  H1424    1.0000 0.72250  0.19050  0.79960  Biso   1.000  H
  C1226    1.0000 0.72830  0.22600  0.83520  Biso   1.000  C
  H1425    1.0000 0.72140  0.24420  0.82520  Biso   1.000  H
  C1227    1.0000 0.73890  0.22540  0.86470  Biso   1.000  C
  H1426    1.0000 0.74050  0.24280  0.87770  Biso   1.000  H
  S82      1.0000 0.74897  0.18822  0.87523  Biso   1.000  S
  H1427    1.0000 0.85260  0.04200  0.91090  Biso   1.000  H
  H1428    1.0000 0.87220  0.07130  0.91990  Biso   1.000  H
  C1228    1.0000 0.88470  0.05140  0.87670  Biso   1.000  C
  H1429    1.0000 0.89160  0.06980  0.86520  Biso   1.000  H
  H1430    1.0000 0.87450  0.03730  0.86210  Biso   1.000  H
  C1229    1.0000 0.91340  0.03480  0.89230  Biso   1.000  C
  H1431    1.0000 0.92340  0.04910  0.90700  Biso   1.000  H
  H1432    1.0000 0.90630  0.01660  0.90400  Biso   1.000  H
  C1230    1.0000 0.93730  0.02450  0.86740  Biso   1.000  C
  H1433    1.0000 0.95480  0.01430  0.87740  Biso   1.000  H
  H1434    1.0000 0.92750  0.01010  0.85300  Biso   1.000  H
  H1435    1.0000 0.94470  0.04260  0.85610  Biso   1.000  H
  C1231    1.0000 0.19991  0.61480  0.36829  Biso   1.000  C
  C1232    1.0000 0.23421  0.61715  0.36206  Biso   1.000  C
  C1233    1.0000 0.24428  0.63770  0.33527  Biso   1.000  C
  H1436    1.0000 0.23030  0.63490  0.31780  Biso   1.000  H
  H1437    1.0000 0.26510  0.63190  0.32880  Biso   1.000  H
  C1234    1.0000 0.24380  0.67172  0.34560  Biso   1.000  C
  C1235    1.0000 0.24930  0.68350  0.37410  Biso   1.000  C
  H1438    1.0000 0.25430  0.67120  0.39150  Biso   1.000  H
  C1236    1.0000 0.24670  0.71830  0.37500  Biso   1.000  C
  H1439    1.0000 0.24980  0.73040  0.39290  Biso   1.000  H
  C1237    1.0000 0.23930  0.73020  0.34720  Biso   1.000  C
  H1440    1.0000 0.23650  0.75150  0.34330  Biso   1.000  H
  S83      1.0000 0.23540  0.70123  0.31945  Biso   1.000  S
  C1238    1.0000 0.25348  0.60007  0.38018  Biso   1.000  C
  H1441    1.0000 0.24380  0.58680  0.39460  Biso   1.000  H
  C1239    1.0000 0.28736  0.59969  0.38016  Biso   1.000  C
  C1240    1.0000 0.30945  0.62212  0.37371  Biso   1.000  C
  H1442    1.0000 0.30510  0.64190  0.36550  Biso   1.000  H
  C1241    1.0000 0.33540  0.58201  0.39246  Biso   1.000  C
  C1242    1.0000 0.29170  0.54624  0.40760  Biso   1.000  C
  C1243    1.0000 0.29071  0.55104  0.44283  Biso   1.000  C
  C1244    1.0000 0.29111  0.58087  0.45626  Biso   1.000  C
  H1443    1.0000 0.29120  0.59850  0.44330  Biso   1.000  H
  C1245    1.0000 0.29139  0.58461  0.48830  Biso   1.000  C
  H1444    1.0000 0.29170  0.60470  0.49690  Biso   1.000  H
  C1246    1.0000 0.29117  0.55872  0.50784  Biso   1.000  C
  C1247    1.0000 0.28988  0.52899  0.49464  Biso   1.000  C
  H1445    1.0000 0.28890  0.51140  0.50760  Biso   1.000  H
  C1248    1.0000 0.29004  0.52529  0.46268  Biso   1.000  C
  H1446    1.0000 0.28970  0.50520  0.45420  Biso   1.000  H
  C1249    1.0000 0.29316  0.56265  0.54225  Biso   1.000  C
  C1250    1.0000 0.36148  0.56112  0.40282  Biso   1.000  C
  H1447    1.0000 0.35480  0.54930  0.42090  Biso   1.000  H
  H1448    1.0000 0.37910  0.57380  0.40890  Biso   1.000  H
  C1251    1.0000 0.37100  0.53800  0.37630  Biso   1.000  C
  H1449    1.0000 0.37730  0.54960  0.35770  Biso   1.000  H
  H1450    1.0000 0.35330  0.52470  0.37080  Biso   1.000  H
  C1252    1.0000 0.39870  0.51760  0.38830  Biso   1.000  C
  H1451    1.0000 0.39360  0.50930  0.40890  Biso   1.000  H
  H1452    1.0000 0.40170  0.49990  0.37420  Biso   1.000  H
  C1253    1.0000 0.42940  0.53640  0.39030  Biso   1.000  C
  H1453    1.0000 0.44600  0.52310  0.39770  Biso   1.000  H
  H1454    1.0000 0.43470  0.54430  0.36980  Biso   1.000  H
  H1455    1.0000 0.42670  0.55370  0.40450  Biso   1.000  H
  N83      1.0000 0.33910  0.61119  0.38112  Biso   1.000  N
  N84      1.0000 0.30469  0.57414  0.39206  Biso   1.000  N
  O165     1.0000 0.18060  0.62671  0.34916  Biso   1.000  O
  O166     1.0000 0.18945  0.60118  0.39259  Biso   1.000  O
  O167     1.0000 0.29485  0.59183  0.55117  Biso   1.000  O
  H1456    1.0000 0.29810  0.59740  0.56960  Biso   1.000  H
  O168     1.0000 0.29289  0.54078  0.56103  Biso   1.000  O
  H1457    1.0000 0.23330  0.63110  0.31670  Biso   1.000  H
  H1458    1.0000 0.26630  0.63430  0.33170  Biso   1.000  H
  C1254    1.0000 0.23950  0.67240  0.33960  Biso   1.000  C
  C1255    1.0000 0.22880  0.69440  0.32010  Biso   1.000  C
  H1459    1.0000 0.22250  0.69050  0.29960  Biso   1.000  H
  C1256    1.0000 0.22830  0.72600  0.33520  Biso   1.000  C
  H1460    1.0000 0.22140  0.74420  0.32520  Biso   1.000  H
  C1257    1.0000 0.23890  0.72540  0.36470  Biso   1.000  C
  H1461    1.0000 0.24050  0.74280  0.37770  Biso   1.000  H
  S84      1.0000 0.24897  0.68822  0.37523  Biso   1.000  S
  H1462    1.0000 0.35260  0.54200  0.41090  Biso   1.000  H
  H1463    1.0000 0.37220  0.57130  0.41990  Biso   1.000  H
  C1258    1.0000 0.38470  0.55140  0.37670  Biso   1.000  C
  H1464    1.0000 0.39160  0.56980  0.36520  Biso   1.000  H
  H1465    1.0000 0.37450  0.53730  0.36210  Biso   1.000  H
  C1259    1.0000 0.41340  0.53480  0.39230  Biso   1.000  C
  H1466    1.0000 0.42340  0.54910  0.40700  Biso   1.000  H
  H1467    1.0000 0.40630  0.51660  0.40400  Biso   1.000  H
  C1260    1.0000 0.43730  0.52450  0.36740  Biso   1.000  C
  H1468    1.0000 0.45480  0.51430  0.37740  Biso   1.000  H
  H1469    1.0000 0.42750  0.51010  0.35300  Biso   1.000  H
  H1470    1.0000 0.44470  0.54260  0.35610  Biso   1.000  H
  C1261    1.0000 0.19991  0.38520  0.13171  Biso   1.000  C
  C1262    1.0000 0.23421  0.38285  0.13794  Biso   1.000  C
  C1263    1.0000 0.24428  0.36230  0.16473  Biso   1.000  C
  H1471    1.0000 0.23030  0.36510  0.18220  Biso   1.000  H
  H1472    1.0000 0.26510  0.36810  0.17120  Biso   1.000  H
  C1264    1.0000 0.24380  0.32828  0.15440  Biso   1.000  C
  C1265    1.0000 0.24930  0.31650  0.12590  Biso   1.000  C
  H1473    1.0000 0.25430  0.32880  0.10850  Biso   1.000  H
  C1266    1.0000 0.24670  0.28170  0.12500  Biso   1.000  C
  H1474    1.0000 0.24980  0.26960  0.10710  Biso   1.000  H
  C1267    1.0000 0.23930  0.26980  0.15280  Biso   1.000  C
  H1475    1.0000 0.23650  0.24850  0.15670  Biso   1.000  H
  S85      1.0000 0.23540  0.29877  0.18055  Biso   1.000  S
  C1268    1.0000 0.25348  0.39993  0.11982  Biso   1.000  C
  H1476    1.0000 0.24380  0.41320  0.10540  Biso   1.000  H
  C1269    1.0000 0.28736  0.40031  0.11984  Biso   1.000  C
  C1270    1.0000 0.30945  0.37788  0.12629  Biso   1.000  C
  H1477    1.0000 0.30510  0.35810  0.13450  Biso   1.000  H
  C1271    1.0000 0.33540  0.41799  0.10754  Biso   1.000  C
  C1272    1.0000 0.29170  0.45376  0.09240  Biso   1.000  C
  C1273    1.0000 0.29071  0.44896  0.05717  Biso   1.000  C
  C1274    1.0000 0.29111  0.41913  0.04374  Biso   1.000  C
  H1478    1.0000 0.29120  0.40150  0.05670  Biso   1.000  H
  C1275    1.0000 0.29139  0.41539  0.01170  Biso   1.000  C
  H1479    1.0000 0.29170  0.39530  0.00310  Biso   1.000  H
  C1276    1.0000 0.29117  0.44128  0.99216  Biso   1.000  C
  C1277    1.0000 0.28988  0.47101  0.00536  Biso   1.000  C
  H1480    1.0000 0.28890  0.48860  0.99240  Biso   1.000  H
  C1278    1.0000 0.29004  0.47471  0.03732  Biso   1.000  C
  H1481    1.0000 0.28970  0.49480  0.04580  Biso   1.000  H
  C1279    1.0000 0.29316  0.43735  0.95775  Biso   1.000  C
  C1280    1.0000 0.36148  0.43888  0.09718  Biso   1.000  C
  H1482    1.0000 0.35480  0.45070  0.07910  Biso   1.000  H
  H1483    1.0000 0.37910  0.42620  0.09110  Biso   1.000  H
  C1281    1.0000 0.37100  0.46200  0.12370  Biso   1.000  C
  H1484    1.0000 0.37730  0.45040  0.14230  Biso   1.000  H
  H1485    1.0000 0.35330  0.47530  0.12920  Biso   1.000  H
  C1282    1.0000 0.39870  0.48240  0.11170  Biso   1.000  C
  H1486    1.0000 0.39360  0.49070  0.09110  Biso   1.000  H
  H1487    1.0000 0.40170  0.50010  0.12580  Biso   1.000  H
  C1283    1.0000 0.42940  0.46360  0.10970  Biso   1.000  C
  H1488    1.0000 0.44600  0.47690  0.10230  Biso   1.000  H
  H1489    1.0000 0.43470  0.45570  0.13020  Biso   1.000  H
  H1490    1.0000 0.42670  0.44630  0.09550  Biso   1.000  H
  N85      1.0000 0.33910  0.38881  0.11888  Biso   1.000  N
  N86      1.0000 0.30469  0.42586  0.10794  Biso   1.000  N
  O169     1.0000 0.18060  0.37329  0.15084  Biso   1.000  O
  O170     1.0000 0.18945  0.39882  0.10741  Biso   1.000  O
  O171     1.0000 0.29485  0.40817  0.94883  Biso   1.000  O
  H1491    1.0000 0.29810  0.40260  0.93040  Biso   1.000  H
  O172     1.0000 0.29289  0.45922  0.93897  Biso   1.000  O
  H1492    1.0000 0.23330  0.36890  0.18330  Biso   1.000  H
  H1493    1.0000 0.26630  0.36570  0.16830  Biso   1.000  H
  C1284    1.0000 0.23950  0.32760  0.16040  Biso   1.000  C
  C1285    1.0000 0.22880  0.30560  0.17990  Biso   1.000  C
  H1494    1.0000 0.22250  0.30950  0.20040  Biso   1.000  H
  C1286    1.0000 0.22830  0.27400  0.16480  Biso   1.000  C
  H1495    1.0000 0.22140  0.25580  0.17480  Biso   1.000  H
  C1287    1.0000 0.23890  0.27460  0.13530  Biso   1.000  C
  H1496    1.0000 0.24050  0.25720  0.12230  Biso   1.000  H
  S86      1.0000 0.24897  0.31178  0.12477  Biso   1.000  S
  H1497    1.0000 0.35260  0.45800  0.08910  Biso   1.000  H
  H1498    1.0000 0.37220  0.42870  0.08010  Biso   1.000  H
  C1288    1.0000 0.38470  0.44860  0.12330  Biso   1.000  C
  H1499    1.0000 0.39160  0.43020  0.13480  Biso   1.000  H
  H1500    1.0000 0.37450  0.46270  0.13790  Biso   1.000  H
  C1289    1.0000 0.41340  0.46520  0.10770  Biso   1.000  C
  H1501    1.0000 0.42340  0.45090  0.09300  Biso   1.000  H
  H1502    1.0000 0.40630  0.48340  0.09600  Biso   1.000  H
  C1290    1.0000 0.43730  0.47550  0.13260  Biso   1.000  C
  H1503    1.0000 0.45480  0.48570  0.12260  Biso   1.000  H
  H1504    1.0000 0.42750  0.48990  0.14700  Biso   1.000  H
  H1505    1.0000 0.44470  0.45740  0.14390  Biso   1.000  H
  C1291    1.0000 0.69991  0.88520  0.63171  Biso   1.000  C
  C1292    1.0000 0.73421  0.88285  0.63794  Biso   1.000  C
  C1293    1.0000 0.74428  0.86230  0.66473  Biso   1.000  C
  H1506    1.0000 0.73030  0.86510  0.68220  Biso   1.000  H
  H1507    1.0000 0.76510  0.86810  0.67120  Biso   1.000  H
  C1294    1.0000 0.74380  0.82828  0.65440  Biso   1.000  C
  C1295    1.0000 0.74930  0.81650  0.62590  Biso   1.000  C
  H1508    1.0000 0.75430  0.82880  0.60850  Biso   1.000  H
  C1296    1.0000 0.74670  0.78170  0.62500  Biso   1.000  C
  H1509    1.0000 0.74980  0.76960  0.60710  Biso   1.000  H
  C1297    1.0000 0.73930  0.76980  0.65280  Biso   1.000  C
  H1510    1.0000 0.73650  0.74850  0.65670  Biso   1.000  H
  S87      1.0000 0.73540  0.79877  0.68055  Biso   1.000  S
  C1298    1.0000 0.75348  0.89993  0.61982  Biso   1.000  C
  H1511    1.0000 0.74380  0.91320  0.60540  Biso   1.000  H
  C1299    1.0000 0.78736  0.90031  0.61984  Biso   1.000  C
  C1300    1.0000 0.80945  0.87788  0.62629  Biso   1.000  C
  H1512    1.0000 0.80510  0.85810  0.63450  Biso   1.000  H
  C1301    1.0000 0.83540  0.91799  0.60754  Biso   1.000  C
  C1302    1.0000 0.79170  0.95376  0.59240  Biso   1.000  C
  C1303    1.0000 0.79071  0.94896  0.55717  Biso   1.000  C
  C1304    1.0000 0.79111  0.91913  0.54374  Biso   1.000  C
  H1513    1.0000 0.79120  0.90150  0.55670  Biso   1.000  H
  C1305    1.0000 0.79139  0.91539  0.51170  Biso   1.000  C
  H1514    1.0000 0.79170  0.89530  0.50310  Biso   1.000  H
  C1306    1.0000 0.79117  0.94128  0.49216  Biso   1.000  C
  C1307    1.0000 0.78988  0.97101  0.50536  Biso   1.000  C
  H1515    1.0000 0.78890  0.98860  0.49240  Biso   1.000  H
  C1308    1.0000 0.79004  0.97471  0.53732  Biso   1.000  C
  H1516    1.0000 0.78970  0.99480  0.54580  Biso   1.000  H
  C1309    1.0000 0.79316  0.93735  0.45775  Biso   1.000  C
  C1310    1.0000 0.86148  0.93888  0.59718  Biso   1.000  C
  H1517    1.0000 0.85480  0.95070  0.57910  Biso   1.000  H
  H1518    1.0000 0.87910  0.92620  0.59110  Biso   1.000  H
  C1311    1.0000 0.87100  0.96200  0.62370  Biso   1.000  C
  H1519    1.0000 0.87730  0.95040  0.64230  Biso   1.000  H
  H1520    1.0000 0.85330  0.97530  0.62920  Biso   1.000  H
  C1312    1.0000 0.89870  0.98240  0.61170  Biso   1.000  C
  H1521    1.0000 0.89360  0.99070  0.59110  Biso   1.000  H
  H1522    1.0000 0.90170  0.00010  0.62580  Biso   1.000  H
  C1313    1.0000 0.92940  0.96360  0.60970  Biso   1.000  C
  H1523    1.0000 0.94600  0.97690  0.60230  Biso   1.000  H
  H1524    1.0000 0.93470  0.95570  0.63020  Biso   1.000  H
  H1525    1.0000 0.92670  0.94630  0.59550  Biso   1.000  H
  N87      1.0000 0.83910  0.88881  0.61888  Biso   1.000  N
  N88      1.0000 0.80469  0.92586  0.60794  Biso   1.000  N
  O173     1.0000 0.68060  0.87329  0.65084  Biso   1.000  O
  O174     1.0000 0.68945  0.89882  0.60741  Biso   1.000  O
  O175     1.0000 0.79485  0.90817  0.44883  Biso   1.000  O
  H1526    1.0000 0.79810  0.90260  0.43040  Biso   1.000  H
  O176     1.0000 0.79289  0.95922  0.43897  Biso   1.000  O
  H1527    1.0000 0.73330  0.86890  0.68330  Biso   1.000  H
  H1528    1.0000 0.76630  0.86570  0.66830  Biso   1.000  H
  C1314    1.0000 0.73950  0.82760  0.66040  Biso   1.000  C
  C1315    1.0000 0.72880  0.80560  0.67990  Biso   1.000  C
  H1529    1.0000 0.72250  0.80950  0.70040  Biso   1.000  H
  C1316    1.0000 0.72830  0.77400  0.66480  Biso   1.000  C
  H1530    1.0000 0.72140  0.75580  0.67480  Biso   1.000  H
  C1317    1.0000 0.73890  0.77460  0.63530  Biso   1.000  C
  H1531    1.0000 0.74050  0.75720  0.62230  Biso   1.000  H
  S88      1.0000 0.74897  0.81178  0.62477  Biso   1.000  S
  H1532    1.0000 0.85260  0.95800  0.58910  Biso   1.000  H
  H1533    1.0000 0.87220  0.92870  0.58010  Biso   1.000  H
  C1318    1.0000 0.88470  0.94860  0.62330  Biso   1.000  C
  H1534    1.0000 0.89160  0.93020  0.63480  Biso   1.000  H
  H1535    1.0000 0.87450  0.96270  0.63790  Biso   1.000  H
  C1319    1.0000 0.91340  0.96520  0.60770  Biso   1.000  C
  H1536    1.0000 0.92340  0.95090  0.59300  Biso   1.000  H
  H1537    1.0000 0.90630  0.98340  0.59600  Biso   1.000  H
  C1320    1.0000 0.93730  0.97550  0.63260  Biso   1.000  C
  H1538    1.0000 0.95480  0.98570  0.62260  Biso   1.000  H
  H1539    1.0000 0.92750  0.98990  0.64700  Biso   1.000  H
  H1540    1.0000 0.94470  0.95740  0.64390  Biso   1.000  H
  C1321    1.0000 0.30009  0.61480  0.63171  Biso   1.000  C
  C1322    1.0000 0.26579  0.61715  0.63794  Biso   1.000  C
  C1323    1.0000 0.25572  0.63770  0.66473  Biso   1.000  C
  H1541    1.0000 0.26970  0.63490  0.68220  Biso   1.000  H
  H1542    1.0000 0.23490  0.63190  0.67120  Biso   1.000  H
  C1324    1.0000 0.25620  0.67172  0.65440  Biso   1.000  C
  C1325    1.0000 0.25070  0.68350  0.62590  Biso   1.000  C
  H1543    1.0000 0.24570  0.67120  0.60850  Biso   1.000  H
  C1326    1.0000 0.25330  0.71830  0.62500  Biso   1.000  C
  H1544    1.0000 0.25020  0.73040  0.60710  Biso   1.000  H
  C1327    1.0000 0.26070  0.73020  0.65280  Biso   1.000  C
  H1545    1.0000 0.26350  0.75150  0.65670  Biso   1.000  H
  S89      1.0000 0.26460  0.70123  0.68055  Biso   1.000  S
  C1328    1.0000 0.24652  0.60007  0.61982  Biso   1.000  C
  H1546    1.0000 0.25620  0.58680  0.60540  Biso   1.000  H
  C1329    1.0000 0.21264  0.59969  0.61984  Biso   1.000  C
  C1330    1.0000 0.19055  0.62212  0.62629  Biso   1.000  C
  H1547    1.0000 0.19490  0.64190  0.63450  Biso   1.000  H
  C1331    1.0000 0.16460  0.58201  0.60754  Biso   1.000  C
  C1332    1.0000 0.20830  0.54624  0.59240  Biso   1.000  C
  C1333    1.0000 0.20929  0.55104  0.55717  Biso   1.000  C
  C1334    1.0000 0.20889  0.58087  0.54374  Biso   1.000  C
  H1548    1.0000 0.20880  0.59850  0.55670  Biso   1.000  H
  C1335    1.0000 0.20861  0.58461  0.51170  Biso   1.000  C
  H1549    1.0000 0.20830  0.60470  0.50310  Biso   1.000  H
  C1336    1.0000 0.20883  0.55872  0.49216  Biso   1.000  C
  C1337    1.0000 0.21012  0.52899  0.50536  Biso   1.000  C
  H1550    1.0000 0.21110  0.51140  0.49240  Biso   1.000  H
  C1338    1.0000 0.20996  0.52529  0.53732  Biso   1.000  C
  H1551    1.0000 0.21030  0.50520  0.54580  Biso   1.000  H
  C1339    1.0000 0.20684  0.56265  0.45775  Biso   1.000  C
  C1340    1.0000 0.13852  0.56112  0.59718  Biso   1.000  C
  H1552    1.0000 0.14520  0.54930  0.57910  Biso   1.000  H
  H1553    1.0000 0.12090  0.57380  0.59110  Biso   1.000  H
  C1341    1.0000 0.12900  0.53800  0.62370  Biso   1.000  C
  H1554    1.0000 0.12270  0.54960  0.64230  Biso   1.000  H
  H1555    1.0000 0.14670  0.52470  0.62920  Biso   1.000  H
  C1342    1.0000 0.10130  0.51760  0.61170  Biso   1.000  C
  H1556    1.0000 0.10640  0.50930  0.59110  Biso   1.000  H
  H1557    1.0000 0.09830  0.49990  0.62580  Biso   1.000  H
  C1343    1.0000 0.07060  0.53640  0.60970  Biso   1.000  C
  H1558    1.0000 0.05400  0.52310  0.60230  Biso   1.000  H
  H1559    1.0000 0.06530  0.54430  0.63020  Biso   1.000  H
  H1560    1.0000 0.07330  0.55370  0.59550  Biso   1.000  H
  N89      1.0000 0.16090  0.61119  0.61888  Biso   1.000  N
  N90      1.0000 0.19531  0.57414  0.60794  Biso   1.000  N
  O177     1.0000 0.31940  0.62671  0.65084  Biso   1.000  O
  O178     1.0000 0.31055  0.60118  0.60741  Biso   1.000  O
  O179     1.0000 0.20515  0.59183  0.44883  Biso   1.000  O
  H1561    1.0000 0.20190  0.59740  0.43040  Biso   1.000  H
  O180     1.0000 0.20711  0.54078  0.43897  Biso   1.000  O
  H1562    1.0000 0.26670  0.63110  0.68330  Biso   1.000  H
  H1563    1.0000 0.23370  0.63430  0.66830  Biso   1.000  H
  C1344    1.0000 0.26050  0.67240  0.66040  Biso   1.000  C
  C1345    1.0000 0.27120  0.69440  0.67990  Biso   1.000  C
  H1564    1.0000 0.27750  0.69050  0.70040  Biso   1.000  H
  C1346    1.0000 0.27170  0.72600  0.66480  Biso   1.000  C
  H1565    1.0000 0.27860  0.74420  0.67480  Biso   1.000  H
  C1347    1.0000 0.26110  0.72540  0.63530  Biso   1.000  C
  H1566    1.0000 0.25950  0.74280  0.62230  Biso   1.000  H
  S90      1.0000 0.25103  0.68822  0.62477  Biso   1.000  S
  H1567    1.0000 0.14740  0.54200  0.58910  Biso   1.000  H
  H1568    1.0000 0.12780  0.57130  0.58010  Biso   1.000  H
  C1348    1.0000 0.11530  0.55140  0.62330  Biso   1.000  C
  H1569    1.0000 0.10840  0.56980  0.63480  Biso   1.000  H
  H1570    1.0000 0.12550  0.53730  0.63790  Biso   1.000  H
  C1349    1.0000 0.08660  0.53480  0.60770  Biso   1.000  C
  H1571    1.0000 0.07660  0.54910  0.59300  Biso   1.000  H
  H1572    1.0000 0.09370  0.51660  0.59600  Biso   1.000  H
  C1350    1.0000 0.06270  0.52450  0.63260  Biso   1.000  C
  H1573    1.0000 0.04520  0.51430  0.62260  Biso   1.000  H
  H1574    1.0000 0.07250  0.51010  0.64700  Biso   1.000  H
  H1575    1.0000 0.05530  0.54260  0.64390  Biso   1.000  H
  C1351    1.0000 0.80009  0.11480  0.13171  Biso   1.000  C
  C1352    1.0000 0.76579  0.11715  0.13794  Biso   1.000  C
  C1353    1.0000 0.75572  0.13770  0.16473  Biso   1.000  C
  H1576    1.0000 0.76970  0.13490  0.18220  Biso   1.000  H
  H1577    1.0000 0.73490  0.13190  0.17120  Biso   1.000  H
  C1354    1.0000 0.75620  0.17172  0.15440  Biso   1.000  C
  C1355    1.0000 0.75070  0.18350  0.12590  Biso   1.000  C
  H1578    1.0000 0.74570  0.17120  0.10850  Biso   1.000  H
  C1356    1.0000 0.75330  0.21830  0.12500  Biso   1.000  C
  H1579    1.0000 0.75020  0.23040  0.10710  Biso   1.000  H
  C1357    1.0000 0.76070  0.23020  0.15280  Biso   1.000  C
  H1580    1.0000 0.76350  0.25150  0.15670  Biso   1.000  H
  S91      1.0000 0.76460  0.20123  0.18055  Biso   1.000  S
  C1358    1.0000 0.74652  0.10007  0.11982  Biso   1.000  C
  H1581    1.0000 0.75620  0.08680  0.10540  Biso   1.000  H
  C1359    1.0000 0.71264  0.09969  0.11984  Biso   1.000  C
  C1360    1.0000 0.69055  0.12212  0.12629  Biso   1.000  C
  H1582    1.0000 0.69490  0.14190  0.13450  Biso   1.000  H
  C1361    1.0000 0.66460  0.08201  0.10754  Biso   1.000  C
  C1362    1.0000 0.70830  0.04624  0.09240  Biso   1.000  C
  C1363    1.0000 0.70929  0.05104  0.05717  Biso   1.000  C
  C1364    1.0000 0.70889  0.08087  0.04374  Biso   1.000  C
  H1583    1.0000 0.70880  0.09850  0.05670  Biso   1.000  H
  C1365    1.0000 0.70861  0.08461  0.01170  Biso   1.000  C
  H1584    1.0000 0.70830  0.10470  0.00310  Biso   1.000  H
  C1366    1.0000 0.70883  0.05872  0.99216  Biso   1.000  C
  C1367    1.0000 0.71012  0.02899  0.00536  Biso   1.000  C
  H1585    1.0000 0.71110  0.01140  0.99240  Biso   1.000  H
  C1368    1.0000 0.70996  0.02529  0.03732  Biso   1.000  C
  H1586    1.0000 0.71030  0.00520  0.04580  Biso   1.000  H
  C1369    1.0000 0.70684  0.06265  0.95775  Biso   1.000  C
  C1370    1.0000 0.63852  0.06112  0.09718  Biso   1.000  C
  H1587    1.0000 0.64520  0.04930  0.07910  Biso   1.000  H
  H1588    1.0000 0.62090  0.07380  0.09110  Biso   1.000  H
  C1371    1.0000 0.62900  0.03800  0.12370  Biso   1.000  C
  H1589    1.0000 0.62270  0.04960  0.14230  Biso   1.000  H
  H1590    1.0000 0.64670  0.02470  0.12920  Biso   1.000  H
  C1372    1.0000 0.60130  0.01760  0.11170  Biso   1.000  C
  H1591    1.0000 0.60640  0.00930  0.09110  Biso   1.000  H
  H1592    1.0000 0.59830  0.99990  0.12580  Biso   1.000  H
  C1373    1.0000 0.57060  0.03640  0.10970  Biso   1.000  C
  H1593    1.0000 0.55400  0.02310  0.10230  Biso   1.000  H
  H1594    1.0000 0.56530  0.04430  0.13020  Biso   1.000  H
  H1595    1.0000 0.57330  0.05370  0.09550  Biso   1.000  H
  N91      1.0000 0.66090  0.11119  0.11888  Biso   1.000  N
  N92      1.0000 0.69531  0.07414  0.10794  Biso   1.000  N
  O181     1.0000 0.81940  0.12671  0.15084  Biso   1.000  O
  O182     1.0000 0.81055  0.10118  0.10741  Biso   1.000  O
  O183     1.0000 0.70515  0.09183  0.94883  Biso   1.000  O
  H1596    1.0000 0.70190  0.09740  0.93040  Biso   1.000  H
  O184     1.0000 0.70711  0.04078  0.93897  Biso   1.000  O
  H1597    1.0000 0.76670  0.13110  0.18330  Biso   1.000  H
  H1598    1.0000 0.73370  0.13430  0.16830  Biso   1.000  H
  C1374    1.0000 0.76050  0.17240  0.16040  Biso   1.000  C
  C1375    1.0000 0.77120  0.19440  0.17990  Biso   1.000  C
  H1599    1.0000 0.77750  0.19050  0.20040  Biso   1.000  H
  C1376    1.0000 0.77170  0.22600  0.16480  Biso   1.000  C
  H1600    1.0000 0.77860  0.24420  0.17480  Biso   1.000  H
  C1377    1.0000 0.76110  0.22540  0.13530  Biso   1.000  C
  H1601    1.0000 0.75950  0.24280  0.12230  Biso   1.000  H
  S92      1.0000 0.75103  0.18822  0.12477  Biso   1.000  S
  H1602    1.0000 0.64740  0.04200  0.08910  Biso   1.000  H
  H1603    1.0000 0.62780  0.07130  0.08010  Biso   1.000  H
  C1378    1.0000 0.61530  0.05140  0.12330  Biso   1.000  C
  H1604    1.0000 0.60840  0.06980  0.13480  Biso   1.000  H
  H1605    1.0000 0.62550  0.03730  0.13790  Biso   1.000  H
  C1379    1.0000 0.58660  0.03480  0.10770  Biso   1.000  C
  H1606    1.0000 0.57660  0.04910  0.09300  Biso   1.000  H
  H1607    1.0000 0.59370  0.01660  0.09600  Biso   1.000  H
  C1380    1.0000 0.56270  0.02450  0.13260  Biso   1.000  C
  H1608    1.0000 0.54520  0.01430  0.12260  Biso   1.000  H
  H1609    1.0000 0.57250  0.01010  0.14700  Biso   1.000  H
  H1610    1.0000 0.55530  0.04260  0.14390  Biso   1.000  H
  C1381    1.0000 0.80009  0.88520  0.36829  Biso   1.000  C
  C1382    1.0000 0.76579  0.88285  0.36206  Biso   1.000  C
  C1383    1.0000 0.75572  0.86230  0.33527  Biso   1.000  C
  H1611    1.0000 0.76970  0.86510  0.31780  Biso   1.000  H
  H1612    1.0000 0.73490  0.86810  0.32880  Biso   1.000  H
  C1384    1.0000 0.75620  0.82828  0.34560  Biso   1.000  C
  C1385    1.0000 0.75070  0.81650  0.37410  Biso   1.000  C
  H1613    1.0000 0.74570  0.82880  0.39150  Biso   1.000  H
  C1386    1.0000 0.75330  0.78170  0.37500  Biso   1.000  C
  H1614    1.0000 0.75020  0.76960  0.39290  Biso   1.000  H
  C1387    1.0000 0.76070  0.76980  0.34720  Biso   1.000  C
  H1615    1.0000 0.76350  0.74850  0.34330  Biso   1.000  H
  S93      1.0000 0.76460  0.79877  0.31945  Biso   1.000  S
  C1388    1.0000 0.74652  0.89993  0.38018  Biso   1.000  C
  H1616    1.0000 0.75620  0.91320  0.39460  Biso   1.000  H
  C1389    1.0000 0.71264  0.90031  0.38016  Biso   1.000  C
  C1390    1.0000 0.69055  0.87788  0.37371  Biso   1.000  C
  H1617    1.0000 0.69490  0.85810  0.36550  Biso   1.000  H
  C1391    1.0000 0.66460  0.91799  0.39246  Biso   1.000  C
  C1392    1.0000 0.70830  0.95376  0.40760  Biso   1.000  C
  C1393    1.0000 0.70929  0.94896  0.44283  Biso   1.000  C
  C1394    1.0000 0.70889  0.91913  0.45626  Biso   1.000  C
  H1618    1.0000 0.70880  0.90150  0.44330  Biso   1.000  H
  C1395    1.0000 0.70861  0.91539  0.48830  Biso   1.000  C
  H1619    1.0000 0.70830  0.89530  0.49690  Biso   1.000  H
  C1396    1.0000 0.70883  0.94128  0.50784  Biso   1.000  C
  C1397    1.0000 0.71012  0.97101  0.49464  Biso   1.000  C
  H1620    1.0000 0.71110  0.98860  0.50760  Biso   1.000  H
  C1398    1.0000 0.70996  0.97471  0.46268  Biso   1.000  C
  H1621    1.0000 0.71030  0.99480  0.45420  Biso   1.000  H
  C1399    1.0000 0.70684  0.93735  0.54225  Biso   1.000  C
  C1400    1.0000 0.63852  0.93888  0.40282  Biso   1.000  C
  H1622    1.0000 0.64520  0.95070  0.42090  Biso   1.000  H
  H1623    1.0000 0.62090  0.92620  0.40890  Biso   1.000  H
  C1401    1.0000 0.62900  0.96200  0.37630  Biso   1.000  C
  H1624    1.0000 0.62270  0.95040  0.35770  Biso   1.000  H
  H1625    1.0000 0.64670  0.97530  0.37080  Biso   1.000  H
  C1402    1.0000 0.60130  0.98240  0.38830  Biso   1.000  C
  H1626    1.0000 0.60640  0.99070  0.40890  Biso   1.000  H
  H1627    1.0000 0.59830  0.00010  0.37420  Biso   1.000  H
  C1403    1.0000 0.57060  0.96360  0.39030  Biso   1.000  C
  H1628    1.0000 0.55400  0.97690  0.39770  Biso   1.000  H
  H1629    1.0000 0.56530  0.95570  0.36980  Biso   1.000  H
  H1630    1.0000 0.57330  0.94630  0.40450  Biso   1.000  H
  N93      1.0000 0.66090  0.88881  0.38112  Biso   1.000  N
  N94      1.0000 0.69531  0.92586  0.39206  Biso   1.000  N
  O185     1.0000 0.81940  0.87329  0.34916  Biso   1.000  O
  O186     1.0000 0.81055  0.89882  0.39259  Biso   1.000  O
  O187     1.0000 0.70515  0.90817  0.55117  Biso   1.000  O
  H1631    1.0000 0.70190  0.90260  0.56960  Biso   1.000  H
  O188     1.0000 0.70711  0.95922  0.56103  Biso   1.000  O
  H1632    1.0000 0.76670  0.86890  0.31670  Biso   1.000  H
  H1633    1.0000 0.73370  0.86570  0.33170  Biso   1.000  H
  C1404    1.0000 0.76050  0.82760  0.33960  Biso   1.000  C
  C1405    1.0000 0.77120  0.80560  0.32010  Biso   1.000  C
  H1634    1.0000 0.77750  0.80950  0.29960  Biso   1.000  H
  C1406    1.0000 0.77170  0.77400  0.33520  Biso   1.000  C
  H1635    1.0000 0.77860  0.75580  0.32520  Biso   1.000  H
  C1407    1.0000 0.76110  0.77460  0.36470  Biso   1.000  C
  H1636    1.0000 0.75950  0.75720  0.37770  Biso   1.000  H
  S94      1.0000 0.75103  0.81178  0.37523  Biso   1.000  S
  H1637    1.0000 0.64740  0.95800  0.41090  Biso   1.000  H
  H1638    1.0000 0.62780  0.92870  0.41990  Biso   1.000  H
  C1408    1.0000 0.61530  0.94860  0.37670  Biso   1.000  C
  H1639    1.0000 0.60840  0.93020  0.36520  Biso   1.000  H
  H1640    1.0000 0.62550  0.96270  0.36210  Biso   1.000  H
  C1409    1.0000 0.58660  0.96520  0.39230  Biso   1.000  C
  H1641    1.0000 0.57660  0.95090  0.40700  Biso   1.000  H
  H1642    1.0000 0.59370  0.98340  0.40400  Biso   1.000  H
  C1410    1.0000 0.56270  0.97550  0.36740  Biso   1.000  C
  H1643    1.0000 0.54520  0.98570  0.37740  Biso   1.000  H
  H1644    1.0000 0.57250  0.98990  0.35300  Biso   1.000  H
  H1645    1.0000 0.55530  0.95740  0.35610  Biso   1.000  H
  C1411    1.0000 0.30009  0.38520  0.86829  Biso   1.000  C
  C1412    1.0000 0.26579  0.38285  0.86206  Biso   1.000  C
  C1413    1.0000 0.25572  0.36230  0.83527  Biso   1.000  C
  H1646    1.0000 0.26970  0.36510  0.81780  Biso   1.000  H
  H1647    1.0000 0.23490  0.36810  0.82880  Biso   1.000  H
  C1414    1.0000 0.25620  0.32828  0.84560  Biso   1.000  C
  C1415    1.0000 0.25070  0.31650  0.87410  Biso   1.000  C
  H1648    1.0000 0.24570  0.32880  0.89150  Biso   1.000  H
  C1416    1.0000 0.25330  0.28170  0.87500  Biso   1.000  C
  H1649    1.0000 0.25020  0.26960  0.89290  Biso   1.000  H
  C1417    1.0000 0.26070  0.26980  0.84720  Biso   1.000  C
  H1650    1.0000 0.26350  0.24850  0.84330  Biso   1.000  H
  S95      1.0000 0.26460  0.29877  0.81945  Biso   1.000  S
  C1418    1.0000 0.24652  0.39993  0.88018  Biso   1.000  C
  H1651    1.0000 0.25620  0.41320  0.89460  Biso   1.000  H
  C1419    1.0000 0.21264  0.40031  0.88016  Biso   1.000  C
  C1420    1.0000 0.19055  0.37788  0.87371  Biso   1.000  C
  H1652    1.0000 0.19490  0.35810  0.86550  Biso   1.000  H
  C1421    1.0000 0.16460  0.41799  0.89246  Biso   1.000  C
  C1422    1.0000 0.20830  0.45376  0.90760  Biso   1.000  C
  C1423    1.0000 0.20929  0.44896  0.94283  Biso   1.000  C
  C1424    1.0000 0.20889  0.41913  0.95626  Biso   1.000  C
  H1653    1.0000 0.20880  0.40150  0.94330  Biso   1.000  H
  C1425    1.0000 0.20861  0.41539  0.98830  Biso   1.000  C
  H1654    1.0000 0.20830  0.39530  0.99690  Biso   1.000  H
  C1426    1.0000 0.20883  0.44128  0.00784  Biso   1.000  C
  C1427    1.0000 0.21012  0.47101  0.99464  Biso   1.000  C
  H1655    1.0000 0.21110  0.48860  0.00760  Biso   1.000  H
  C1428    1.0000 0.20996  0.47471  0.96268  Biso   1.000  C
  H1656    1.0000 0.21030  0.49480  0.95420  Biso   1.000  H
  C1429    1.0000 0.20684  0.43735  0.04225  Biso   1.000  C
  C1430    1.0000 0.13852  0.43888  0.90282  Biso   1.000  C
  H1657    1.0000 0.14520  0.45070  0.92090  Biso   1.000  H
  H1658    1.0000 0.12090  0.42620  0.90890  Biso   1.000  H
  C1431    1.0000 0.12900  0.46200  0.87630  Biso   1.000  C
  H1659    1.0000 0.12270  0.45040  0.85770  Biso   1.000  H
  H1660    1.0000 0.14670  0.47530  0.87080  Biso   1.000  H
  C1432    1.0000 0.10130  0.48240  0.88830  Biso   1.000  C
  H1661    1.0000 0.10640  0.49070  0.90890  Biso   1.000  H
  H1662    1.0000 0.09830  0.50010  0.87420  Biso   1.000  H
  C1433    1.0000 0.07060  0.46360  0.89030  Biso   1.000  C
  H1663    1.0000 0.05400  0.47690  0.89770  Biso   1.000  H
  H1664    1.0000 0.06530  0.45570  0.86980  Biso   1.000  H
  H1665    1.0000 0.07330  0.44630  0.90450  Biso   1.000  H
  N95      1.0000 0.16090  0.38881  0.88112  Biso   1.000  N
  N96      1.0000 0.19531  0.42586  0.89206  Biso   1.000  N
  O189     1.0000 0.31940  0.37329  0.84916  Biso   1.000  O
  O190     1.0000 0.31055  0.39882  0.89259  Biso   1.000  O
  O191     1.0000 0.20515  0.40817  0.05117  Biso   1.000  O
  H1666    1.0000 0.20190  0.40260  0.06960  Biso   1.000  H
  O192     1.0000 0.20711  0.45922  0.06103  Biso   1.000  O
  H1667    1.0000 0.26670  0.36890  0.81670  Biso   1.000  H
  H1668    1.0000 0.23370  0.36570  0.83170  Biso   1.000  H
  C1434    1.0000 0.26050  0.32760  0.83960  Biso   1.000  C
  C1435    1.0000 0.27120  0.30560  0.82010  Biso   1.000  C
  H1669    1.0000 0.27750  0.30950  0.79960  Biso   1.000  H
  C1436    1.0000 0.27170  0.27400  0.83520  Biso   1.000  C
  H1670    1.0000 0.27860  0.25580  0.82520  Biso   1.000  H
  C1437    1.0000 0.26110  0.27460  0.86470  Biso   1.000  C
  H1671    1.0000 0.25950  0.25720  0.87770  Biso   1.000  H
  S96      1.0000 0.25103  0.31178  0.87523  Biso   1.000  S
  H1672    1.0000 0.14740  0.45800  0.91090  Biso   1.000  H
  H1673    1.0000 0.12780  0.42870  0.91990  Biso   1.000  H
  C1438    1.0000 0.11530  0.44860  0.87670  Biso   1.000  C
  H1674    1.0000 0.10840  0.43020  0.86520  Biso   1.000  H
  H1675    1.0000 0.12550  0.46270  0.86210  Biso   1.000  H
  C1439    1.0000 0.08660  0.46520  0.89230  Biso   1.000  C
  H1676    1.0000 0.07660  0.45090  0.90700  Biso   1.000  H
  H1677    1.0000 0.09370  0.48340  0.90400  Biso   1.000  H
  C1440    1.0000 0.06270  0.47550  0.86740  Biso   1.000  C
  H1678    1.0000 0.04520  0.48570  0.87740  Biso   1.000  H
  H1679    1.0000 0.07250  0.48990  0.85300  Biso   1.000  H
  H1680    1.0000 0.05530  0.45740  0.85610  Biso   1.000  H
  C1441    1.0000 0.61829  0.13520  0.05009  Biso   1.000  C
  C1442    1.0000 0.61206  0.13285  0.01579  Biso   1.000  C
  C1443    1.0000 0.58527  0.11230  0.00572  Biso   1.000  C
  H1681    1.0000 0.56780  0.11510  0.01970  Biso   1.000  H
  H1682    1.0000 0.57880  0.11810  0.98490  Biso   1.000  H
  C1444    1.0000 0.59560  0.07828  0.00620  Biso   1.000  C
  C1445    1.0000 0.62410  0.06650  0.00070  Biso   1.000  C
  H1683    1.0000 0.64150  0.07880  0.99570  Biso   1.000  H
  C1446    1.0000 0.62500  0.03170  0.00330  Biso   1.000  C
  H1684    1.0000 0.64290  0.01960  0.00020  Biso   1.000  H
  C1447    1.0000 0.59720  0.01980  0.01070  Biso   1.000  C
  H1685    1.0000 0.59330  0.99850  0.01350  Biso   1.000  H
  S97      1.0000 0.56945  0.04877  0.01460  Biso   1.000  S
  C1448    1.0000 0.63018  0.14993  0.99652  Biso   1.000  C
  H1686    1.0000 0.64460  0.16320  0.00620  Biso   1.000  H
  C1449    1.0000 0.63016  0.15031  0.96264  Biso   1.000  C
  C1450    1.0000 0.62371  0.12788  0.94055  Biso   1.000  C
  H1687    1.0000 0.61550  0.10810  0.94490  Biso   1.000  H
  C1451    1.0000 0.64246  0.16799  0.91460  Biso   1.000  C
  C1452    1.0000 0.65760  0.20376  0.95830  Biso   1.000  C
  C1453    1.0000 0.69283  0.19896  0.95929  Biso   1.000  C
  C1454    1.0000 0.70626  0.16913  0.95889  Biso   1.000  C
  H1688    1.0000 0.69330  0.15150  0.95880  Biso   1.000  H
  C1455    1.0000 0.73830  0.16539  0.95861  Biso   1.000  C
  H1689    1.0000 0.74690  0.14530  0.95830  Biso   1.000  H
  C1456    1.0000 0.75784  0.19128  0.95883  Biso   1.000  C
  C1457    1.0000 0.74464  0.22101  0.96012  Biso   1.000  C
  H1690    1.0000 0.75760  0.23860  0.96110  Biso   1.000  H
  C1458    1.0000 0.71268  0.22471  0.95996  Biso   1.000  C
  H1691    1.0000 0.70420  0.24480  0.96030  Biso   1.000  H
  C1459    1.0000 0.79225  0.18735  0.95684  Biso   1.000  C
  C1460    1.0000 0.65282  0.18888  0.88852  Biso   1.000  C
  H1692    1.0000 0.67090  0.20070  0.89520  Biso   1.000  H
  H1693    1.0000 0.65890  0.17620  0.87090  Biso   1.000  H
  C1461    1.0000 0.62630  0.21200  0.87900  Biso   1.000  C
  H1694    1.0000 0.60770  0.20040  0.87270  Biso   1.000  H
  H1695    1.0000 0.62080  0.22530  0.89670  Biso   1.000  H
  C1462    1.0000 0.63830  0.23240  0.85130  Biso   1.000  C
  H1696    1.0000 0.65890  0.24070  0.85640  Biso   1.000  H
  H1697    1.0000 0.62420  0.25010  0.84830  Biso   1.000  H
  C1463    1.0000 0.64030  0.21360  0.82060  Biso   1.000  C
  H1698    1.0000 0.64770  0.22690  0.80400  Biso   1.000  H
  H1699    1.0000 0.61980  0.20570  0.81530  Biso   1.000  H
  H1700    1.0000 0.65450  0.19630  0.82330  Biso   1.000  H
  N97      1.0000 0.63112  0.13881  0.91090  Biso   1.000  N
  N98      1.0000 0.64206  0.17586  0.94531  Biso   1.000  N
  O193     1.0000 0.59916  0.12329  0.06940  Biso   1.000  O
  O194     1.0000 0.64259  0.14882  0.06055  Biso   1.000  O
  O195     1.0000 0.80117  0.15817  0.95515  Biso   1.000  O
  H1701    1.0000 0.81960  0.15260  0.95190  Biso   1.000  H
  O196     1.0000 0.81103  0.20922  0.95711  Biso   1.000  O
  H1702    1.0000 0.56670  0.11890  0.01670  Biso   1.000  H
  H1703    1.0000 0.58170  0.11570  0.98370  Biso   1.000  H
  C1464    1.0000 0.58960  0.07760  0.01050  Biso   1.000  C
  C1465    1.0000 0.57010  0.05560  0.02120  Biso   1.000  C
  H1704    1.0000 0.54960  0.05950  0.02750  Biso   1.000  H
  C1466    1.0000 0.58520  0.02400  0.02170  Biso   1.000  C
  H1705    1.0000 0.57520  0.00580  0.02860  Biso   1.000  H
  C1467    1.0000 0.61470  0.02460  0.01110  Biso   1.000  C
  H1706    1.0000 0.62770  0.00720  0.00950  Biso   1.000  H
  S98      1.0000 0.62523  0.06178  0.00103  Biso   1.000  S
  H1707    1.0000 0.66090  0.20800  0.89740  Biso   1.000  H
  H1708    1.0000 0.66990  0.17870  0.87780  Biso   1.000  H
  C1468    1.0000 0.62670  0.19860  0.86530  Biso   1.000  C
  H1709    1.0000 0.61520  0.18020  0.85840  Biso   1.000  H
  H1710    1.0000 0.61210  0.21270  0.87550  Biso   1.000  H
  C1469    1.0000 0.64230  0.21520  0.83660  Biso   1.000  C
  H1711    1.0000 0.65700  0.20090  0.82660  Biso   1.000  H
  H1712    1.0000 0.65400  0.23340  0.84370  Biso   1.000  H
  C1470    1.0000 0.61740  0.22550  0.81270  Biso   1.000  C
  H1713    1.0000 0.62740  0.23570  0.79520  Biso   1.000  H
  H1714    1.0000 0.60300  0.23990  0.82250  Biso   1.000  H
  H1715    1.0000 0.60610  0.20740  0.80530  Biso   1.000  H
  C1471    1.0000 0.11829  0.63520  0.55009  Biso   1.000  C
  C1472    1.0000 0.11206  0.63285  0.51579  Biso   1.000  C
  C1473    1.0000 0.08527  0.61230  0.50572  Biso   1.000  C
  H1716    1.0000 0.06780  0.61510  0.51970  Biso   1.000  H
  H1717    1.0000 0.07880  0.61810  0.48490  Biso   1.000  H
  C1474    1.0000 0.09560  0.57828  0.50620  Biso   1.000  C
  C1475    1.0000 0.12410  0.56650  0.50070  Biso   1.000  C
  H1718    1.0000 0.14150  0.57880  0.49570  Biso   1.000  H
  C1476    1.0000 0.12500  0.53170  0.50330  Biso   1.000  C
  H1719    1.0000 0.14290  0.51960  0.50020  Biso   1.000  H
  C1477    1.0000 0.09720  0.51980  0.51070  Biso   1.000  C
  H1720    1.0000 0.09330  0.49850  0.51350  Biso   1.000  H
  S99      1.0000 0.06945  0.54877  0.51460  Biso   1.000  S
  C1478    1.0000 0.13018  0.64993  0.49652  Biso   1.000  C
  H1721    1.0000 0.14460  0.66320  0.50620  Biso   1.000  H
  C1479    1.0000 0.13016  0.65031  0.46264  Biso   1.000  C
  C1480    1.0000 0.12371  0.62788  0.44055  Biso   1.000  C
  H1722    1.0000 0.11550  0.60810  0.44490  Biso   1.000  H
  C1481    1.0000 0.14246  0.66799  0.41460  Biso   1.000  C
  C1482    1.0000 0.15760  0.70376  0.45830  Biso   1.000  C
  C1483    1.0000 0.19283  0.69896  0.45929  Biso   1.000  C
  C1484    1.0000 0.20626  0.66913  0.45889  Biso   1.000  C
  H1723    1.0000 0.19330  0.65150  0.45880  Biso   1.000  H
  C1485    1.0000 0.23830  0.66539  0.45861  Biso   1.000  C
  H1724    1.0000 0.24690  0.64530  0.45830  Biso   1.000  H
  C1486    1.0000 0.25784  0.69128  0.45883  Biso   1.000  C
  C1487    1.0000 0.24464  0.72101  0.46012  Biso   1.000  C
  H1725    1.0000 0.25760  0.73860  0.46110  Biso   1.000  H
  C1488    1.0000 0.21268  0.72471  0.45996  Biso   1.000  C
  H1726    1.0000 0.20420  0.74480  0.46030  Biso   1.000  H
  C1489    1.0000 0.29225  0.68735  0.45684  Biso   1.000  C
  C1490    1.0000 0.15282  0.68888  0.38852  Biso   1.000  C
  H1727    1.0000 0.17090  0.70070  0.39520  Biso   1.000  H
  H1728    1.0000 0.15890  0.67620  0.37090  Biso   1.000  H
  C1491    1.0000 0.12630  0.71200  0.37900  Biso   1.000  C
  H1729    1.0000 0.10770  0.70040  0.37270  Biso   1.000  H
  H1730    1.0000 0.12080  0.72530  0.39670  Biso   1.000  H
  C1492    1.0000 0.13830  0.73240  0.35130  Biso   1.000  C
  H1731    1.0000 0.15890  0.74070  0.35640  Biso   1.000  H
  H1732    1.0000 0.12420  0.75010  0.34830  Biso   1.000  H
  C1493    1.0000 0.14030  0.71360  0.32060  Biso   1.000  C
  H1733    1.0000 0.14770  0.72690  0.30400  Biso   1.000  H
  H1734    1.0000 0.11980  0.70570  0.31530  Biso   1.000  H
  H1735    1.0000 0.15450  0.69630  0.32330  Biso   1.000  H
  N99      1.0000 0.13112  0.63881  0.41090  Biso   1.000  N
  N100     1.0000 0.14206  0.67586  0.44531  Biso   1.000  N
  O197     1.0000 0.09916  0.62329  0.56940  Biso   1.000  O
  O198     1.0000 0.14259  0.64882  0.56055  Biso   1.000  O
  O199     1.0000 0.30117  0.65817  0.45515  Biso   1.000  O
  H1736    1.0000 0.31960  0.65260  0.45190  Biso   1.000  H
  O200     1.0000 0.31103  0.70922  0.45711  Biso   1.000  O
  H1737    1.0000 0.06670  0.61890  0.51670  Biso   1.000  H
  H1738    1.0000 0.08170  0.61570  0.48370  Biso   1.000  H
  C1494    1.0000 0.08960  0.57760  0.51050  Biso   1.000  C
  C1495    1.0000 0.07010  0.55560  0.52120  Biso   1.000  C
  H1739    1.0000 0.04960  0.55950  0.52750  Biso   1.000  H
  C1496    1.0000 0.08520  0.52400  0.52170  Biso   1.000  C
  H1740    1.0000 0.07520  0.50580  0.52860  Biso   1.000  H
  C1497    1.0000 0.11470  0.52460  0.51110  Biso   1.000  C
  H1741    1.0000 0.12770  0.50720  0.50950  Biso   1.000  H
  S100     1.0000 0.12523  0.56178  0.50103  Biso   1.000  S
  H1742    1.0000 0.16090  0.70800  0.39740  Biso   1.000  H
  H1743    1.0000 0.16990  0.67870  0.37780  Biso   1.000  H
  C1498    1.0000 0.12670  0.69860  0.36530  Biso   1.000  C
  H1744    1.0000 0.11520  0.68020  0.35840  Biso   1.000  H
  H1745    1.0000 0.11210  0.71270  0.37550  Biso   1.000  H
  C1499    1.0000 0.14230  0.71520  0.33660  Biso   1.000  C
  H1746    1.0000 0.15700  0.70090  0.32660  Biso   1.000  H
  H1747    1.0000 0.15400  0.73340  0.34370  Biso   1.000  H
  C1500    1.0000 0.11740  0.72550  0.31270  Biso   1.000  C
  H1748    1.0000 0.12740  0.73570  0.29520  Biso   1.000  H
  H1749    1.0000 0.10300  0.73990  0.32250  Biso   1.000  H
  H1750    1.0000 0.10610  0.70740  0.30530  Biso   1.000  H
  C1501    1.0000 0.88171  0.86480  0.55009  Biso   1.000  C
  C1502    1.0000 0.88794  0.86715  0.51579  Biso   1.000  C
  C1503    1.0000 0.91473  0.88770  0.50572  Biso   1.000  C
  H1751    1.0000 0.93220  0.88490  0.51970  Biso   1.000  H
  H1752    1.0000 0.92120  0.88190  0.48490  Biso   1.000  H
  C1504    1.0000 0.90440  0.92172  0.50620  Biso   1.000  C
  C1505    1.0000 0.87590  0.93350  0.50070  Biso   1.000  C
  H1753    1.0000 0.85850  0.92120  0.49570  Biso   1.000  H
  C1506    1.0000 0.87500  0.96830  0.50330  Biso   1.000  C
  H1754    1.0000 0.85710  0.98040  0.50020  Biso   1.000  H
  C1507    1.0000 0.90280  0.98020  0.51070  Biso   1.000  C
  H1755    1.0000 0.90670  0.00150  0.51350  Biso   1.000  H
  S101     1.0000 0.93055  0.95123  0.51460  Biso   1.000  S
  C1508    1.0000 0.86982  0.85007  0.49652  Biso   1.000  C
  H1756    1.0000 0.85540  0.83680  0.50620  Biso   1.000  H
  C1509    1.0000 0.86984  0.84969  0.46264  Biso   1.000  C
  C1510    1.0000 0.87629  0.87212  0.44055  Biso   1.000  C
  H1757    1.0000 0.88450  0.89190  0.44490  Biso   1.000  H
  C1511    1.0000 0.85754  0.83201  0.41460  Biso   1.000  C
  C1512    1.0000 0.84240  0.79624  0.45830  Biso   1.000  C
  C1513    1.0000 0.80717  0.80104  0.45929  Biso   1.000  C
  C1514    1.0000 0.79374  0.83087  0.45889  Biso   1.000  C
  H1758    1.0000 0.80670  0.84850  0.45880  Biso   1.000  H
  C1515    1.0000 0.76170  0.83461  0.45861  Biso   1.000  C
  H1759    1.0000 0.75310  0.85470  0.45830  Biso   1.000  H
  C1516    1.0000 0.74216  0.80872  0.45883  Biso   1.000  C
  C1517    1.0000 0.75536  0.77899  0.46012  Biso   1.000  C
  H1760    1.0000 0.74240  0.76140  0.46110  Biso   1.000  H
  C1518    1.0000 0.78732  0.77529  0.45996  Biso   1.000  C
  H1761    1.0000 0.79580  0.75520  0.46030  Biso   1.000  H
  C1519    1.0000 0.70775  0.81265  0.45684  Biso   1.000  C
  C1520    1.0000 0.84718  0.81112  0.38852  Biso   1.000  C
  H1762    1.0000 0.82910  0.79930  0.39520  Biso   1.000  H
  H1763    1.0000 0.84110  0.82380  0.37090  Biso   1.000  H
  C1521    1.0000 0.87370  0.78800  0.37900  Biso   1.000  C
  H1764    1.0000 0.89230  0.79960  0.37270  Biso   1.000  H
  H1765    1.0000 0.87920  0.77470  0.39670  Biso   1.000  H
  C1522    1.0000 0.86170  0.76760  0.35130  Biso   1.000  C
  H1766    1.0000 0.84110  0.75930  0.35640  Biso   1.000  H
  H1767    1.0000 0.87580  0.74990  0.34830  Biso   1.000  H
  C1523    1.0000 0.85970  0.78640  0.32060  Biso   1.000  C
  H1768    1.0000 0.85230  0.77310  0.30400  Biso   1.000  H
  H1769    1.0000 0.88020  0.79430  0.31530  Biso   1.000  H
  H1770    1.0000 0.84550  0.80370  0.32330  Biso   1.000  H
  N101     1.0000 0.86888  0.86119  0.41090  Biso   1.000  N
  N102     1.0000 0.85794  0.82414  0.44531  Biso   1.000  N
  O201     1.0000 0.90084  0.87671  0.56940  Biso   1.000  O
  O202     1.0000 0.85741  0.85118  0.56055  Biso   1.000  O
  O203     1.0000 0.69883  0.84183  0.45515  Biso   1.000  O
  H1771    1.0000 0.68040  0.84740  0.45190  Biso   1.000  H
  O204     1.0000 0.68897  0.79078  0.45711  Biso   1.000  O
  H1772    1.0000 0.93330  0.88110  0.51670  Biso   1.000  H
  H1773    1.0000 0.91830  0.88430  0.48370  Biso   1.000  H
  C1524    1.0000 0.91040  0.92240  0.51050  Biso   1.000  C
  C1525    1.0000 0.92990  0.94440  0.52120  Biso   1.000  C
  H1774    1.0000 0.95040  0.94050  0.52750  Biso   1.000  H
  C1526    1.0000 0.91480  0.97600  0.52170  Biso   1.000  C
  H1775    1.0000 0.92480  0.99420  0.52860  Biso   1.000  H
  C1527    1.0000 0.88530  0.97540  0.51110  Biso   1.000  C
  H1776    1.0000 0.87230  0.99280  0.50950  Biso   1.000  H
  S102     1.0000 0.87477  0.93822  0.50103  Biso   1.000  S
  H1777    1.0000 0.83910  0.79200  0.39740  Biso   1.000  H
  H1778    1.0000 0.83010  0.82130  0.37780  Biso   1.000  H
  C1528    1.0000 0.87330  0.80140  0.36530  Biso   1.000  C
  H1779    1.0000 0.88480  0.81980  0.35840  Biso   1.000  H
  H1780    1.0000 0.88790  0.78730  0.37550  Biso   1.000  H
  C1529    1.0000 0.85770  0.78480  0.33660  Biso   1.000  C
  H1781    1.0000 0.84300  0.79910  0.32660  Biso   1.000  H
  H1782    1.0000 0.84600  0.76660  0.34370  Biso   1.000  H
  C1530    1.0000 0.88260  0.77450  0.31270  Biso   1.000  C
  H1783    1.0000 0.87260  0.76430  0.29520  Biso   1.000  H
  H1784    1.0000 0.89700  0.76010  0.32250  Biso   1.000  H
  H1785    1.0000 0.89390  0.79260  0.30530  Biso   1.000  H
  C1531    1.0000 0.38171  0.36480  0.05009  Biso   1.000  C
  C1532    1.0000 0.38794  0.36715  0.01579  Biso   1.000  C
  C1533    1.0000 0.41473  0.38770  0.00572  Biso   1.000  C
  H1786    1.0000 0.43220  0.38490  0.01970  Biso   1.000  H
  H1787    1.0000 0.42120  0.38190  0.98490  Biso   1.000  H
  C1534    1.0000 0.40440  0.42172  0.00620  Biso   1.000  C
  C1535    1.0000 0.37590  0.43350  0.00070  Biso   1.000  C
  H1788    1.0000 0.35850  0.42120  0.99570  Biso   1.000  H
  C1536    1.0000 0.37500  0.46830  0.00330  Biso   1.000  C
  H1789    1.0000 0.35710  0.48040  0.00020  Biso   1.000  H
  C1537    1.0000 0.40280  0.48020  0.01070  Biso   1.000  C
  H1790    1.0000 0.40670  0.50150  0.01350  Biso   1.000  H
  S103     1.0000 0.43055  0.45123  0.01460  Biso   1.000  S
  C1538    1.0000 0.36982  0.35007  0.99652  Biso   1.000  C
  H1791    1.0000 0.35540  0.33680  0.00620  Biso   1.000  H
  C1539    1.0000 0.36984  0.34969  0.96264  Biso   1.000  C
  C1540    1.0000 0.37629  0.37212  0.94055  Biso   1.000  C
  H1792    1.0000 0.38450  0.39190  0.94490  Biso   1.000  H
  C1541    1.0000 0.35754  0.33201  0.91460  Biso   1.000  C
  C1542    1.0000 0.34240  0.29624  0.95830  Biso   1.000  C
  C1543    1.0000 0.30717  0.30104  0.95929  Biso   1.000  C
  C1544    1.0000 0.29374  0.33087  0.95889  Biso   1.000  C
  H1793    1.0000 0.30670  0.34850  0.95880  Biso   1.000  H
  C1545    1.0000 0.26170  0.33461  0.95861  Biso   1.000  C
  H1794    1.0000 0.25310  0.35470  0.95830  Biso   1.000  H
  C1546    1.0000 0.24216  0.30872  0.95883  Biso   1.000  C
  C1547    1.0000 0.25536  0.27899  0.96012  Biso   1.000  C
  H1795    1.0000 0.24240  0.26140  0.96110  Biso   1.000  H
  C1548    1.0000 0.28732  0.27529  0.95996  Biso   1.000  C
  H1796    1.0000 0.29580  0.25520  0.96030  Biso   1.000  H
  C1549    1.0000 0.20775  0.31265  0.95684  Biso   1.000  C
  C1550    1.0000 0.34718  0.31112  0.88852  Biso   1.000  C
  H1797    1.0000 0.32910  0.29930  0.89520  Biso   1.000  H
  H1798    1.0000 0.34110  0.32380  0.87090  Biso   1.000  H
  C1551    1.0000 0.37370  0.28800  0.87900  Biso   1.000  C
  H1799    1.0000 0.39230  0.29960  0.87270  Biso   1.000  H
  H1800    1.0000 0.37920  0.27470  0.89670  Biso   1.000  H
  C1552    1.0000 0.36170  0.26760  0.85130  Biso   1.000  C
  H1801    1.0000 0.34110  0.25930  0.85640  Biso   1.000  H
  H1802    1.0000 0.37580  0.24990  0.84830  Biso   1.000  H
  C1553    1.0000 0.35970  0.28640  0.82060  Biso   1.000  C
  H1803    1.0000 0.35230  0.27310  0.80400  Biso   1.000  H
  H1804    1.0000 0.38020  0.29430  0.81530  Biso   1.000  H
  H1805    1.0000 0.34550  0.30370  0.82330  Biso   1.000  H
  N103     1.0000 0.36888  0.36119  0.91090  Biso   1.000  N
  N104     1.0000 0.35794  0.32414  0.94531  Biso   1.000  N
  O205     1.0000 0.40084  0.37671  0.06940  Biso   1.000  O
  O206     1.0000 0.35741  0.35118  0.06055  Biso   1.000  O
  O207     1.0000 0.19883  0.34183  0.95515  Biso   1.000  O
  H1806    1.0000 0.18040  0.34740  0.95190  Biso   1.000  H
  O208     1.0000 0.18897  0.29078  0.95711  Biso   1.000  O
  H1807    1.0000 0.43330  0.38110  0.01670  Biso   1.000  H
  H1808    1.0000 0.41830  0.38430  0.98370  Biso   1.000  H
  C1554    1.0000 0.41040  0.42240  0.01050  Biso   1.000  C
  C1555    1.0000 0.42990  0.44440  0.02120  Biso   1.000  C
  H1809    1.0000 0.45040  0.44050  0.02750  Biso   1.000  H
  C1556    1.0000 0.41480  0.47600  0.02170  Biso   1.000  C
  H1810    1.0000 0.42480  0.49420  0.02860  Biso   1.000  H
  C1557    1.0000 0.38530  0.47540  0.01110  Biso   1.000  C
  H1811    1.0000 0.37230  0.49280  0.00950  Biso   1.000  H
  S104     1.0000 0.37477  0.43822  0.00103  Biso   1.000  S
  H1812    1.0000 0.33910  0.29200  0.89740  Biso   1.000  H
  H1813    1.0000 0.33010  0.32130  0.87780  Biso   1.000  H
  C1558    1.0000 0.37330  0.30140  0.86530  Biso   1.000  C
  H1814    1.0000 0.38480  0.31980  0.85840  Biso   1.000  H
  H1815    1.0000 0.38790  0.28730  0.87550  Biso   1.000  H
  C1559    1.0000 0.35770  0.28480  0.83660  Biso   1.000  C
  H1816    1.0000 0.34300  0.29910  0.82660  Biso   1.000  H
  H1817    1.0000 0.34600  0.26660  0.84370  Biso   1.000  H
  C1560    1.0000 0.38260  0.27450  0.81270  Biso   1.000  C
  H1818    1.0000 0.37260  0.26430  0.79520  Biso   1.000  H
  H1819    1.0000 0.39700  0.26010  0.82250  Biso   1.000  H
  H1820    1.0000 0.39390  0.29260  0.80530  Biso   1.000  H
  C1561    1.0000 0.38171  0.63520  0.44991  Biso   1.000  C
  C1562    1.0000 0.38794  0.63285  0.48421  Biso   1.000  C
  C1563    1.0000 0.41473  0.61230  0.49428  Biso   1.000  C
  H1821    1.0000 0.43220  0.61510  0.48030  Biso   1.000  H
  H1822    1.0000 0.42120  0.61810  0.51510  Biso   1.000  H
  C1564    1.0000 0.40440  0.57828  0.49380  Biso   1.000  C
  C1565    1.0000 0.37590  0.56650  0.49930  Biso   1.000  C
  H1823    1.0000 0.35850  0.57880  0.50430  Biso   1.000  H
  C1566    1.0000 0.37500  0.53170  0.49670  Biso   1.000  C
  H1824    1.0000 0.35710  0.51960  0.49980  Biso   1.000  H
  C1567    1.0000 0.40280  0.51980  0.48930  Biso   1.000  C
  H1825    1.0000 0.40670  0.49850  0.48650  Biso   1.000  H
  S105     1.0000 0.43055  0.54877  0.48540  Biso   1.000  S
  C1568    1.0000 0.36982  0.64993  0.50348  Biso   1.000  C
  H1826    1.0000 0.35540  0.66320  0.49380  Biso   1.000  H
  C1569    1.0000 0.36984  0.65031  0.53736  Biso   1.000  C
  C1570    1.0000 0.37629  0.62788  0.55945  Biso   1.000  C
  H1827    1.0000 0.38450  0.60810  0.55510  Biso   1.000  H
  C1571    1.0000 0.35754  0.66799  0.58540  Biso   1.000  C
  C1572    1.0000 0.34240  0.70376  0.54170  Biso   1.000  C
  C1573    1.0000 0.30717  0.69896  0.54071  Biso   1.000  C
  C1574    1.0000 0.29374  0.66913  0.54111  Biso   1.000  C
  H1828    1.0000 0.30670  0.65150  0.54120  Biso   1.000  H
  C1575    1.0000 0.26170  0.66539  0.54139  Biso   1.000  C
  H1829    1.0000 0.25310  0.64530  0.54170  Biso   1.000  H
  C1576    1.0000 0.24216  0.69128  0.54117  Biso   1.000  C
  C1577    1.0000 0.25536  0.72101  0.53988  Biso   1.000  C
  H1830    1.0000 0.24240  0.73860  0.53890  Biso   1.000  H
  C1578    1.0000 0.28732  0.72471  0.54004  Biso   1.000  C
  H1831    1.0000 0.29580  0.74480  0.53970  Biso   1.000  H
  C1579    1.0000 0.20775  0.68735  0.54316  Biso   1.000  C
  C1580    1.0000 0.34718  0.68888  0.61148  Biso   1.000  C
  H1832    1.0000 0.32910  0.70070  0.60480  Biso   1.000  H
  H1833    1.0000 0.34110  0.67620  0.62910  Biso   1.000  H
  C1581    1.0000 0.37370  0.71200  0.62100  Biso   1.000  C
  H1834    1.0000 0.39230  0.70040  0.62730  Biso   1.000  H
  H1835    1.0000 0.37920  0.72530  0.60330  Biso   1.000  H
  C1582    1.0000 0.36170  0.73240  0.64870  Biso   1.000  C
  H1836    1.0000 0.34110  0.74070  0.64360  Biso   1.000  H
  H1837    1.0000 0.37580  0.75010  0.65170  Biso   1.000  H
  C1583    1.0000 0.35970  0.71360  0.67940  Biso   1.000  C
  H1838    1.0000 0.35230  0.72690  0.69600  Biso   1.000  H
  H1839    1.0000 0.38020  0.70570  0.68470  Biso   1.000  H
  H1840    1.0000 0.34550  0.69630  0.67670  Biso   1.000  H
  N105     1.0000 0.36888  0.63881  0.58910  Biso   1.000  N
  N106     1.0000 0.35794  0.67586  0.55469  Biso   1.000  N
  O209     1.0000 0.40084  0.62329  0.43060  Biso   1.000  O
  O210     1.0000 0.35741  0.64882  0.43945  Biso   1.000  O
  O211     1.0000 0.19883  0.65817  0.54485  Biso   1.000  O
  H1841    1.0000 0.18040  0.65260  0.54810  Biso   1.000  H
  O212     1.0000 0.18897  0.70922  0.54289  Biso   1.000  O
  H1842    1.0000 0.43330  0.61890  0.48330  Biso   1.000  H
  H1843    1.0000 0.41830  0.61570  0.51630  Biso   1.000  H
  C1584    1.0000 0.41040  0.57760  0.48950  Biso   1.000  C
  C1585    1.0000 0.42990  0.55560  0.47880  Biso   1.000  C
  H1844    1.0000 0.45040  0.55950  0.47250  Biso   1.000  H
  C1586    1.0000 0.41480  0.52400  0.47830  Biso   1.000  C
  H1845    1.0000 0.42480  0.50580  0.47140  Biso   1.000  H
  C1587    1.0000 0.38530  0.52460  0.48890  Biso   1.000  C
  H1846    1.0000 0.37230  0.50720  0.49050  Biso   1.000  H
  S106     1.0000 0.37477  0.56178  0.49897  Biso   1.000  S
  H1847    1.0000 0.33910  0.70800  0.60260  Biso   1.000  H
  H1848    1.0000 0.33010  0.67870  0.62220  Biso   1.000  H
  C1588    1.0000 0.37330  0.69860  0.63470  Biso   1.000  C
  H1849    1.0000 0.38480  0.68020  0.64160  Biso   1.000  H
  H1850    1.0000 0.38790  0.71270  0.62450  Biso   1.000  H
  C1589    1.0000 0.35770  0.71520  0.66340  Biso   1.000  C
  H1851    1.0000 0.34300  0.70090  0.67340  Biso   1.000  H
  H1852    1.0000 0.34600  0.73340  0.65630  Biso   1.000  H
  C1590    1.0000 0.38260  0.72550  0.68730  Biso   1.000  C
  H1853    1.0000 0.37260  0.73570  0.70480  Biso   1.000  H
  H1854    1.0000 0.39700  0.73990  0.67750  Biso   1.000  H
  H1855    1.0000 0.39390  0.70740  0.69470  Biso   1.000  H
  C1591    1.0000 0.88171  0.13520  0.94991  Biso   1.000  C
  C1592    1.0000 0.88794  0.13285  0.98421  Biso   1.000  C
  C1593    1.0000 0.91473  0.11230  0.99428  Biso   1.000  C
  H1856    1.0000 0.93220  0.11510  0.98030  Biso   1.000  H
  H1857    1.0000 0.92120  0.11810  0.01510  Biso   1.000  H
  C1594    1.0000 0.90440  0.07828  0.99380  Biso   1.000  C
  C1595    1.0000 0.87590  0.06650  0.99930  Biso   1.000  C
  H1858    1.0000 0.85850  0.07880  0.00430  Biso   1.000  H
  C1596    1.0000 0.87500  0.03170  0.99670  Biso   1.000  C
  H1859    1.0000 0.85710  0.01960  0.99980  Biso   1.000  H
  C1597    1.0000 0.90280  0.01980  0.98930  Biso   1.000  C
  H1860    1.0000 0.90670  0.99850  0.98650  Biso   1.000  H
  S107     1.0000 0.93055  0.04877  0.98540  Biso   1.000  S
  C1598    1.0000 0.86982  0.14993  0.00348  Biso   1.000  C
  H1861    1.0000 0.85540  0.16320  0.99380  Biso   1.000  H
  C1599    1.0000 0.86984  0.15031  0.03736  Biso   1.000  C
  C1600    1.0000 0.87629  0.12788  0.05945  Biso   1.000  C
  H1862    1.0000 0.88450  0.10810  0.05510  Biso   1.000  H
  C1601    1.0000 0.85754  0.16799  0.08540  Biso   1.000  C
  C1602    1.0000 0.84240  0.20376  0.04170  Biso   1.000  C
  C1603    1.0000 0.80717  0.19896  0.04071  Biso   1.000  C
  C1604    1.0000 0.79374  0.16913  0.04111  Biso   1.000  C
  H1863    1.0000 0.80670  0.15150  0.04120  Biso   1.000  H
  C1605    1.0000 0.76170  0.16539  0.04139  Biso   1.000  C
  H1864    1.0000 0.75310  0.14530  0.04170  Biso   1.000  H
  C1606    1.0000 0.74216  0.19128  0.04117  Biso   1.000  C
  C1607    1.0000 0.75536  0.22101  0.03988  Biso   1.000  C
  H1865    1.0000 0.74240  0.23860  0.03890  Biso   1.000  H
  C1608    1.0000 0.78732  0.22471  0.04004  Biso   1.000  C
  H1866    1.0000 0.79580  0.24480  0.03970  Biso   1.000  H
  C1609    1.0000 0.70775  0.18735  0.04316  Biso   1.000  C
  C1610    1.0000 0.84718  0.18888  0.11148  Biso   1.000  C
  H1867    1.0000 0.82910  0.20070  0.10480  Biso   1.000  H
  H1868    1.0000 0.84110  0.17620  0.12910  Biso   1.000  H
  C1611    1.0000 0.87370  0.21200  0.12100  Biso   1.000  C
  H1869    1.0000 0.89230  0.20040  0.12730  Biso   1.000  H
  H1870    1.0000 0.87920  0.22530  0.10330  Biso   1.000  H
  C1612    1.0000 0.86170  0.23240  0.14870  Biso   1.000  C
  H1871    1.0000 0.84110  0.24070  0.14360  Biso   1.000  H
  H1872    1.0000 0.87580  0.25010  0.15170  Biso   1.000  H
  C1613    1.0000 0.85970  0.21360  0.17940  Biso   1.000  C
  H1873    1.0000 0.85230  0.22690  0.19600  Biso   1.000  H
  H1874    1.0000 0.88020  0.20570  0.18470  Biso   1.000  H
  H1875    1.0000 0.84550  0.19630  0.17670  Biso   1.000  H
  N107     1.0000 0.86888  0.13881  0.08910  Biso   1.000  N
  N108     1.0000 0.85794  0.17586  0.05469  Biso   1.000  N
  O213     1.0000 0.90084  0.12329  0.93060  Biso   1.000  O
  O214     1.0000 0.85741  0.14882  0.93945  Biso   1.000  O
  O215     1.0000 0.69883  0.15817  0.04485  Biso   1.000  O
  H1876    1.0000 0.68040  0.15260  0.04810  Biso   1.000  H
  O216     1.0000 0.68897  0.20922  0.04289  Biso   1.000  O
  H1877    1.0000 0.93330  0.11890  0.98330  Biso   1.000  H
  H1878    1.0000 0.91830  0.11570  0.01630  Biso   1.000  H
  C1614    1.0000 0.91040  0.07760  0.98950  Biso   1.000  C
  C1615    1.0000 0.92990  0.05560  0.97880  Biso   1.000  C
  H1879    1.0000 0.95040  0.05950  0.97250  Biso   1.000  H
  C1616    1.0000 0.91480  0.02400  0.97830  Biso   1.000  C
  H1880    1.0000 0.92480  0.00580  0.97140  Biso   1.000  H
  C1617    1.0000 0.88530  0.02460  0.98890  Biso   1.000  C
  H1881    1.0000 0.87230  0.00720  0.99050  Biso   1.000  H
  S108     1.0000 0.87477  0.06178  0.99897  Biso   1.000  S
  H1882    1.0000 0.83910  0.20800  0.10260  Biso   1.000  H
  H1883    1.0000 0.83010  0.17870  0.12220  Biso   1.000  H
  C1618    1.0000 0.87330  0.19860  0.13470  Biso   1.000  C
  H1884    1.0000 0.88480  0.18020  0.14160  Biso   1.000  H
  H1885    1.0000 0.88790  0.21270  0.12450  Biso   1.000  H
  C1619    1.0000 0.85770  0.21520  0.16340  Biso   1.000  C
  H1886    1.0000 0.84300  0.20090  0.17340  Biso   1.000  H
  H1887    1.0000 0.84600  0.23340  0.15630  Biso   1.000  H
  C1620    1.0000 0.88260  0.22550  0.18730  Biso   1.000  C
  H1888    1.0000 0.87260  0.23570  0.20480  Biso   1.000  H
  H1889    1.0000 0.89700  0.23990  0.17750  Biso   1.000  H
  H1890    1.0000 0.89390  0.20740  0.19470  Biso   1.000  H
  C1621    1.0000 0.11829  0.36480  0.94991  Biso   1.000  C
  C1622    1.0000 0.11206  0.36715  0.98421  Biso   1.000  C
  C1623    1.0000 0.08527  0.38770  0.99428  Biso   1.000  C
  H1891    1.0000 0.06780  0.38490  0.98030  Biso   1.000  H
  H1892    1.0000 0.07880  0.38190  0.01510  Biso   1.000  H
  C1624    1.0000 0.09560  0.42172  0.99380  Biso   1.000  C
  C1625    1.0000 0.12410  0.43350  0.99930  Biso   1.000  C
  H1893    1.0000 0.14150  0.42120  0.00430  Biso   1.000  H
  C1626    1.0000 0.12500  0.46830  0.99670  Biso   1.000  C
  H1894    1.0000 0.14290  0.48040  0.99980  Biso   1.000  H
  C1627    1.0000 0.09720  0.48020  0.98930  Biso   1.000  C
  H1895    1.0000 0.09330  0.50150  0.98650  Biso   1.000  H
  S109     1.0000 0.06945  0.45123  0.98540  Biso   1.000  S
  C1628    1.0000 0.13018  0.35007  0.00348  Biso   1.000  C
  H1896    1.0000 0.14460  0.33680  0.99380  Biso   1.000  H
  C1629    1.0000 0.13016  0.34969  0.03736  Biso   1.000  C
  C1630    1.0000 0.12371  0.37212  0.05945  Biso   1.000  C
  H1897    1.0000 0.11550  0.39190  0.05510  Biso   1.000  H
  C1631    1.0000 0.14246  0.33201  0.08540  Biso   1.000  C
  C1632    1.0000 0.15760  0.29624  0.04170  Biso   1.000  C
  C1633    1.0000 0.19283  0.30104  0.04071  Biso   1.000  C
  C1634    1.0000 0.20626  0.33087  0.04111  Biso   1.000  C
  H1898    1.0000 0.19330  0.34850  0.04120  Biso   1.000  H
  C1635    1.0000 0.23830  0.33461  0.04139  Biso   1.000  C
  H1899    1.0000 0.24690  0.35470  0.04170  Biso   1.000  H
  C1636    1.0000 0.25784  0.30872  0.04117  Biso   1.000  C
  C1637    1.0000 0.24464  0.27899  0.03988  Biso   1.000  C
  H1900    1.0000 0.25760  0.26140  0.03890  Biso   1.000  H
  C1638    1.0000 0.21268  0.27529  0.04004  Biso   1.000  C
  H1901    1.0000 0.20420  0.25520  0.03970  Biso   1.000  H
  C1639    1.0000 0.29225  0.31265  0.04316  Biso   1.000  C
  C1640    1.0000 0.15282  0.31112  0.11148  Biso   1.000  C
  H1902    1.0000 0.17090  0.29930  0.10480  Biso   1.000  H
  H1903    1.0000 0.15890  0.32380  0.12910  Biso   1.000  H
  C1641    1.0000 0.12630  0.28800  0.12100  Biso   1.000  C
  H1904    1.0000 0.10770  0.29960  0.12730  Biso   1.000  H
  H1905    1.0000 0.12080  0.27470  0.10330  Biso   1.000  H
  C1642    1.0000 0.13830  0.26760  0.14870  Biso   1.000  C
  H1906    1.0000 0.15890  0.25930  0.14360  Biso   1.000  H
  H1907    1.0000 0.12420  0.24990  0.15170  Biso   1.000  H
  C1643    1.0000 0.14030  0.28640  0.17940  Biso   1.000  C
  H1908    1.0000 0.14770  0.27310  0.19600  Biso   1.000  H
  H1909    1.0000 0.11980  0.29430  0.18470  Biso   1.000  H
  H1910    1.0000 0.15450  0.30370  0.17670  Biso   1.000  H
  N109     1.0000 0.13112  0.36119  0.08910  Biso   1.000  N
  N110     1.0000 0.14206  0.32414  0.05469  Biso   1.000  N
  O217     1.0000 0.09916  0.37671  0.93060  Biso   1.000  O
  O218     1.0000 0.14259  0.35118  0.93945  Biso   1.000  O
  O219     1.0000 0.30117  0.34183  0.04485  Biso   1.000  O
  H1911    1.0000 0.31960  0.34740  0.04810  Biso   1.000  H
  O220     1.0000 0.31103  0.29078  0.04289  Biso   1.000  O
  H1912    1.0000 0.06670  0.38110  0.98330  Biso   1.000  H
  H1913    1.0000 0.08170  0.38430  0.01630  Biso   1.000  H
  C1644    1.0000 0.08960  0.42240  0.98950  Biso   1.000  C
  C1645    1.0000 0.07010  0.44440  0.97880  Biso   1.000  C
  H1914    1.0000 0.04960  0.44050  0.97250  Biso   1.000  H
  C1646    1.0000 0.08520  0.47600  0.97830  Biso   1.000  C
  H1915    1.0000 0.07520  0.49420  0.97140  Biso   1.000  H
  C1647    1.0000 0.11470  0.47540  0.98890  Biso   1.000  C
  H1916    1.0000 0.12770  0.49280  0.99050  Biso   1.000  H
  S110     1.0000 0.12523  0.43822  0.99897  Biso   1.000  S
  H1917    1.0000 0.16090  0.29200  0.10260  Biso   1.000  H
  H1918    1.0000 0.16990  0.32130  0.12220  Biso   1.000  H
  C1648    1.0000 0.12670  0.30140  0.13470  Biso   1.000  C
  H1919    1.0000 0.11520  0.31980  0.14160  Biso   1.000  H
  H1920    1.0000 0.11210  0.28730  0.12450  Biso   1.000  H
  C1649    1.0000 0.14230  0.28480  0.16340  Biso   1.000  C
  H1921    1.0000 0.15700  0.29910  0.17340  Biso   1.000  H
  H1922    1.0000 0.15400  0.26660  0.15630  Biso   1.000  H
  C1650    1.0000 0.11740  0.27450  0.18730  Biso   1.000  C
  H1923    1.0000 0.12740  0.26430  0.20480  Biso   1.000  H
  H1924    1.0000 0.10300  0.26010  0.17750  Biso   1.000  H
  H1925    1.0000 0.10610  0.29260  0.19470  Biso   1.000  H
  C1651    1.0000 0.61829  0.86480  0.44991  Biso   1.000  C
  C1652    1.0000 0.61206  0.86715  0.48421  Biso   1.000  C
  C1653    1.0000 0.58527  0.88770  0.49428  Biso   1.000  C
  H1926    1.0000 0.56780  0.88490  0.48030  Biso   1.000  H
  H1927    1.0000 0.57880  0.88190  0.51510  Biso   1.000  H
  C1654    1.0000 0.59560  0.92172  0.49380  Biso   1.000  C
  C1655    1.0000 0.62410  0.93350  0.49930  Biso   1.000  C
  H1928    1.0000 0.64150  0.92120  0.50430  Biso   1.000  H
  C1656    1.0000 0.62500  0.96830  0.49670  Biso   1.000  C
  H1929    1.0000 0.64290  0.98040  0.49980  Biso   1.000  H
  C1657    1.0000 0.59720  0.98020  0.48930  Biso   1.000  C
  H1930    1.0000 0.59330  0.00150  0.48650  Biso   1.000  H
  S111     1.0000 0.56945  0.95123  0.48540  Biso   1.000  S
  C1658    1.0000 0.63018  0.85007  0.50348  Biso   1.000  C
  H1931    1.0000 0.64460  0.83680  0.49380  Biso   1.000  H
  C1659    1.0000 0.63016  0.84969  0.53736  Biso   1.000  C
  C1660    1.0000 0.62371  0.87212  0.55945  Biso   1.000  C
  H1932    1.0000 0.61550  0.89190  0.55510  Biso   1.000  H
  C1661    1.0000 0.64246  0.83201  0.58540  Biso   1.000  C
  C1662    1.0000 0.65760  0.79624  0.54170  Biso   1.000  C
  C1663    1.0000 0.69283  0.80104  0.54071  Biso   1.000  C
  C1664    1.0000 0.70626  0.83087  0.54111  Biso   1.000  C
  H1933    1.0000 0.69330  0.84850  0.54120  Biso   1.000  H
  C1665    1.0000 0.73830  0.83461  0.54139  Biso   1.000  C
  H1934    1.0000 0.74690  0.85470  0.54170  Biso   1.000  H
  C1666    1.0000 0.75784  0.80872  0.54117  Biso   1.000  C
  C1667    1.0000 0.74464  0.77899  0.53988  Biso   1.000  C
  H1935    1.0000 0.75760  0.76140  0.53890  Biso   1.000  H
  C1668    1.0000 0.71268  0.77529  0.54004  Biso   1.000  C
  H1936    1.0000 0.70420  0.75520  0.53970  Biso   1.000  H
  C1669    1.0000 0.79225  0.81265  0.54316  Biso   1.000  C
  C1670    1.0000 0.65282  0.81112  0.61148  Biso   1.000  C
  H1937    1.0000 0.67090  0.79930  0.60480  Biso   1.000  H
  H1938    1.0000 0.65890  0.82380  0.62910  Biso   1.000  H
  C1671    1.0000 0.62630  0.78800  0.62100  Biso   1.000  C
  H1939    1.0000 0.60770  0.79960  0.62730  Biso   1.000  H
  H1940    1.0000 0.62080  0.77470  0.60330  Biso   1.000  H
  C1672    1.0000 0.63830  0.76760  0.64870  Biso   1.000  C
  H1941    1.0000 0.65890  0.75930  0.64360  Biso   1.000  H
  H1942    1.0000 0.62420  0.74990  0.65170  Biso   1.000  H
  C1673    1.0000 0.64030  0.78640  0.67940  Biso   1.000  C
  H1943    1.0000 0.64770  0.77310  0.69600  Biso   1.000  H
  H1944    1.0000 0.61980  0.79430  0.68470  Biso   1.000  H
  H1945    1.0000 0.65450  0.80370  0.67670  Biso   1.000  H
  N111     1.0000 0.63112  0.86119  0.58910  Biso   1.000  N
  N112     1.0000 0.64206  0.82414  0.55469  Biso   1.000  N
  O221     1.0000 0.59916  0.87671  0.43060  Biso   1.000  O
  O222     1.0000 0.64259  0.85118  0.43945  Biso   1.000  O
  O223     1.0000 0.80117  0.84183  0.54485  Biso   1.000  O
  H1946    1.0000 0.81960  0.84740  0.54810  Biso   1.000  H
  O224     1.0000 0.81103  0.79078  0.54289  Biso   1.000  O
  H1947    1.0000 0.56670  0.88110  0.48330  Biso   1.000  H
  H1948    1.0000 0.58170  0.88430  0.51630  Biso   1.000  H
  C1674    1.0000 0.58960  0.92240  0.48950  Biso   1.000  C
  C1675    1.0000 0.57010  0.94440  0.47880  Biso   1.000  C
  H1949    1.0000 0.54960  0.94050  0.47250  Biso   1.000  H
  C1676    1.0000 0.58520  0.97600  0.47830  Biso   1.000  C
  H1950    1.0000 0.57520  0.99420  0.47140  Biso   1.000  H
  C1677    1.0000 0.61470  0.97540  0.48890  Biso   1.000  C
  H1951    1.0000 0.62770  0.99280  0.49050  Biso   1.000  H
  S112     1.0000 0.62523  0.93822  0.49897  Biso   1.000  S
  H1952    1.0000 0.66090  0.79200  0.60260  Biso   1.000  H
  H1953    1.0000 0.66990  0.82130  0.62220  Biso   1.000  H
  C1678    1.0000 0.62670  0.80140  0.63470  Biso   1.000  C
  H1954    1.0000 0.61520  0.81980  0.64160  Biso   1.000  H
  H1955    1.0000 0.61210  0.78730  0.62450  Biso   1.000  H
  C1679    1.0000 0.64230  0.78480  0.66340  Biso   1.000  C
  H1956    1.0000 0.65700  0.79910  0.67340  Biso   1.000  H
  H1957    1.0000 0.65400  0.76660  0.65630  Biso   1.000  H
  C1680    1.0000 0.61740  0.77450  0.68730  Biso   1.000  C
  H1958    1.0000 0.62740  0.76430  0.70480  Biso   1.000  H
  H1959    1.0000 0.60300  0.76010  0.67750  Biso   1.000  H
  H1960    1.0000 0.60610  0.79260  0.69470  Biso   1.000  H
  C1681    1.0000 0.05009  0.61829  0.13520  Biso   1.000  C
  C1682    1.0000 0.01579  0.61206  0.13285  Biso   1.000  C
  C1683    1.0000 0.00572  0.58527  0.11230  Biso   1.000  C
  H1961    1.0000 0.01970  0.56780  0.11510  Biso   1.000  H
  H1962    1.0000 0.98490  0.57880  0.11810  Biso   1.000  H
  C1684    1.0000 0.00620  0.59560  0.07828  Biso   1.000  C
  C1685    1.0000 0.00070  0.62410  0.06650  Biso   1.000  C
  H1963    1.0000 0.99570  0.64150  0.07880  Biso   1.000  H
  C1686    1.0000 0.00330  0.62500  0.03170  Biso   1.000  C
  H1964    1.0000 0.00020  0.64290  0.01960  Biso   1.000  H
  C1687    1.0000 0.01070  0.59720  0.01980  Biso   1.000  C
  H1965    1.0000 0.01350  0.59330  0.99850  Biso   1.000  H
  S113     1.0000 0.01460  0.56945  0.04877  Biso   1.000  S
  C1688    1.0000 0.99652  0.63018  0.14993  Biso   1.000  C
  H1966    1.0000 0.00620  0.64460  0.16320  Biso   1.000  H
  C1689    1.0000 0.96264  0.63016  0.15031  Biso   1.000  C
  C1690    1.0000 0.94055  0.62371  0.12788  Biso   1.000  C
  H1967    1.0000 0.94490  0.61550  0.10810  Biso   1.000  H
  C1691    1.0000 0.91460  0.64246  0.16799  Biso   1.000  C
  C1692    1.0000 0.95830  0.65760  0.20376  Biso   1.000  C
  C1693    1.0000 0.95929  0.69283  0.19896  Biso   1.000  C
  C1694    1.0000 0.95889  0.70626  0.16913  Biso   1.000  C
  H1968    1.0000 0.95880  0.69330  0.15150  Biso   1.000  H
  C1695    1.0000 0.95861  0.73830  0.16539  Biso   1.000  C
  H1969    1.0000 0.95830  0.74690  0.14530  Biso   1.000  H
  C1696    1.0000 0.95883  0.75784  0.19128  Biso   1.000  C
  C1697    1.0000 0.96012  0.74464  0.22101  Biso   1.000  C
  H1970    1.0000 0.96110  0.75760  0.23860  Biso   1.000  H
  C1698    1.0000 0.95996  0.71268  0.22471  Biso   1.000  C
  H1971    1.0000 0.96030  0.70420  0.24480  Biso   1.000  H
  C1699    1.0000 0.95684  0.79225  0.18735  Biso   1.000  C
  C1700    1.0000 0.88852  0.65282  0.18888  Biso   1.000  C
  H1972    1.0000 0.89520  0.67090  0.20070  Biso   1.000  H
  H1973    1.0000 0.87090  0.65890  0.17620  Biso   1.000  H
  C1701    1.0000 0.87900  0.62630  0.21200  Biso   1.000  C
  H1974    1.0000 0.87270  0.60770  0.20040  Biso   1.000  H
  H1975    1.0000 0.89670  0.62080  0.22530  Biso   1.000  H
  C1702    1.0000 0.85130  0.63830  0.23240  Biso   1.000  C
  H1976    1.0000 0.85640  0.65890  0.24070  Biso   1.000  H
  H1977    1.0000 0.84830  0.62420  0.25010  Biso   1.000  H
  C1703    1.0000 0.82060  0.64030  0.21360  Biso   1.000  C
  H1978    1.0000 0.80400  0.64770  0.22690  Biso   1.000  H
  H1979    1.0000 0.81530  0.61980  0.20570  Biso   1.000  H
  H1980    1.0000 0.82330  0.65450  0.19630  Biso   1.000  H
  N113     1.0000 0.91090  0.63112  0.13881  Biso   1.000  N
  N114     1.0000 0.94531  0.64206  0.17586  Biso   1.000  N
  O225     1.0000 0.06940  0.59916  0.12329  Biso   1.000  O
  O226     1.0000 0.06055  0.64259  0.14882  Biso   1.000  O
  O227     1.0000 0.95515  0.80117  0.15817  Biso   1.000  O
  H1981    1.0000 0.95190  0.81960  0.15260  Biso   1.000  H
  O228     1.0000 0.95711  0.81103  0.20922  Biso   1.000  O
  H1982    1.0000 0.01670  0.56670  0.11890  Biso   1.000  H
  H1983    1.0000 0.98370  0.58170  0.11570  Biso   1.000  H
  C1704    1.0000 0.01050  0.58960  0.07760  Biso   1.000  C
  C1705    1.0000 0.02120  0.57010  0.05560  Biso   1.000  C
  H1984    1.0000 0.02750  0.54960  0.05950  Biso   1.000  H
  C1706    1.0000 0.02170  0.58520  0.02400  Biso   1.000  C
  H1985    1.0000 0.02860  0.57520  0.00580  Biso   1.000  H
  C1707    1.0000 0.01110  0.61470  0.02460  Biso   1.000  C
  H1986    1.0000 0.00950  0.62770  0.00720  Biso   1.000  H
  S114     1.0000 0.00103  0.62523  0.06178  Biso   1.000  S
  H1987    1.0000 0.89740  0.66090  0.20800  Biso   1.000  H
  H1988    1.0000 0.87780  0.66990  0.17870  Biso   1.000  H
  C1708    1.0000 0.86530  0.62670  0.19860  Biso   1.000  C
  H1989    1.0000 0.85840  0.61520  0.18020  Biso   1.000  H
  H1990    1.0000 0.87550  0.61210  0.21270  Biso   1.000  H
  C1709    1.0000 0.83660  0.64230  0.21520  Biso   1.000  C
  H1991    1.0000 0.82660  0.65700  0.20090  Biso   1.000  H
  H1992    1.0000 0.84370  0.65400  0.23340  Biso   1.000  H
  C1710    1.0000 0.81270  0.61740  0.22550  Biso   1.000  C
  H1993    1.0000 0.79520  0.62740  0.23570  Biso   1.000  H
  H1994    1.0000 0.82250  0.60300  0.23990  Biso   1.000  H
  H1995    1.0000 0.80530  0.60610  0.20740  Biso   1.000  H
  C1711    1.0000 0.55009  0.11829  0.63520  Biso   1.000  C
  C1712    1.0000 0.51579  0.11206  0.63285  Biso   1.000  C
  C1713    1.0000 0.50572  0.08527  0.61230  Biso   1.000  C
  H1996    1.0000 0.51970  0.06780  0.61510  Biso   1.000  H
  H1997    1.0000 0.48490  0.07880  0.61810  Biso   1.000  H
  C1714    1.0000 0.50620  0.09560  0.57828  Biso   1.000  C
  C1715    1.0000 0.50070  0.12410  0.56650  Biso   1.000  C
  H1998    1.0000 0.49570  0.14150  0.57880  Biso   1.000  H
  C1716    1.0000 0.50330  0.12500  0.53170  Biso   1.000  C
  H1999    1.0000 0.50020  0.14290  0.51960  Biso   1.000  H
  C1717    1.0000 0.51070  0.09720  0.51980  Biso   1.000  C
  H2000    1.0000 0.51350  0.09330  0.49850  Biso   1.000  H
  S115     1.0000 0.51460  0.06945  0.54877  Biso   1.000  S
  C1718    1.0000 0.49652  0.13018  0.64993  Biso   1.000  C
  H2001    1.0000 0.50620  0.14460  0.66320  Biso   1.000  H
  C1719    1.0000 0.46264  0.13016  0.65031  Biso   1.000  C
  C1720    1.0000 0.44055  0.12371  0.62788  Biso   1.000  C
  H2002    1.0000 0.44490  0.11550  0.60810  Biso   1.000  H
  C1721    1.0000 0.41460  0.14246  0.66799  Biso   1.000  C
  C1722    1.0000 0.45830  0.15760  0.70376  Biso   1.000  C
  C1723    1.0000 0.45929  0.19283  0.69896  Biso   1.000  C
  C1724    1.0000 0.45889  0.20626  0.66913  Biso   1.000  C
  H2003    1.0000 0.45880  0.19330  0.65150  Biso   1.000  H
  C1725    1.0000 0.45861  0.23830  0.66539  Biso   1.000  C
  H2004    1.0000 0.45830  0.24690  0.64530  Biso   1.000  H
  C1726    1.0000 0.45883  0.25784  0.69128  Biso   1.000  C
  C1727    1.0000 0.46012  0.24464  0.72101  Biso   1.000  C
  H2005    1.0000 0.46110  0.25760  0.73860  Biso   1.000  H
  C1728    1.0000 0.45996  0.21268  0.72471  Biso   1.000  C
  H2006    1.0000 0.46030  0.20420  0.74480  Biso   1.000  H
  C1729    1.0000 0.45684  0.29225  0.68735  Biso   1.000  C
  C1730    1.0000 0.38852  0.15282  0.68888  Biso   1.000  C
  H2007    1.0000 0.39520  0.17090  0.70070  Biso   1.000  H
  H2008    1.0000 0.37090  0.15890  0.67620  Biso   1.000  H
  C1731    1.0000 0.37900  0.12630  0.71200  Biso   1.000  C
  H2009    1.0000 0.37270  0.10770  0.70040  Biso   1.000  H
  H2010    1.0000 0.39670  0.12080  0.72530  Biso   1.000  H
  C1732    1.0000 0.35130  0.13830  0.73240  Biso   1.000  C
  H2011    1.0000 0.35640  0.15890  0.74070  Biso   1.000  H
  H2012    1.0000 0.34830  0.12420  0.75010  Biso   1.000  H
  C1733    1.0000 0.32060  0.14030  0.71360  Biso   1.000  C
  H2013    1.0000 0.30400  0.14770  0.72690  Biso   1.000  H
  H2014    1.0000 0.31530  0.11980  0.70570  Biso   1.000  H
  H2015    1.0000 0.32330  0.15450  0.69630  Biso   1.000  H
  N115     1.0000 0.41090  0.13112  0.63881  Biso   1.000  N
  N116     1.0000 0.44531  0.14206  0.67586  Biso   1.000  N
  O229     1.0000 0.56940  0.09916  0.62329  Biso   1.000  O
  O230     1.0000 0.56055  0.14259  0.64882  Biso   1.000  O
  O231     1.0000 0.45515  0.30117  0.65817  Biso   1.000  O
  H2016    1.0000 0.45190  0.31960  0.65260  Biso   1.000  H
  O232     1.0000 0.45711  0.31103  0.70922  Biso   1.000  O
  H2017    1.0000 0.51670  0.06670  0.61890  Biso   1.000  H
  H2018    1.0000 0.48370  0.08170  0.61570  Biso   1.000  H
  C1734    1.0000 0.51050  0.08960  0.57760  Biso   1.000  C
  C1735    1.0000 0.52120  0.07010  0.55560  Biso   1.000  C
  H2019    1.0000 0.52750  0.04960  0.55950  Biso   1.000  H
  C1736    1.0000 0.52170  0.08520  0.52400  Biso   1.000  C
  H2020    1.0000 0.52860  0.07520  0.50580  Biso   1.000  H
  C1737    1.0000 0.51110  0.11470  0.52460  Biso   1.000  C
  H2021    1.0000 0.50950  0.12770  0.50720  Biso   1.000  H
  S116     1.0000 0.50103  0.12523  0.56178  Biso   1.000  S
  H2022    1.0000 0.39740  0.16090  0.70800  Biso   1.000  H
  H2023    1.0000 0.37780  0.16990  0.67870  Biso   1.000  H
  C1738    1.0000 0.36530  0.12670  0.69860  Biso   1.000  C
  H2024    1.0000 0.35840  0.11520  0.68020  Biso   1.000  H
  H2025    1.0000 0.37550  0.11210  0.71270  Biso   1.000  H
  C1739    1.0000 0.33660  0.14230  0.71520  Biso   1.000  C
  H2026    1.0000 0.32660  0.15700  0.70090  Biso   1.000  H
  H2027    1.0000 0.34370  0.15400  0.73340  Biso   1.000  H
  C1740    1.0000 0.31270  0.11740  0.72550  Biso   1.000  C
  H2028    1.0000 0.29520  0.12740  0.73570  Biso   1.000  H
  H2029    1.0000 0.32250  0.10300  0.73990  Biso   1.000  H
  H2030    1.0000 0.30530  0.10610  0.70740  Biso   1.000  H
  C1741    1.0000 0.55009  0.88171  0.86480  Biso   1.000  C
  C1742    1.0000 0.51579  0.88794  0.86715  Biso   1.000  C
  C1743    1.0000 0.50572  0.91473  0.88770  Biso   1.000  C
  H2031    1.0000 0.51970  0.93220  0.88490  Biso   1.000  H
  H2032    1.0000 0.48490  0.92120  0.88190  Biso   1.000  H
  C1744    1.0000 0.50620  0.90440  0.92172  Biso   1.000  C
  C1745    1.0000 0.50070  0.87590  0.93350  Biso   1.000  C
  H2033    1.0000 0.49570  0.85850  0.92120  Biso   1.000  H
  C1746    1.0000 0.50330  0.87500  0.96830  Biso   1.000  C
  H2034    1.0000 0.50020  0.85710  0.98040  Biso   1.000  H
  C1747    1.0000 0.51070  0.90280  0.98020  Biso   1.000  C
  H2035    1.0000 0.51350  0.90670  0.00150  Biso   1.000  H
  S117     1.0000 0.51460  0.93055  0.95123  Biso   1.000  S
  C1748    1.0000 0.49652  0.86982  0.85007  Biso   1.000  C
  H2036    1.0000 0.50620  0.85540  0.83680  Biso   1.000  H
  C1749    1.0000 0.46264  0.86984  0.84969  Biso   1.000  C
  C1750    1.0000 0.44055  0.87629  0.87212  Biso   1.000  C
  H2037    1.0000 0.44490  0.88450  0.89190  Biso   1.000  H
  C1751    1.0000 0.41460  0.85754  0.83201  Biso   1.000  C
  C1752    1.0000 0.45830  0.84240  0.79624  Biso   1.000  C
  C1753    1.0000 0.45929  0.80717  0.80104  Biso   1.000  C
  C1754    1.0000 0.45889  0.79374  0.83087  Biso   1.000  C
  H2038    1.0000 0.45880  0.80670  0.84850  Biso   1.000  H
  C1755    1.0000 0.45861  0.76170  0.83461  Biso   1.000  C
  H2039    1.0000 0.45830  0.75310  0.85470  Biso   1.000  H
  C1756    1.0000 0.45883  0.74216  0.80872  Biso   1.000  C
  C1757    1.0000 0.46012  0.75536  0.77899  Biso   1.000  C
  H2040    1.0000 0.46110  0.74240  0.76140  Biso   1.000  H
  C1758    1.0000 0.45996  0.78732  0.77529  Biso   1.000  C
  H2041    1.0000 0.46030  0.79580  0.75520  Biso   1.000  H
  C1759    1.0000 0.45684  0.70775  0.81265  Biso   1.000  C
  C1760    1.0000 0.38852  0.84718  0.81112  Biso   1.000  C
  H2042    1.0000 0.39520  0.82910  0.79930  Biso   1.000  H
  H2043    1.0000 0.37090  0.84110  0.82380  Biso   1.000  H
  C1761    1.0000 0.37900  0.87370  0.78800  Biso   1.000  C
  H2044    1.0000 0.37270  0.89230  0.79960  Biso   1.000  H
  H2045    1.0000 0.39670  0.87920  0.77470  Biso   1.000  H
  C1762    1.0000 0.35130  0.86170  0.76760  Biso   1.000  C
  H2046    1.0000 0.35640  0.84110  0.75930  Biso   1.000  H
  H2047    1.0000 0.34830  0.87580  0.74990  Biso   1.000  H
  C1763    1.0000 0.32060  0.85970  0.78640  Biso   1.000  C
  H2048    1.0000 0.30400  0.85230  0.77310  Biso   1.000  H
  H2049    1.0000 0.31530  0.88020  0.79430  Biso   1.000  H
  H2050    1.0000 0.32330  0.84550  0.80370  Biso   1.000  H
  N117     1.0000 0.41090  0.86888  0.86119  Biso   1.000  N
  N118     1.0000 0.44531  0.85794  0.82414  Biso   1.000  N
  O233     1.0000 0.56940  0.90084  0.87671  Biso   1.000  O
  O234     1.0000 0.56055  0.85741  0.85118  Biso   1.000  O
  O235     1.0000 0.45515  0.69883  0.84183  Biso   1.000  O
  H2051    1.0000 0.45190  0.68040  0.84740  Biso   1.000  H
  O236     1.0000 0.45711  0.68897  0.79078  Biso   1.000  O
  H2052    1.0000 0.51670  0.93330  0.88110  Biso   1.000  H
  H2053    1.0000 0.48370  0.91830  0.88430  Biso   1.000  H
  C1764    1.0000 0.51050  0.91040  0.92240  Biso   1.000  C
  C1765    1.0000 0.52120  0.92990  0.94440  Biso   1.000  C
  H2054    1.0000 0.52750  0.95040  0.94050  Biso   1.000  H
  C1766    1.0000 0.52170  0.91480  0.97600  Biso   1.000  C
  H2055    1.0000 0.52860  0.92480  0.99420  Biso   1.000  H
  C1767    1.0000 0.51110  0.88530  0.97540  Biso   1.000  C
  H2056    1.0000 0.50950  0.87230  0.99280  Biso   1.000  H
  S118     1.0000 0.50103  0.87477  0.93822  Biso   1.000  S
  H2057    1.0000 0.39740  0.83910  0.79200  Biso   1.000  H
  H2058    1.0000 0.37780  0.83010  0.82130  Biso   1.000  H
  C1768    1.0000 0.36530  0.87330  0.80140  Biso   1.000  C
  H2059    1.0000 0.35840  0.88480  0.81980  Biso   1.000  H
  H2060    1.0000 0.37550  0.88790  0.78730  Biso   1.000  H
  C1769    1.0000 0.33660  0.85770  0.78480  Biso   1.000  C
  H2061    1.0000 0.32660  0.84300  0.79910  Biso   1.000  H
  H2062    1.0000 0.34370  0.84600  0.76660  Biso   1.000  H
  C1770    1.0000 0.31270  0.88260  0.77450  Biso   1.000  C
  H2063    1.0000 0.29520  0.87260  0.76430  Biso   1.000  H
  H2064    1.0000 0.32250  0.89700  0.76010  Biso   1.000  H
  H2065    1.0000 0.30530  0.89390  0.79260  Biso   1.000  H
  C1771    1.0000 0.05009  0.38171  0.36480  Biso   1.000  C
  C1772    1.0000 0.01579  0.38794  0.36715  Biso   1.000  C
  C1773    1.0000 0.00572  0.41473  0.38770  Biso   1.000  C
  H2066    1.0000 0.01970  0.43220  0.38490  Biso   1.000  H
  H2067    1.0000 0.98490  0.42120  0.38190  Biso   1.000  H
  C1774    1.0000 0.00620  0.40440  0.42172  Biso   1.000  C
  C1775    1.0000 0.00070  0.37590  0.43350  Biso   1.000  C
  H2068    1.0000 0.99570  0.35850  0.42120  Biso   1.000  H
  C1776    1.0000 0.00330  0.37500  0.46830  Biso   1.000  C
  H2069    1.0000 0.00020  0.35710  0.48040  Biso   1.000  H
  C1777    1.0000 0.01070  0.40280  0.48020  Biso   1.000  C
  H2070    1.0000 0.01350  0.40670  0.50150  Biso   1.000  H
  S119     1.0000 0.01460  0.43055  0.45123  Biso   1.000  S
  C1778    1.0000 0.99652  0.36982  0.35007  Biso   1.000  C
  H2071    1.0000 0.00620  0.35540  0.33680  Biso   1.000  H
  C1779    1.0000 0.96264  0.36984  0.34969  Biso   1.000  C
  C1780    1.0000 0.94055  0.37629  0.37212  Biso   1.000  C
  H2072    1.0000 0.94490  0.38450  0.39190  Biso   1.000  H
  C1781    1.0000 0.91460  0.35754  0.33201  Biso   1.000  C
  C1782    1.0000 0.95830  0.34240  0.29624  Biso   1.000  C
  C1783    1.0000 0.95929  0.30717  0.30104  Biso   1.000  C
  C1784    1.0000 0.95889  0.29374  0.33087  Biso   1.000  C
  H2073    1.0000 0.95880  0.30670  0.34850  Biso   1.000  H
  C1785    1.0000 0.95861  0.26170  0.33461  Biso   1.000  C
  H2074    1.0000 0.95830  0.25310  0.35470  Biso   1.000  H
  C1786    1.0000 0.95883  0.24216  0.30872  Biso   1.000  C
  C1787    1.0000 0.96012  0.25536  0.27899  Biso   1.000  C
  H2075    1.0000 0.96110  0.24240  0.26140  Biso   1.000  H
  C1788    1.0000 0.95996  0.28732  0.27529  Biso   1.000  C
  H2076    1.0000 0.96030  0.29580  0.25520  Biso   1.000  H
  C1789    1.0000 0.95684  0.20775  0.31265  Biso   1.000  C
  C1790    1.0000 0.88852  0.34718  0.31112  Biso   1.000  C
  H2077    1.0000 0.89520  0.32910  0.29930  Biso   1.000  H
  H2078    1.0000 0.87090  0.34110  0.32380  Biso   1.000  H
  C1791    1.0000 0.87900  0.37370  0.28800  Biso   1.000  C
  H2079    1.0000 0.87270  0.39230  0.29960  Biso   1.000  H
  H2080    1.0000 0.89670  0.37920  0.27470  Biso   1.000  H
  C1792    1.0000 0.85130  0.36170  0.26760  Biso   1.000  C
  H2081    1.0000 0.85640  0.34110  0.25930  Biso   1.000  H
  H2082    1.0000 0.84830  0.37580  0.24990  Biso   1.000  H
  C1793    1.0000 0.82060  0.35970  0.28640  Biso   1.000  C
  H2083    1.0000 0.80400  0.35230  0.27310  Biso   1.000  H
  H2084    1.0000 0.81530  0.38020  0.29430  Biso   1.000  H
  H2085    1.0000 0.82330  0.34550  0.30370  Biso   1.000  H
  N119     1.0000 0.91090  0.36888  0.36119  Biso   1.000  N
  N120     1.0000 0.94531  0.35794  0.32414  Biso   1.000  N
  O237     1.0000 0.06940  0.40084  0.37671  Biso   1.000  O
  O238     1.0000 0.06055  0.35741  0.35118  Biso   1.000  O
  O239     1.0000 0.95515  0.19883  0.34183  Biso   1.000  O
  H2086    1.0000 0.95190  0.18040  0.34740  Biso   1.000  H
  O240     1.0000 0.95711  0.18897  0.29078  Biso   1.000  O
  H2087    1.0000 0.01670  0.43330  0.38110  Biso   1.000  H
  H2088    1.0000 0.98370  0.41830  0.38430  Biso   1.000  H
  C1794    1.0000 0.01050  0.41040  0.42240  Biso   1.000  C
  C1795    1.0000 0.02120  0.42990  0.44440  Biso   1.000  C
  H2089    1.0000 0.02750  0.45040  0.44050  Biso   1.000  H
  C1796    1.0000 0.02170  0.41480  0.47600  Biso   1.000  C
  H2090    1.0000 0.02860  0.42480  0.49420  Biso   1.000  H
  C1797    1.0000 0.01110  0.38530  0.47540  Biso   1.000  C
  H2091    1.0000 0.00950  0.37230  0.49280  Biso   1.000  H
  S120     1.0000 0.00103  0.37477  0.43822  Biso   1.000  S
  H2092    1.0000 0.89740  0.33910  0.29200  Biso   1.000  H
  H2093    1.0000 0.87780  0.33010  0.32130  Biso   1.000  H
  C1798    1.0000 0.86530  0.37330  0.30140  Biso   1.000  C
  H2094    1.0000 0.85840  0.38480  0.31980  Biso   1.000  H
  H2095    1.0000 0.87550  0.38790  0.28730  Biso   1.000  H
  C1799    1.0000 0.83660  0.35770  0.28480  Biso   1.000  C
  H2096    1.0000 0.82660  0.34300  0.29910  Biso   1.000  H
  H2097    1.0000 0.84370  0.34600  0.26660  Biso   1.000  H
  C1800    1.0000 0.81270  0.38260  0.27450  Biso   1.000  C
  H2098    1.0000 0.79520  0.37260  0.26430  Biso   1.000  H
  H2099    1.0000 0.82250  0.39700  0.26010  Biso   1.000  H
  H2100    1.0000 0.80530  0.39390  0.29260  Biso   1.000  H
  C1801    1.0000 0.44991  0.38171  0.63520  Biso   1.000  C
  C1802    1.0000 0.48421  0.38794  0.63285  Biso   1.000  C
  C1803    1.0000 0.49428  0.41473  0.61230  Biso   1.000  C
  H2101    1.0000 0.48030  0.43220  0.61510  Biso   1.000  H
  H2102    1.0000 0.51510  0.42120  0.61810  Biso   1.000  H
  C1804    1.0000 0.49380  0.40440  0.57828  Biso   1.000  C
  C1805    1.0000 0.49930  0.37590  0.56650  Biso   1.000  C
  H2103    1.0000 0.50430  0.35850  0.57880  Biso   1.000  H
  C1806    1.0000 0.49670  0.37500  0.53170  Biso   1.000  C
  H2104    1.0000 0.49980  0.35710  0.51960  Biso   1.000  H
  C1807    1.0000 0.48930  0.40280  0.51980  Biso   1.000  C
  H2105    1.0000 0.48650  0.40670  0.49850  Biso   1.000  H
  S121     1.0000 0.48540  0.43055  0.54877  Biso   1.000  S
  C1808    1.0000 0.50348  0.36982  0.64993  Biso   1.000  C
  H2106    1.0000 0.49380  0.35540  0.66320  Biso   1.000  H
  C1809    1.0000 0.53736  0.36984  0.65031  Biso   1.000  C
  C1810    1.0000 0.55945  0.37629  0.62788  Biso   1.000  C
  H2107    1.0000 0.55510  0.38450  0.60810  Biso   1.000  H
  C1811    1.0000 0.58540  0.35754  0.66799  Biso   1.000  C
  C1812    1.0000 0.54170  0.34240  0.70376  Biso   1.000  C
  C1813    1.0000 0.54071  0.30717  0.69896  Biso   1.000  C
  C1814    1.0000 0.54111  0.29374  0.66913  Biso   1.000  C
  H2108    1.0000 0.54120  0.30670  0.65150  Biso   1.000  H
  C1815    1.0000 0.54139  0.26170  0.66539  Biso   1.000  C
  H2109    1.0000 0.54170  0.25310  0.64530  Biso   1.000  H
  C1816    1.0000 0.54117  0.24216  0.69128  Biso   1.000  C
  C1817    1.0000 0.53988  0.25536  0.72101  Biso   1.000  C
  H2110    1.0000 0.53890  0.24240  0.73860  Biso   1.000  H
  C1818    1.0000 0.54004  0.28732  0.72471  Biso   1.000  C
  H2111    1.0000 0.53970  0.29580  0.74480  Biso   1.000  H
  C1819    1.0000 0.54316  0.20775  0.68735  Biso   1.000  C
  C1820    1.0000 0.61148  0.34718  0.68888  Biso   1.000  C
  H2112    1.0000 0.60480  0.32910  0.70070  Biso   1.000  H
  H2113    1.0000 0.62910  0.34110  0.67620  Biso   1.000  H
  C1821    1.0000 0.62100  0.37370  0.71200  Biso   1.000  C
  H2114    1.0000 0.62730  0.39230  0.70040  Biso   1.000  H
  H2115    1.0000 0.60330  0.37920  0.72530  Biso   1.000  H
  C1822    1.0000 0.64870  0.36170  0.73240  Biso   1.000  C
  H2116    1.0000 0.64360  0.34110  0.74070  Biso   1.000  H
  H2117    1.0000 0.65170  0.37580  0.75010  Biso   1.000  H
  C1823    1.0000 0.67940  0.35970  0.71360  Biso   1.000  C
  H2118    1.0000 0.69600  0.35230  0.72690  Biso   1.000  H
  H2119    1.0000 0.68470  0.38020  0.70570  Biso   1.000  H
  H2120    1.0000 0.67670  0.34550  0.69630  Biso   1.000  H
  N121     1.0000 0.58910  0.36888  0.63881  Biso   1.000  N
  N122     1.0000 0.55469  0.35794  0.67586  Biso   1.000  N
  O241     1.0000 0.43060  0.40084  0.62329  Biso   1.000  O
  O242     1.0000 0.43945  0.35741  0.64882  Biso   1.000  O
  O243     1.0000 0.54485  0.19883  0.65817  Biso   1.000  O
  H2121    1.0000 0.54810  0.18040  0.65260  Biso   1.000  H
  O244     1.0000 0.54289  0.18897  0.70922  Biso   1.000  O
  H2122    1.0000 0.48330  0.43330  0.61890  Biso   1.000  H
  H2123    1.0000 0.51630  0.41830  0.61570  Biso   1.000  H
  C1824    1.0000 0.48950  0.41040  0.57760  Biso   1.000  C
  C1825    1.0000 0.47880  0.42990  0.55560  Biso   1.000  C
  H2124    1.0000 0.47250  0.45040  0.55950  Biso   1.000  H
  C1826    1.0000 0.47830  0.41480  0.52400  Biso   1.000  C
  H2125    1.0000 0.47140  0.42480  0.50580  Biso   1.000  H
  C1827    1.0000 0.48890  0.38530  0.52460  Biso   1.000  C
  H2126    1.0000 0.49050  0.37230  0.50720  Biso   1.000  H
  S122     1.0000 0.49897  0.37477  0.56178  Biso   1.000  S
  H2127    1.0000 0.60260  0.33910  0.70800  Biso   1.000  H
  H2128    1.0000 0.62220  0.33010  0.67870  Biso   1.000  H
  C1828    1.0000 0.63470  0.37330  0.69860  Biso   1.000  C
  H2129    1.0000 0.64160  0.38480  0.68020  Biso   1.000  H
  H2130    1.0000 0.62450  0.38790  0.71270  Biso   1.000  H
  C1829    1.0000 0.66340  0.35770  0.71520  Biso   1.000  C
  H2131    1.0000 0.67340  0.34300  0.70090  Biso   1.000  H
  H2132    1.0000 0.65630  0.34600  0.73340  Biso   1.000  H
  C1830    1.0000 0.68730  0.38260  0.72550  Biso   1.000  C
  H2133    1.0000 0.70480  0.37260  0.73570  Biso   1.000  H
  H2134    1.0000 0.67750  0.39700  0.73990  Biso   1.000  H
  H2135    1.0000 0.69470  0.39390  0.70740  Biso   1.000  H
  C1831    1.0000 0.94991  0.88171  0.13520  Biso   1.000  C
  C1832    1.0000 0.98421  0.88794  0.13285  Biso   1.000  C
  C1833    1.0000 0.99428  0.91473  0.11230  Biso   1.000  C
  H2136    1.0000 0.98030  0.93220  0.11510  Biso   1.000  H
  H2137    1.0000 0.01510  0.92120  0.11810  Biso   1.000  H
  C1834    1.0000 0.99380  0.90440  0.07828  Biso   1.000  C
  C1835    1.0000 0.99930  0.87590  0.06650  Biso   1.000  C
  H2138    1.0000 0.00430  0.85850  0.07880  Biso   1.000  H
  C1836    1.0000 0.99670  0.87500  0.03170  Biso   1.000  C
  H2139    1.0000 0.99980  0.85710  0.01960  Biso   1.000  H
  C1837    1.0000 0.98930  0.90280  0.01980  Biso   1.000  C
  H2140    1.0000 0.98650  0.90670  0.99850  Biso   1.000  H
  S123     1.0000 0.98540  0.93055  0.04877  Biso   1.000  S
  C1838    1.0000 0.00348  0.86982  0.14993  Biso   1.000  C
  H2141    1.0000 0.99380  0.85540  0.16320  Biso   1.000  H
  C1839    1.0000 0.03736  0.86984  0.15031  Biso   1.000  C
  C1840    1.0000 0.05945  0.87629  0.12788  Biso   1.000  C
  H2142    1.0000 0.05510  0.88450  0.10810  Biso   1.000  H
  C1841    1.0000 0.08540  0.85754  0.16799  Biso   1.000  C
  C1842    1.0000 0.04170  0.84240  0.20376  Biso   1.000  C
  C1843    1.0000 0.04071  0.80717  0.19896  Biso   1.000  C
  C1844    1.0000 0.04111  0.79374  0.16913  Biso   1.000  C
  H2143    1.0000 0.04120  0.80670  0.15150  Biso   1.000  H
  C1845    1.0000 0.04139  0.76170  0.16539  Biso   1.000  C
  H2144    1.0000 0.04170  0.75310  0.14530  Biso   1.000  H
  C1846    1.0000 0.04117  0.74216  0.19128  Biso   1.000  C
  C1847    1.0000 0.03988  0.75536  0.22101  Biso   1.000  C
  H2145    1.0000 0.03890  0.74240  0.23860  Biso   1.000  H
  C1848    1.0000 0.04004  0.78732  0.22471  Biso   1.000  C
  H2146    1.0000 0.03970  0.79580  0.24480  Biso   1.000  H
  C1849    1.0000 0.04316  0.70775  0.18735  Biso   1.000  C
  C1850    1.0000 0.11148  0.84718  0.18888  Biso   1.000  C
  H2147    1.0000 0.10480  0.82910  0.20070  Biso   1.000  H
  H2148    1.0000 0.12910  0.84110  0.17620  Biso   1.000  H
  C1851    1.0000 0.12100  0.87370  0.21200  Biso   1.000  C
  H2149    1.0000 0.12730  0.89230  0.20040  Biso   1.000  H
  H2150    1.0000 0.10330  0.87920  0.22530  Biso   1.000  H
  C1852    1.0000 0.14870  0.86170  0.23240  Biso   1.000  C
  H2151    1.0000 0.14360  0.84110  0.24070  Biso   1.000  H
  H2152    1.0000 0.15170  0.87580  0.25010  Biso   1.000  H
  C1853    1.0000 0.17940  0.85970  0.21360  Biso   1.000  C
  H2153    1.0000 0.19600  0.85230  0.22690  Biso   1.000  H
  H2154    1.0000 0.18470  0.88020  0.20570  Biso   1.000  H
  H2155    1.0000 0.17670  0.84550  0.19630  Biso   1.000  H
  N123     1.0000 0.08910  0.86888  0.13881  Biso   1.000  N
  N124     1.0000 0.05469  0.85794  0.17586  Biso   1.000  N
  O245     1.0000 0.93060  0.90084  0.12329  Biso   1.000  O
  O246     1.0000 0.93945  0.85741  0.14882  Biso   1.000  O
  O247     1.0000 0.04485  0.69883  0.15817  Biso   1.000  O
  H2156    1.0000 0.04810  0.68040  0.15260  Biso   1.000  H
  O248     1.0000 0.04289  0.68897  0.20922  Biso   1.000  O
  H2157    1.0000 0.98330  0.93330  0.11890  Biso   1.000  H
  H2158    1.0000 0.01630  0.91830  0.11570  Biso   1.000  H
  C1854    1.0000 0.98950  0.91040  0.07760  Biso   1.000  C
  C1855    1.0000 0.97880  0.92990  0.05560  Biso   1.000  C
  H2159    1.0000 0.97250  0.95040  0.05950  Biso   1.000  H
  C1856    1.0000 0.97830  0.91480  0.02400  Biso   1.000  C
  H2160    1.0000 0.97140  0.92480  0.00580  Biso   1.000  H
  C1857    1.0000 0.98890  0.88530  0.02460  Biso   1.000  C
  H2161    1.0000 0.99050  0.87230  0.00720  Biso   1.000  H
  S124     1.0000 0.99897  0.87477  0.06178  Biso   1.000  S
  H2162    1.0000 0.10260  0.83910  0.20800  Biso   1.000  H
  H2163    1.0000 0.12220  0.83010  0.17870  Biso   1.000  H
  C1858    1.0000 0.13470  0.87330  0.19860  Biso   1.000  C
  H2164    1.0000 0.14160  0.88480  0.18020  Biso   1.000  H
  H2165    1.0000 0.12450  0.88790  0.21270  Biso   1.000  H
  C1859    1.0000 0.16340  0.85770  0.21520  Biso   1.000  C
  H2166    1.0000 0.17340  0.84300  0.20090  Biso   1.000  H
  H2167    1.0000 0.15630  0.84600  0.23340  Biso   1.000  H
  C1860    1.0000 0.18730  0.88260  0.22550  Biso   1.000  C
  H2168    1.0000 0.20480  0.87260  0.23570  Biso   1.000  H
  H2169    1.0000 0.17750  0.89700  0.23990  Biso   1.000  H
  H2170    1.0000 0.19470  0.89390  0.20740  Biso   1.000  H
  C1861    1.0000 0.94991  0.11829  0.36480  Biso   1.000  C
  C1862    1.0000 0.98421  0.11206  0.36715  Biso   1.000  C
  C1863    1.0000 0.99428  0.08527  0.38770  Biso   1.000  C
  H2171    1.0000 0.98030  0.06780  0.38490  Biso   1.000  H
  H2172    1.0000 0.01510  0.07880  0.38190  Biso   1.000  H
  C1864    1.0000 0.99380  0.09560  0.42172  Biso   1.000  C
  C1865    1.0000 0.99930  0.12410  0.43350  Biso   1.000  C
  H2173    1.0000 0.00430  0.14150  0.42120  Biso   1.000  H
  C1866    1.0000 0.99670  0.12500  0.46830  Biso   1.000  C
  H2174    1.0000 0.99980  0.14290  0.48040  Biso   1.000  H
  C1867    1.0000 0.98930  0.09720  0.48020  Biso   1.000  C
  H2175    1.0000 0.98650  0.09330  0.50150  Biso   1.000  H
  S125     1.0000 0.98540  0.06945  0.45123  Biso   1.000  S
  C1868    1.0000 0.00348  0.13018  0.35007  Biso   1.000  C
  H2176    1.0000 0.99380  0.14460  0.33680  Biso   1.000  H
  C1869    1.0000 0.03736  0.13016  0.34969  Biso   1.000  C
  C1870    1.0000 0.05945  0.12371  0.37212  Biso   1.000  C
  H2177    1.0000 0.05510  0.11550  0.39190  Biso   1.000  H
  C1871    1.0000 0.08540  0.14246  0.33201  Biso   1.000  C
  C1872    1.0000 0.04170  0.15760  0.29624  Biso   1.000  C
  C1873    1.0000 0.04071  0.19283  0.30104  Biso   1.000  C
  C1874    1.0000 0.04111  0.20626  0.33087  Biso   1.000  C
  H2178    1.0000 0.04120  0.19330  0.34850  Biso   1.000  H
  C1875    1.0000 0.04139  0.23830  0.33461  Biso   1.000  C
  H2179    1.0000 0.04170  0.24690  0.35470  Biso   1.000  H
  C1876    1.0000 0.04117  0.25784  0.30872  Biso   1.000  C
  C1877    1.0000 0.03988  0.24464  0.27899  Biso   1.000  C
  H2180    1.0000 0.03890  0.25760  0.26140  Biso   1.000  H
  C1878    1.0000 0.04004  0.21268  0.27529  Biso   1.000  C
  H2181    1.0000 0.03970  0.20420  0.25520  Biso   1.000  H
  C1879    1.0000 0.04316  0.29225  0.31265  Biso   1.000  C
  C1880    1.0000 0.11148  0.15282  0.31112  Biso   1.000  C
  H2182    1.0000 0.10480  0.17090  0.29930  Biso   1.000  H
  H2183    1.0000 0.12910  0.15890  0.32380  Biso   1.000  H
  C1881    1.0000 0.12100  0.12630  0.28800  Biso   1.000  C
  H2184    1.0000 0.12730  0.10770  0.29960  Biso   1.000  H
  H2185    1.0000 0.10330  0.12080  0.27470  Biso   1.000  H
  C1882    1.0000 0.14870  0.13830  0.26760  Biso   1.000  C
  H2186    1.0000 0.14360  0.15890  0.25930  Biso   1.000  H
  H2187    1.0000 0.15170  0.12420  0.24990  Biso   1.000  H
  C1883    1.0000 0.17940  0.14030  0.28640  Biso   1.000  C
  H2188    1.0000 0.19600  0.14770  0.27310  Biso   1.000  H
  H2189    1.0000 0.18470  0.11980  0.29430  Biso   1.000  H
  H2190    1.0000 0.17670  0.15450  0.30370  Biso   1.000  H
  N125     1.0000 0.08910  0.13112  0.36119  Biso   1.000  N
  N126     1.0000 0.05469  0.14206  0.32414  Biso   1.000  N
  O249     1.0000 0.93060  0.09916  0.37671  Biso   1.000  O
  O250     1.0000 0.93945  0.14259  0.35118  Biso   1.000  O
  O251     1.0000 0.04485  0.30117  0.34183  Biso   1.000  O
  H2191    1.0000 0.04810  0.31960  0.34740  Biso   1.000  H
  O252     1.0000 0.04289  0.31103  0.29078  Biso   1.000  O
  H2192    1.0000 0.98330  0.06670  0.38110  Biso   1.000  H
  H2193    1.0000 0.01630  0.08170  0.38430  Biso   1.000  H
  C1884    1.0000 0.98950  0.08960  0.42240  Biso   1.000  C
  C1885    1.0000 0.97880  0.07010  0.44440  Biso   1.000  C
  H2194    1.0000 0.97250  0.04960  0.44050  Biso   1.000  H
  C1886    1.0000 0.97830  0.08520  0.47600  Biso   1.000  C
  H2195    1.0000 0.97140  0.07520  0.49420  Biso   1.000  H
  C1887    1.0000 0.98890  0.11470  0.47540  Biso   1.000  C
  H2196    1.0000 0.99050  0.12770  0.49280  Biso   1.000  H
  S126     1.0000 0.99897  0.12523  0.43822  Biso   1.000  S
  H2197    1.0000 0.10260  0.16090  0.29200  Biso   1.000  H
  H2198    1.0000 0.12220  0.16990  0.32130  Biso   1.000  H
  C1888    1.0000 0.13470  0.12670  0.30140  Biso   1.000  C
  H2199    1.0000 0.14160  0.11520  0.31980  Biso   1.000  H
  H2200    1.0000 0.12450  0.11210  0.28730  Biso   1.000  H
  C1889    1.0000 0.16340  0.14230  0.28480  Biso   1.000  C
  H2201    1.0000 0.17340  0.15700  0.29910  Biso   1.000  H
  H2202    1.0000 0.15630  0.15400  0.26660  Biso   1.000  H
  C1890    1.0000 0.18730  0.11740  0.27450  Biso   1.000  C
  H2203    1.0000 0.20480  0.12740  0.26430  Biso   1.000  H
  H2204    1.0000 0.17750  0.10300  0.26010  Biso   1.000  H
  H2205    1.0000 0.19470  0.10610  0.29260  Biso   1.000  H
  C1891    1.0000 0.44991  0.61829  0.86480  Biso   1.000  C
  C1892    1.0000 0.48421  0.61206  0.86715  Biso   1.000  C
  C1893    1.0000 0.49428  0.58527  0.88770  Biso   1.000  C
  H2206    1.0000 0.48030  0.56780  0.88490  Biso   1.000  H
  H2207    1.0000 0.51510  0.57880  0.88190  Biso   1.000  H
  C1894    1.0000 0.49380  0.59560  0.92172  Biso   1.000  C
  C1895    1.0000 0.49930  0.62410  0.93350  Biso   1.000  C
  H2208    1.0000 0.50430  0.64150  0.92120  Biso   1.000  H
  C1896    1.0000 0.49670  0.62500  0.96830  Biso   1.000  C
  H2209    1.0000 0.49980  0.64290  0.98040  Biso   1.000  H
  C1897    1.0000 0.48930  0.59720  0.98020  Biso   1.000  C
  H2210    1.0000 0.48650  0.59330  0.00150  Biso   1.000  H
  S127     1.0000 0.48540  0.56945  0.95123  Biso   1.000  S
  C1898    1.0000 0.50348  0.63018  0.85007  Biso   1.000  C
  H2211    1.0000 0.49380  0.64460  0.83680  Biso   1.000  H
  C1899    1.0000 0.53736  0.63016  0.84969  Biso   1.000  C
  C1900    1.0000 0.55945  0.62371  0.87212  Biso   1.000  C
  H2212    1.0000 0.55510  0.61550  0.89190  Biso   1.000  H
  C1901    1.0000 0.58540  0.64246  0.83201  Biso   1.000  C
  C1902    1.0000 0.54170  0.65760  0.79624  Biso   1.000  C
  C1903    1.0000 0.54071  0.69283  0.80104  Biso   1.000  C
  C1904    1.0000 0.54111  0.70626  0.83087  Biso   1.000  C
  H2213    1.0000 0.54120  0.69330  0.84850  Biso   1.000  H
  C1905    1.0000 0.54139  0.73830  0.83461  Biso   1.000  C
  H2214    1.0000 0.54170  0.74690  0.85470  Biso   1.000  H
  C1906    1.0000 0.54117  0.75784  0.80872  Biso   1.000  C
  C1907    1.0000 0.53988  0.74464  0.77899  Biso   1.000  C
  H2215    1.0000 0.53890  0.75760  0.76140  Biso   1.000  H
  C1908    1.0000 0.54004  0.71268  0.77529  Biso   1.000  C
  H2216    1.0000 0.53970  0.70420  0.75520  Biso   1.000  H
  C1909    1.0000 0.54316  0.79225  0.81265  Biso   1.000  C
  C1910    1.0000 0.61148  0.65282  0.81112  Biso   1.000  C
  H2217    1.0000 0.60480  0.67090  0.79930  Biso   1.000  H
  H2218    1.0000 0.62910  0.65890  0.82380  Biso   1.000  H
  C1911    1.0000 0.62100  0.62630  0.78800  Biso   1.000  C
  H2219    1.0000 0.62730  0.60770  0.79960  Biso   1.000  H
  H2220    1.0000 0.60330  0.62080  0.77470  Biso   1.000  H
  C1912    1.0000 0.64870  0.63830  0.76760  Biso   1.000  C
  H2221    1.0000 0.64360  0.65890  0.75930  Biso   1.000  H
  H2222    1.0000 0.65170  0.62420  0.74990  Biso   1.000  H
  C1913    1.0000 0.67940  0.64030  0.78640  Biso   1.000  C
  H2223    1.0000 0.69600  0.64770  0.77310  Biso   1.000  H
  H2224    1.0000 0.68470  0.61980  0.79430  Biso   1.000  H
  H2225    1.0000 0.67670  0.65450  0.80370  Biso   1.000  H
  N127     1.0000 0.58910  0.63112  0.86119  Biso   1.000  N
  N128     1.0000 0.55469  0.64206  0.82414  Biso   1.000  N
  O253     1.0000 0.43060  0.59916  0.87671  Biso   1.000  O
  O254     1.0000 0.43945  0.64259  0.85118  Biso   1.000  O
  O255     1.0000 0.54485  0.80117  0.84183  Biso   1.000  O
  H2226    1.0000 0.54810  0.81960  0.84740  Biso   1.000  H
  O256     1.0000 0.54289  0.81103  0.79078  Biso   1.000  O
  H2227    1.0000 0.48330  0.56670  0.88110  Biso   1.000  H
  H2228    1.0000 0.51630  0.58170  0.88430  Biso   1.000  H
  C1914    1.0000 0.48950  0.58960  0.92240  Biso   1.000  C
  C1915    1.0000 0.47880  0.57010  0.94440  Biso   1.000  C
  H2229    1.0000 0.47250  0.54960  0.94050  Biso   1.000  H
  C1916    1.0000 0.47830  0.58520  0.97600  Biso   1.000  C
  H2230    1.0000 0.47140  0.57520  0.99420  Biso   1.000  H
  C1917    1.0000 0.48890  0.61470  0.97540  Biso   1.000  C
  H2231    1.0000 0.49050  0.62770  0.99280  Biso   1.000  H
  S128     1.0000 0.49897  0.62523  0.93822  Biso   1.000  S
  H2232    1.0000 0.60260  0.66090  0.79200  Biso   1.000  H
  H2233    1.0000 0.62220  0.66990  0.82130  Biso   1.000  H
  C1918    1.0000 0.63470  0.62670  0.80140  Biso   1.000  C
  H2234    1.0000 0.64160  0.61520  0.81980  Biso   1.000  H
  H2235    1.0000 0.62450  0.61210  0.78730  Biso   1.000  H
  C1919    1.0000 0.66340  0.64230  0.78480  Biso   1.000  C
  H2236    1.0000 0.67340  0.65700  0.79910  Biso   1.000  H
  H2237    1.0000 0.65630  0.65400  0.76660  Biso   1.000  H
  C1920    1.0000 0.68730  0.61740  0.77450  Biso   1.000  C
  H2238    1.0000 0.70480  0.62740  0.76430  Biso   1.000  H
  H2239    1.0000 0.67750  0.60300  0.76010  Biso   1.000  H
  H2240    1.0000 0.69470  0.60610  0.79260  Biso   1.000  H
  C1921    1.0000 0.13520  0.05009  0.61829  Biso   1.000  C
  C1922    1.0000 0.13285  0.01579  0.61206  Biso   1.000  C
  C1923    1.0000 0.11230  0.00572  0.58527  Biso   1.000  C
  H2241    1.0000 0.11510  0.01970  0.56780  Biso   1.000  H
  H2242    1.0000 0.11810  0.98490  0.57880  Biso   1.000  H
  C1924    1.0000 0.07828  0.00620  0.59560  Biso   1.000  C
  C1925    1.0000 0.06650  0.00070  0.62410  Biso   1.000  C
  H2243    1.0000 0.07880  0.99570  0.64150  Biso   1.000  H
  C1926    1.0000 0.03170  0.00330  0.62500  Biso   1.000  C
  H2244    1.0000 0.01960  0.00020  0.64290  Biso   1.000  H
  C1927    1.0000 0.01980  0.01070  0.59720  Biso   1.000  C
  H2245    1.0000 0.99850  0.01350  0.59330  Biso   1.000  H
  S129     1.0000 0.04877  0.01460  0.56945  Biso   1.000  S
  C1928    1.0000 0.14993  0.99652  0.63018  Biso   1.000  C
  H2246    1.0000 0.16320  0.00620  0.64460  Biso   1.000  H
  C1929    1.0000 0.15031  0.96264  0.63016  Biso   1.000  C
  C1930    1.0000 0.12788  0.94055  0.62371  Biso   1.000  C
  H2247    1.0000 0.10810  0.94490  0.61550  Biso   1.000  H
  C1931    1.0000 0.16799  0.91460  0.64246  Biso   1.000  C
  C1932    1.0000 0.20376  0.95830  0.65760  Biso   1.000  C
  C1933    1.0000 0.19896  0.95929  0.69283  Biso   1.000  C
  C1934    1.0000 0.16913  0.95889  0.70626  Biso   1.000  C
  H2248    1.0000 0.15150  0.95880  0.69330  Biso   1.000  H
  C1935    1.0000 0.16539  0.95861  0.73830  Biso   1.000  C
  H2249    1.0000 0.14530  0.95830  0.74690  Biso   1.000  H
  C1936    1.0000 0.19128  0.95883  0.75784  Biso   1.000  C
  C1937    1.0000 0.22101  0.96012  0.74464  Biso   1.000  C
  H2250    1.0000 0.23860  0.96110  0.75760  Biso   1.000  H
  C1938    1.0000 0.22471  0.95996  0.71268  Biso   1.000  C
  H2251    1.0000 0.24480  0.96030  0.70420  Biso   1.000  H
  C1939    1.0000 0.18735  0.95684  0.79225  Biso   1.000  C
  C1940    1.0000 0.18888  0.88852  0.65282  Biso   1.000  C
  H2252    1.0000 0.20070  0.89520  0.67090  Biso   1.000  H
  H2253    1.0000 0.17620  0.87090  0.65890  Biso   1.000  H
  C1941    1.0000 0.21200  0.87900  0.62630  Biso   1.000  C
  H2254    1.0000 0.20040  0.87270  0.60770  Biso   1.000  H
  H2255    1.0000 0.22530  0.89670  0.62080  Biso   1.000  H
  C1942    1.0000 0.23240  0.85130  0.63830  Biso   1.000  C
  H2256    1.0000 0.24070  0.85640  0.65890  Biso   1.000  H
  H2257    1.0000 0.25010  0.84830  0.62420  Biso   1.000  H
  C1943    1.0000 0.21360  0.82060  0.64030  Biso   1.000  C
  H2258    1.0000 0.22690  0.80400  0.64770  Biso   1.000  H
  H2259    1.0000 0.20570  0.81530  0.61980  Biso   1.000  H
  H2260    1.0000 0.19630  0.82330  0.65450  Biso   1.000  H
  N129     1.0000 0.13881  0.91090  0.63112  Biso   1.000  N
  N130     1.0000 0.17586  0.94531  0.64206  Biso   1.000  N
  O257     1.0000 0.12329  0.06940  0.59916  Biso   1.000  O
  O258     1.0000 0.14882  0.06055  0.64259  Biso   1.000  O
  O259     1.0000 0.15817  0.95515  0.80117  Biso   1.000  O
  H2261    1.0000 0.15260  0.95190  0.81960  Biso   1.000  H
  O260     1.0000 0.20922  0.95711  0.81103  Biso   1.000  O
  H2262    1.0000 0.11890  0.01670  0.56670  Biso   1.000  H
  H2263    1.0000 0.11570  0.98370  0.58170  Biso   1.000  H
  C1944    1.0000 0.07760  0.01050  0.58960  Biso   1.000  C
  C1945    1.0000 0.05560  0.02120  0.57010  Biso   1.000  C
  H2264    1.0000 0.05950  0.02750  0.54960  Biso   1.000  H
  C1946    1.0000 0.02400  0.02170  0.58520  Biso   1.000  C
  H2265    1.0000 0.00580  0.02860  0.57520  Biso   1.000  H
  C1947    1.0000 0.02460  0.01110  0.61470  Biso   1.000  C
  H2266    1.0000 0.00720  0.00950  0.62770  Biso   1.000  H
  S130     1.0000 0.06178  0.00103  0.62523  Biso   1.000  S
  H2267    1.0000 0.20800  0.89740  0.66090  Biso   1.000  H
  H2268    1.0000 0.17870  0.87780  0.66990  Biso   1.000  H
  C1948    1.0000 0.19860  0.86530  0.62670  Biso   1.000  C
  H2269    1.0000 0.18020  0.85840  0.61520  Biso   1.000  H
  H2270    1.0000 0.21270  0.87550  0.61210  Biso   1.000  H
  C1949    1.0000 0.21520  0.83660  0.64230  Biso   1.000  C
  H2271    1.0000 0.20090  0.82660  0.65700  Biso   1.000  H
  H2272    1.0000 0.23340  0.84370  0.65400  Biso   1.000  H
  C1950    1.0000 0.22550  0.81270  0.61740  Biso   1.000  C
  H2273    1.0000 0.23570  0.79520  0.62740  Biso   1.000  H
  H2274    1.0000 0.23990  0.82250  0.60300  Biso   1.000  H
  H2275    1.0000 0.20740  0.80530  0.60610  Biso   1.000  H
  C1951    1.0000 0.63520  0.55009  0.11829  Biso   1.000  C
  C1952    1.0000 0.63285  0.51579  0.11206  Biso   1.000  C
  C1953    1.0000 0.61230  0.50572  0.08527  Biso   1.000  C
  H2276    1.0000 0.61510  0.51970  0.06780  Biso   1.000  H
  H2277    1.0000 0.61810  0.48490  0.07880  Biso   1.000  H
  C1954    1.0000 0.57828  0.50620  0.09560  Biso   1.000  C
  C1955    1.0000 0.56650  0.50070  0.12410  Biso   1.000  C
  H2278    1.0000 0.57880  0.49570  0.14150  Biso   1.000  H
  C1956    1.0000 0.53170  0.50330  0.12500  Biso   1.000  C
  H2279    1.0000 0.51960  0.50020  0.14290  Biso   1.000  H
  C1957    1.0000 0.51980  0.51070  0.09720  Biso   1.000  C
  H2280    1.0000 0.49850  0.51350  0.09330  Biso   1.000  H
  S131     1.0000 0.54877  0.51460  0.06945  Biso   1.000  S
  C1958    1.0000 0.64993  0.49652  0.13018  Biso   1.000  C
  H2281    1.0000 0.66320  0.50620  0.14460  Biso   1.000  H
  C1959    1.0000 0.65031  0.46264  0.13016  Biso   1.000  C
  C1960    1.0000 0.62788  0.44055  0.12371  Biso   1.000  C
  H2282    1.0000 0.60810  0.44490  0.11550  Biso   1.000  H
  C1961    1.0000 0.66799  0.41460  0.14246  Biso   1.000  C
  C1962    1.0000 0.70376  0.45830  0.15760  Biso   1.000  C
  C1963    1.0000 0.69896  0.45929  0.19283  Biso   1.000  C
  C1964    1.0000 0.66913  0.45889  0.20626  Biso   1.000  C
  H2283    1.0000 0.65150  0.45880  0.19330  Biso   1.000  H
  C1965    1.0000 0.66539  0.45861  0.23830  Biso   1.000  C
  H2284    1.0000 0.64530  0.45830  0.24690  Biso   1.000  H
  C1966    1.0000 0.69128  0.45883  0.25784  Biso   1.000  C
  C1967    1.0000 0.72101  0.46012  0.24464  Biso   1.000  C
  H2285    1.0000 0.73860  0.46110  0.25760  Biso   1.000  H
  C1968    1.0000 0.72471  0.45996  0.21268  Biso   1.000  C
  H2286    1.0000 0.74480  0.46030  0.20420  Biso   1.000  H
  C1969    1.0000 0.68735  0.45684  0.29225  Biso   1.000  C
  C1970    1.0000 0.68888  0.38852  0.15282  Biso   1.000  C
  H2287    1.0000 0.70070  0.39520  0.17090  Biso   1.000  H
  H2288    1.0000 0.67620  0.37090  0.15890  Biso   1.000  H
  C1971    1.0000 0.71200  0.37900  0.12630  Biso   1.000  C
  H2289    1.0000 0.70040  0.37270  0.10770  Biso   1.000  H
  H2290    1.0000 0.72530  0.39670  0.12080  Biso   1.000  H
  C1972    1.0000 0.73240  0.35130  0.13830  Biso   1.000  C
  H2291    1.0000 0.74070  0.35640  0.15890  Biso   1.000  H
  H2292    1.0000 0.75010  0.34830  0.12420  Biso   1.000  H
  C1973    1.0000 0.71360  0.32060  0.14030  Biso   1.000  C
  H2293    1.0000 0.72690  0.30400  0.14770  Biso   1.000  H
  H2294    1.0000 0.70570  0.31530  0.11980  Biso   1.000  H
  H2295    1.0000 0.69630  0.32330  0.15450  Biso   1.000  H
  N131     1.0000 0.63881  0.41090  0.13112  Biso   1.000  N
  N132     1.0000 0.67586  0.44531  0.14206  Biso   1.000  N
  O261     1.0000 0.62329  0.56940  0.09916  Biso   1.000  O
  O262     1.0000 0.64882  0.56055  0.14259  Biso   1.000  O
  O263     1.0000 0.65817  0.45515  0.30117  Biso   1.000  O
  H2296    1.0000 0.65260  0.45190  0.31960  Biso   1.000  H
  O264     1.0000 0.70922  0.45711  0.31103  Biso   1.000  O
  H2297    1.0000 0.61890  0.51670  0.06670  Biso   1.000  H
  H2298    1.0000 0.61570  0.48370  0.08170  Biso   1.000  H
  C1974    1.0000 0.57760  0.51050  0.08960  Biso   1.000  C
  C1975    1.0000 0.55560  0.52120  0.07010  Biso   1.000  C
  H2299    1.0000 0.55950  0.52750  0.04960  Biso   1.000  H
  C1976    1.0000 0.52400  0.52170  0.08520  Biso   1.000  C
  H2300    1.0000 0.50580  0.52860  0.07520  Biso   1.000  H
  C1977    1.0000 0.52460  0.51110  0.11470  Biso   1.000  C
  H2301    1.0000 0.50720  0.50950  0.12770  Biso   1.000  H
  S132     1.0000 0.56178  0.50103  0.12523  Biso   1.000  S
  H2302    1.0000 0.70800  0.39740  0.16090  Biso   1.000  H
  H2303    1.0000 0.67870  0.37780  0.16990  Biso   1.000  H
  C1978    1.0000 0.69860  0.36530  0.12670  Biso   1.000  C
  H2304    1.0000 0.68020  0.35840  0.11520  Biso   1.000  H
  H2305    1.0000 0.71270  0.37550  0.11210  Biso   1.000  H
  C1979    1.0000 0.71520  0.33660  0.14230  Biso   1.000  C
  H2306    1.0000 0.70090  0.32660  0.15700  Biso   1.000  H
  H2307    1.0000 0.73340  0.34370  0.15400  Biso   1.000  H
  C1980    1.0000 0.72550  0.31270  0.11740  Biso   1.000  C
  H2308    1.0000 0.73570  0.29520  0.12740  Biso   1.000  H
  H2309    1.0000 0.73990  0.32250  0.10300  Biso   1.000  H
  H2310    1.0000 0.70740  0.30530  0.10610  Biso   1.000  H
  C1981    1.0000 0.86480  0.55009  0.88171  Biso   1.000  C
  C1982    1.0000 0.86715  0.51579  0.88794  Biso   1.000  C
  C1983    1.0000 0.88770  0.50572  0.91473  Biso   1.000  C
  H2311    1.0000 0.88490  0.51970  0.93220  Biso   1.000  H
  H2312    1.0000 0.88190  0.48490  0.92120  Biso   1.000  H
  C1984    1.0000 0.92172  0.50620  0.90440  Biso   1.000  C
  C1985    1.0000 0.93350  0.50070  0.87590  Biso   1.000  C
  H2313    1.0000 0.92120  0.49570  0.85850  Biso   1.000  H
  C1986    1.0000 0.96830  0.50330  0.87500  Biso   1.000  C
  H2314    1.0000 0.98040  0.50020  0.85710  Biso   1.000  H
  C1987    1.0000 0.98020  0.51070  0.90280  Biso   1.000  C
  H2315    1.0000 0.00150  0.51350  0.90670  Biso   1.000  H
  S133     1.0000 0.95123  0.51460  0.93055  Biso   1.000  S
  C1988    1.0000 0.85007  0.49652  0.86982  Biso   1.000  C
  H2316    1.0000 0.83680  0.50620  0.85540  Biso   1.000  H
  C1989    1.0000 0.84969  0.46264  0.86984  Biso   1.000  C
  C1990    1.0000 0.87212  0.44055  0.87629  Biso   1.000  C
  H2317    1.0000 0.89190  0.44490  0.88450  Biso   1.000  H
  C1991    1.0000 0.83201  0.41460  0.85754  Biso   1.000  C
  C1992    1.0000 0.79624  0.45830  0.84240  Biso   1.000  C
  C1993    1.0000 0.80104  0.45929  0.80717  Biso   1.000  C
  C1994    1.0000 0.83087  0.45889  0.79374  Biso   1.000  C
  H2318    1.0000 0.84850  0.45880  0.80670  Biso   1.000  H
  C1995    1.0000 0.83461  0.45861  0.76170  Biso   1.000  C
  H2319    1.0000 0.85470  0.45830  0.75310  Biso   1.000  H
  C1996    1.0000 0.80872  0.45883  0.74216  Biso   1.000  C
  C1997    1.0000 0.77899  0.46012  0.75536  Biso   1.000  C
  H2320    1.0000 0.76140  0.46110  0.74240  Biso   1.000  H
  C1998    1.0000 0.77529  0.45996  0.78732  Biso   1.000  C
  H2321    1.0000 0.75520  0.46030  0.79580  Biso   1.000  H
  C1999    1.0000 0.81265  0.45684  0.70775  Biso   1.000  C
  C2000    1.0000 0.81112  0.38852  0.84718  Biso   1.000  C
  H2322    1.0000 0.79930  0.39520  0.82910  Biso   1.000  H
  H2323    1.0000 0.82380  0.37090  0.84110  Biso   1.000  H
  C2001    1.0000 0.78800  0.37900  0.87370  Biso   1.000  C
  H2324    1.0000 0.79960  0.37270  0.89230  Biso   1.000  H
  H2325    1.0000 0.77470  0.39670  0.87920  Biso   1.000  H
  C2002    1.0000 0.76760  0.35130  0.86170  Biso   1.000  C
  H2326    1.0000 0.75930  0.35640  0.84110  Biso   1.000  H
  H2327    1.0000 0.74990  0.34830  0.87580  Biso   1.000  H
  C2003    1.0000 0.78640  0.32060  0.85970  Biso   1.000  C
  H2328    1.0000 0.77310  0.30400  0.85230  Biso   1.000  H
  H2329    1.0000 0.79430  0.31530  0.88020  Biso   1.000  H
  H2330    1.0000 0.80370  0.32330  0.84550  Biso   1.000  H
  N133     1.0000 0.86119  0.41090  0.86888  Biso   1.000  N
  N134     1.0000 0.82414  0.44531  0.85794  Biso   1.000  N
  O265     1.0000 0.87671  0.56940  0.90084  Biso   1.000  O
  O266     1.0000 0.85118  0.56055  0.85741  Biso   1.000  O
  O267     1.0000 0.84183  0.45515  0.69883  Biso   1.000  O
  H2331    1.0000 0.84740  0.45190  0.68040  Biso   1.000  H
  O268     1.0000 0.79078  0.45711  0.68897  Biso   1.000  O
  H2332    1.0000 0.88110  0.51670  0.93330  Biso   1.000  H
  H2333    1.0000 0.88430  0.48370  0.91830  Biso   1.000  H
  C2004    1.0000 0.92240  0.51050  0.91040  Biso   1.000  C
  C2005    1.0000 0.94440  0.52120  0.92990  Biso   1.000  C
  H2334    1.0000 0.94050  0.52750  0.95040  Biso   1.000  H
  C2006    1.0000 0.97600  0.52170  0.91480  Biso   1.000  C
  H2335    1.0000 0.99420  0.52860  0.92480  Biso   1.000  H
  C2007    1.0000 0.97540  0.51110  0.88530  Biso   1.000  C
  H2336    1.0000 0.99280  0.50950  0.87230  Biso   1.000  H
  S134     1.0000 0.93822  0.50103  0.87477  Biso   1.000  S
  H2337    1.0000 0.79200  0.39740  0.83910  Biso   1.000  H
  H2338    1.0000 0.82130  0.37780  0.83010  Biso   1.000  H
  C2008    1.0000 0.80140  0.36530  0.87330  Biso   1.000  C
  H2339    1.0000 0.81980  0.35840  0.88480  Biso   1.000  H
  H2340    1.0000 0.78730  0.37550  0.88790  Biso   1.000  H
  C2009    1.0000 0.78480  0.33660  0.85770  Biso   1.000  C
  H2341    1.0000 0.79910  0.32660  0.84300  Biso   1.000  H
  H2342    1.0000 0.76660  0.34370  0.84600  Biso   1.000  H
  C2010    1.0000 0.77450  0.31270  0.88260  Biso   1.000  C
  H2343    1.0000 0.76430  0.29520  0.87260  Biso   1.000  H
  H2344    1.0000 0.76010  0.32250  0.89700  Biso   1.000  H
  H2345    1.0000 0.79260  0.30530  0.89390  Biso   1.000  H
  C2011    1.0000 0.36480  0.05009  0.38171  Biso   1.000  C
  C2012    1.0000 0.36715  0.01579  0.38794  Biso   1.000  C
  C2013    1.0000 0.38770  0.00572  0.41473  Biso   1.000  C
  H2346    1.0000 0.38490  0.01970  0.43220  Biso   1.000  H
  H2347    1.0000 0.38190  0.98490  0.42120  Biso   1.000  H
  C2014    1.0000 0.42172  0.00620  0.40440  Biso   1.000  C
  C2015    1.0000 0.43350  0.00070  0.37590  Biso   1.000  C
  H2348    1.0000 0.42120  0.99570  0.35850  Biso   1.000  H
  C2016    1.0000 0.46830  0.00330  0.37500  Biso   1.000  C
  H2349    1.0000 0.48040  0.00020  0.35710  Biso   1.000  H
  C2017    1.0000 0.48020  0.01070  0.40280  Biso   1.000  C
  H2350    1.0000 0.50150  0.01350  0.40670  Biso   1.000  H
  S135     1.0000 0.45123  0.01460  0.43055  Biso   1.000  S
  C2018    1.0000 0.35007  0.99652  0.36982  Biso   1.000  C
  H2351    1.0000 0.33680  0.00620  0.35540  Biso   1.000  H
  C2019    1.0000 0.34969  0.96264  0.36984  Biso   1.000  C
  C2020    1.0000 0.37212  0.94055  0.37629  Biso   1.000  C
  H2352    1.0000 0.39190  0.94490  0.38450  Biso   1.000  H
  C2021    1.0000 0.33201  0.91460  0.35754  Biso   1.000  C
  C2022    1.0000 0.29624  0.95830  0.34240  Biso   1.000  C
  C2023    1.0000 0.30104  0.95929  0.30717  Biso   1.000  C
  C2024    1.0000 0.33087  0.95889  0.29374  Biso   1.000  C
  H2353    1.0000 0.34850  0.95880  0.30670  Biso   1.000  H
  C2025    1.0000 0.33461  0.95861  0.26170  Biso   1.000  C
  H2354    1.0000 0.35470  0.95830  0.25310  Biso   1.000  H
  C2026    1.0000 0.30872  0.95883  0.24216  Biso   1.000  C
  C2027    1.0000 0.27899  0.96012  0.25536  Biso   1.000  C
  H2355    1.0000 0.26140  0.96110  0.24240  Biso   1.000  H
  C2028    1.0000 0.27529  0.95996  0.28732  Biso   1.000  C
  H2356    1.0000 0.25520  0.96030  0.29580  Biso   1.000  H
  C2029    1.0000 0.31265  0.95684  0.20775  Biso   1.000  C
  C2030    1.0000 0.31112  0.88852  0.34718  Biso   1.000  C
  H2357    1.0000 0.29930  0.89520  0.32910  Biso   1.000  H
  H2358    1.0000 0.32380  0.87090  0.34110  Biso   1.000  H
  C2031    1.0000 0.28800  0.87900  0.37370  Biso   1.000  C
  H2359    1.0000 0.29960  0.87270  0.39230  Biso   1.000  H
  H2360    1.0000 0.27470  0.89670  0.37920  Biso   1.000  H
  C2032    1.0000 0.26760  0.85130  0.36170  Biso   1.000  C
  H2361    1.0000 0.25930  0.85640  0.34110  Biso   1.000  H
  H2362    1.0000 0.24990  0.84830  0.37580  Biso   1.000  H
  C2033    1.0000 0.28640  0.82060  0.35970  Biso   1.000  C
  H2363    1.0000 0.27310  0.80400  0.35230  Biso   1.000  H
  H2364    1.0000 0.29430  0.81530  0.38020  Biso   1.000  H
  H2365    1.0000 0.30370  0.82330  0.34550  Biso   1.000  H
  N135     1.0000 0.36119  0.91090  0.36888  Biso   1.000  N
  N136     1.0000 0.32414  0.94531  0.35794  Biso   1.000  N
  O269     1.0000 0.37671  0.06940  0.40084  Biso   1.000  O
  O270     1.0000 0.35118  0.06055  0.35741  Biso   1.000  O
  O271     1.0000 0.34183  0.95515  0.19883  Biso   1.000  O
  H2366    1.0000 0.34740  0.95190  0.18040  Biso   1.000  H
  O272     1.0000 0.29078  0.95711  0.18897  Biso   1.000  O
  H2367    1.0000 0.38110  0.01670  0.43330  Biso   1.000  H
  H2368    1.0000 0.38430  0.98370  0.41830  Biso   1.000  H
  C2034    1.0000 0.42240  0.01050  0.41040  Biso   1.000  C
  C2035    1.0000 0.44440  0.02120  0.42990  Biso   1.000  C
  H2369    1.0000 0.44050  0.02750  0.45040  Biso   1.000  H
  C2036    1.0000 0.47600  0.02170  0.41480  Biso   1.000  C
  H2370    1.0000 0.49420  0.02860  0.42480  Biso   1.000  H
  C2037    1.0000 0.47540  0.01110  0.38530  Biso   1.000  C
  H2371    1.0000 0.49280  0.00950  0.37230  Biso   1.000  H
  S136     1.0000 0.43822  0.00103  0.37477  Biso   1.000  S
  H2372    1.0000 0.29200  0.89740  0.33910  Biso   1.000  H
  H2373    1.0000 0.32130  0.87780  0.33010  Biso   1.000  H
  C2038    1.0000 0.30140  0.86530  0.37330  Biso   1.000  C
  H2374    1.0000 0.31980  0.85840  0.38480  Biso   1.000  H
  H2375    1.0000 0.28730  0.87550  0.38790  Biso   1.000  H
  C2039    1.0000 0.28480  0.83660  0.35770  Biso   1.000  C
  H2376    1.0000 0.29910  0.82660  0.34300  Biso   1.000  H
  H2377    1.0000 0.26660  0.84370  0.34600  Biso   1.000  H
  C2040    1.0000 0.27450  0.81270  0.38260  Biso   1.000  C
  H2378    1.0000 0.26430  0.79520  0.37260  Biso   1.000  H
  H2379    1.0000 0.26010  0.82250  0.39700  Biso   1.000  H
  H2380    1.0000 0.29260  0.80530  0.39390  Biso   1.000  H
  C2041    1.0000 0.63520  0.44991  0.38171  Biso   1.000  C
  C2042    1.0000 0.63285  0.48421  0.38794  Biso   1.000  C
  C2043    1.0000 0.61230  0.49428  0.41473  Biso   1.000  C
  H2381    1.0000 0.61510  0.48030  0.43220  Biso   1.000  H
  H2382    1.0000 0.61810  0.51510  0.42120  Biso   1.000  H
  C2044    1.0000 0.57828  0.49380  0.40440  Biso   1.000  C
  C2045    1.0000 0.56650  0.49930  0.37590  Biso   1.000  C
  H2383    1.0000 0.57880  0.50430  0.35850  Biso   1.000  H
  C2046    1.0000 0.53170  0.49670  0.37500  Biso   1.000  C
  H2384    1.0000 0.51960  0.49980  0.35710  Biso   1.000  H
  C2047    1.0000 0.51980  0.48930  0.40280  Biso   1.000  C
  H2385    1.0000 0.49850  0.48650  0.40670  Biso   1.000  H
  S137     1.0000 0.54877  0.48540  0.43055  Biso   1.000  S
  C2048    1.0000 0.64993  0.50348  0.36982  Biso   1.000  C
  H2386    1.0000 0.66320  0.49380  0.35540  Biso   1.000  H
  C2049    1.0000 0.65031  0.53736  0.36984  Biso   1.000  C
  C2050    1.0000 0.62788  0.55945  0.37629  Biso   1.000  C
  H2387    1.0000 0.60810  0.55510  0.38450  Biso   1.000  H
  C2051    1.0000 0.66799  0.58540  0.35754  Biso   1.000  C
  C2052    1.0000 0.70376  0.54170  0.34240  Biso   1.000  C
  C2053    1.0000 0.69896  0.54071  0.30717  Biso   1.000  C
  C2054    1.0000 0.66913  0.54111  0.29374  Biso   1.000  C
  H2388    1.0000 0.65150  0.54120  0.30670  Biso   1.000  H
  C2055    1.0000 0.66539  0.54139  0.26170  Biso   1.000  C
  H2389    1.0000 0.64530  0.54170  0.25310  Biso   1.000  H
  C2056    1.0000 0.69128  0.54117  0.24216  Biso   1.000  C
  C2057    1.0000 0.72101  0.53988  0.25536  Biso   1.000  C
  H2390    1.0000 0.73860  0.53890  0.24240  Biso   1.000  H
  C2058    1.0000 0.72471  0.54004  0.28732  Biso   1.000  C
  H2391    1.0000 0.74480  0.53970  0.29580  Biso   1.000  H
  C2059    1.0000 0.68735  0.54316  0.20775  Biso   1.000  C
  C2060    1.0000 0.68888  0.61148  0.34718  Biso   1.000  C
  H2392    1.0000 0.70070  0.60480  0.32910  Biso   1.000  H
  H2393    1.0000 0.67620  0.62910  0.34110  Biso   1.000  H
  C2061    1.0000 0.71200  0.62100  0.37370  Biso   1.000  C
  H2394    1.0000 0.70040  0.62730  0.39230  Biso   1.000  H
  H2395    1.0000 0.72530  0.60330  0.37920  Biso   1.000  H
  C2062    1.0000 0.73240  0.64870  0.36170  Biso   1.000  C
  H2396    1.0000 0.74070  0.64360  0.34110  Biso   1.000  H
  H2397    1.0000 0.75010  0.65170  0.37580  Biso   1.000  H
  C2063    1.0000 0.71360  0.67940  0.35970  Biso   1.000  C
  H2398    1.0000 0.72690  0.69600  0.35230  Biso   1.000  H
  H2399    1.0000 0.70570  0.68470  0.38020  Biso   1.000  H
  H2400    1.0000 0.69630  0.67670  0.34550  Biso   1.000  H
  N137     1.0000 0.63881  0.58910  0.36888  Biso   1.000  N
  N138     1.0000 0.67586  0.55469  0.35794  Biso   1.000  N
  O273     1.0000 0.62329  0.43060  0.40084  Biso   1.000  O
  O274     1.0000 0.64882  0.43945  0.35741  Biso   1.000  O
  O275     1.0000 0.65817  0.54485  0.19883  Biso   1.000  O
  H2401    1.0000 0.65260  0.54810  0.18040  Biso   1.000  H
  O276     1.0000 0.70922  0.54289  0.18897  Biso   1.000  O
  H2402    1.0000 0.61890  0.48330  0.43330  Biso   1.000  H
  H2403    1.0000 0.61570  0.51630  0.41830  Biso   1.000  H
  C2064    1.0000 0.57760  0.48950  0.41040  Biso   1.000  C
  C2065    1.0000 0.55560  0.47880  0.42990  Biso   1.000  C
  H2404    1.0000 0.55950  0.47250  0.45040  Biso   1.000  H
  C2066    1.0000 0.52400  0.47830  0.41480  Biso   1.000  C
  H2405    1.0000 0.50580  0.47140  0.42480  Biso   1.000  H
  C2067    1.0000 0.52460  0.48890  0.38530  Biso   1.000  C
  H2406    1.0000 0.50720  0.49050  0.37230  Biso   1.000  H
  S138     1.0000 0.56178  0.49897  0.37477  Biso   1.000  S
  H2407    1.0000 0.70800  0.60260  0.33910  Biso   1.000  H
  H2408    1.0000 0.67870  0.62220  0.33010  Biso   1.000  H
  C2068    1.0000 0.69860  0.63470  0.37330  Biso   1.000  C
  H2409    1.0000 0.68020  0.64160  0.38480  Biso   1.000  H
  H2410    1.0000 0.71270  0.62450  0.38790  Biso   1.000  H
  C2069    1.0000 0.71520  0.66340  0.35770  Biso   1.000  C
  H2411    1.0000 0.70090  0.67340  0.34300  Biso   1.000  H
  H2412    1.0000 0.73340  0.65630  0.34600  Biso   1.000  H
  C2070    1.0000 0.72550  0.68730  0.38260  Biso   1.000  C
  H2413    1.0000 0.73570  0.70480  0.37260  Biso   1.000  H
  H2414    1.0000 0.73990  0.67750  0.39700  Biso   1.000  H
  H2415    1.0000 0.70740  0.69470  0.39390  Biso   1.000  H
  C2071    1.0000 0.13520  0.94991  0.88171  Biso   1.000  C
  C2072    1.0000 0.13285  0.98421  0.88794  Biso   1.000  C
  C2073    1.0000 0.11230  0.99428  0.91473  Biso   1.000  C
  H2416    1.0000 0.11510  0.98030  0.93220  Biso   1.000  H
  H2417    1.0000 0.11810  0.01510  0.92120  Biso   1.000  H
  C2074    1.0000 0.07828  0.99380  0.90440  Biso   1.000  C
  C2075    1.0000 0.06650  0.99930  0.87590  Biso   1.000  C
  H2418    1.0000 0.07880  0.00430  0.85850  Biso   1.000  H
  C2076    1.0000 0.03170  0.99670  0.87500  Biso   1.000  C
  H2419    1.0000 0.01960  0.99980  0.85710  Biso   1.000  H
  C2077    1.0000 0.01980  0.98930  0.90280  Biso   1.000  C
  H2420    1.0000 0.99850  0.98650  0.90670  Biso   1.000  H
  S139     1.0000 0.04877  0.98540  0.93055  Biso   1.000  S
  C2078    1.0000 0.14993  0.00348  0.86982  Biso   1.000  C
  H2421    1.0000 0.16320  0.99380  0.85540  Biso   1.000  H
  C2079    1.0000 0.15031  0.03736  0.86984  Biso   1.000  C
  C2080    1.0000 0.12788  0.05945  0.87629  Biso   1.000  C
  H2422    1.0000 0.10810  0.05510  0.88450  Biso   1.000  H
  C2081    1.0000 0.16799  0.08540  0.85754  Biso   1.000  C
  C2082    1.0000 0.20376  0.04170  0.84240  Biso   1.000  C
  C2083    1.0000 0.19896  0.04071  0.80717  Biso   1.000  C
  C2084    1.0000 0.16913  0.04111  0.79374  Biso   1.000  C
  H2423    1.0000 0.15150  0.04120  0.80670  Biso   1.000  H
  C2085    1.0000 0.16539  0.04139  0.76170  Biso   1.000  C
  H2424    1.0000 0.14530  0.04170  0.75310  Biso   1.000  H
  C2086    1.0000 0.19128  0.04117  0.74216  Biso   1.000  C
  C2087    1.0000 0.22101  0.03988  0.75536  Biso   1.000  C
  H2425    1.0000 0.23860  0.03890  0.74240  Biso   1.000  H
  C2088    1.0000 0.22471  0.04004  0.78732  Biso   1.000  C
  H2426    1.0000 0.24480  0.03970  0.79580  Biso   1.000  H
  C2089    1.0000 0.18735  0.04316  0.70775  Biso   1.000  C
  C2090    1.0000 0.18888  0.11148  0.84718  Biso   1.000  C
  H2427    1.0000 0.20070  0.10480  0.82910  Biso   1.000  H
  H2428    1.0000 0.17620  0.12910  0.84110  Biso   1.000  H
  C2091    1.0000 0.21200  0.12100  0.87370  Biso   1.000  C
  H2429    1.0000 0.20040  0.12730  0.89230  Biso   1.000  H
  H2430    1.0000 0.22530  0.10330  0.87920  Biso   1.000  H
  C2092    1.0000 0.23240  0.14870  0.86170  Biso   1.000  C
  H2431    1.0000 0.24070  0.14360  0.84110  Biso   1.000  H
  H2432    1.0000 0.25010  0.15170  0.87580  Biso   1.000  H
  C2093    1.0000 0.21360  0.17940  0.85970  Biso   1.000  C
  H2433    1.0000 0.22690  0.19600  0.85230  Biso   1.000  H
  H2434    1.0000 0.20570  0.18470  0.88020  Biso   1.000  H
  H2435    1.0000 0.19630  0.17670  0.84550  Biso   1.000  H
  N139     1.0000 0.13881  0.08910  0.86888  Biso   1.000  N
  N140     1.0000 0.17586  0.05469  0.85794  Biso   1.000  N
  O277     1.0000 0.12329  0.93060  0.90084  Biso   1.000  O
  O278     1.0000 0.14882  0.93945  0.85741  Biso   1.000  O
  O279     1.0000 0.15817  0.04485  0.69883  Biso   1.000  O
  H2436    1.0000 0.15260  0.04810  0.68040  Biso   1.000  H
  O280     1.0000 0.20922  0.04289  0.68897  Biso   1.000  O
  H2437    1.0000 0.11890  0.98330  0.93330  Biso   1.000  H
  H2438    1.0000 0.11570  0.01630  0.91830  Biso   1.000  H
  C2094    1.0000 0.07760  0.98950  0.91040  Biso   1.000  C
  C2095    1.0000 0.05560  0.97880  0.92990  Biso   1.000  C
  H2439    1.0000 0.05950  0.97250  0.95040  Biso   1.000  H
  C2096    1.0000 0.02400  0.97830  0.91480  Biso   1.000  C
  H2440    1.0000 0.00580  0.97140  0.92480  Biso   1.000  H
  C2097    1.0000 0.02460  0.98890  0.88530  Biso   1.000  C
  H2441    1.0000 0.00720  0.99050  0.87230  Biso   1.000  H
  S140     1.0000 0.06178  0.99897  0.87477  Biso   1.000  S
  H2442    1.0000 0.20800  0.10260  0.83910  Biso   1.000  H
  H2443    1.0000 0.17870  0.12220  0.83010  Biso   1.000  H
  C2098    1.0000 0.19860  0.13470  0.87330  Biso   1.000  C
  H2444    1.0000 0.18020  0.14160  0.88480  Biso   1.000  H
  H2445    1.0000 0.21270  0.12450  0.88790  Biso   1.000  H
  C2099    1.0000 0.21520  0.16340  0.85770  Biso   1.000  C
  H2446    1.0000 0.20090  0.17340  0.84300  Biso   1.000  H
  H2447    1.0000 0.23340  0.15630  0.84600  Biso   1.000  H
  C2100    1.0000 0.22550  0.18730  0.88260  Biso   1.000  C
  H2448    1.0000 0.23570  0.20480  0.87260  Biso   1.000  H
  H2449    1.0000 0.23990  0.17750  0.89700  Biso   1.000  H
  H2450    1.0000 0.20740  0.19470  0.89390  Biso   1.000  H
  C2101    1.0000 0.36480  0.94991  0.11829  Biso   1.000  C
  C2102    1.0000 0.36715  0.98421  0.11206  Biso   1.000  C
  C2103    1.0000 0.38770  0.99428  0.08527  Biso   1.000  C
  H2451    1.0000 0.38490  0.98030  0.06780  Biso   1.000  H
  H2452    1.0000 0.38190  0.01510  0.07880  Biso   1.000  H
  C2104    1.0000 0.42172  0.99380  0.09560  Biso   1.000  C
  C2105    1.0000 0.43350  0.99930  0.12410  Biso   1.000  C
  H2453    1.0000 0.42120  0.00430  0.14150  Biso   1.000  H
  C2106    1.0000 0.46830  0.99670  0.12500  Biso   1.000  C
  H2454    1.0000 0.48040  0.99980  0.14290  Biso   1.000  H
  C2107    1.0000 0.48020  0.98930  0.09720  Biso   1.000  C
  H2455    1.0000 0.50150  0.98650  0.09330  Biso   1.000  H
  S141     1.0000 0.45123  0.98540  0.06945  Biso   1.000  S
  C2108    1.0000 0.35007  0.00348  0.13018  Biso   1.000  C
  H2456    1.0000 0.33680  0.99380  0.14460  Biso   1.000  H
  C2109    1.0000 0.34969  0.03736  0.13016  Biso   1.000  C
  C2110    1.0000 0.37212  0.05945  0.12371  Biso   1.000  C
  H2457    1.0000 0.39190  0.05510  0.11550  Biso   1.000  H
  C2111    1.0000 0.33201  0.08540  0.14246  Biso   1.000  C
  C2112    1.0000 0.29624  0.04170  0.15760  Biso   1.000  C
  C2113    1.0000 0.30104  0.04071  0.19283  Biso   1.000  C
  C2114    1.0000 0.33087  0.04111  0.20626  Biso   1.000  C
  H2458    1.0000 0.34850  0.04120  0.19330  Biso   1.000  H
  C2115    1.0000 0.33461  0.04139  0.23830  Biso   1.000  C
  H2459    1.0000 0.35470  0.04170  0.24690  Biso   1.000  H
  C2116    1.0000 0.30872  0.04117  0.25784  Biso   1.000  C
  C2117    1.0000 0.27899  0.03988  0.24464  Biso   1.000  C
  H2460    1.0000 0.26140  0.03890  0.25760  Biso   1.000  H
  C2118    1.0000 0.27529  0.04004  0.21268  Biso   1.000  C
  H2461    1.0000 0.25520  0.03970  0.20420  Biso   1.000  H
  C2119    1.0000 0.31265  0.04316  0.29225  Biso   1.000  C
  C2120    1.0000 0.31112  0.11148  0.15282  Biso   1.000  C
  H2462    1.0000 0.29930  0.10480  0.17090  Biso   1.000  H
  H2463    1.0000 0.32380  0.12910  0.15890  Biso   1.000  H
  C2121    1.0000 0.28800  0.12100  0.12630  Biso   1.000  C
  H2464    1.0000 0.29960  0.12730  0.10770  Biso   1.000  H
  H2465    1.0000 0.27470  0.10330  0.12080  Biso   1.000  H
  C2122    1.0000 0.26760  0.14870  0.13830  Biso   1.000  C
  H2466    1.0000 0.25930  0.14360  0.15890  Biso   1.000  H
  H2467    1.0000 0.24990  0.15170  0.12420  Biso   1.000  H
  C2123    1.0000 0.28640  0.17940  0.14030  Biso   1.000  C
  H2468    1.0000 0.27310  0.19600  0.14770  Biso   1.000  H
  H2469    1.0000 0.29430  0.18470  0.11980  Biso   1.000  H
  H2470    1.0000 0.30370  0.17670  0.15450  Biso   1.000  H
  N141     1.0000 0.36119  0.08910  0.13112  Biso   1.000  N
  N142     1.0000 0.32414  0.05469  0.14206  Biso   1.000  N
  O281     1.0000 0.37671  0.93060  0.09916  Biso   1.000  O
  O282     1.0000 0.35118  0.93945  0.14259  Biso   1.000  O
  O283     1.0000 0.34183  0.04485  0.30117  Biso   1.000  O
  H2471    1.0000 0.34740  0.04810  0.31960  Biso   1.000  H
  O284     1.0000 0.29078  0.04289  0.31103  Biso   1.000  O
  H2472    1.0000 0.38110  0.98330  0.06670  Biso   1.000  H
  H2473    1.0000 0.38430  0.01630  0.08170  Biso   1.000  H
  C2124    1.0000 0.42240  0.98950  0.08960  Biso   1.000  C
  C2125    1.0000 0.44440  0.97880  0.07010  Biso   1.000  C
  H2474    1.0000 0.44050  0.97250  0.04960  Biso   1.000  H
  C2126    1.0000 0.47600  0.97830  0.08520  Biso   1.000  C
  H2475    1.0000 0.49420  0.97140  0.07520  Biso   1.000  H
  C2127    1.0000 0.47540  0.98890  0.11470  Biso   1.000  C
  H2476    1.0000 0.49280  0.99050  0.12770  Biso   1.000  H
  S142     1.0000 0.43822  0.99897  0.12523  Biso   1.000  S
  H2477    1.0000 0.29200  0.10260  0.16090  Biso   1.000  H
  H2478    1.0000 0.32130  0.12220  0.16990  Biso   1.000  H
  C2128    1.0000 0.30140  0.13470  0.12670  Biso   1.000  C
  H2479    1.0000 0.31980  0.14160  0.11520  Biso   1.000  H
  H2480    1.0000 0.28730  0.12450  0.11210  Biso   1.000  H
  C2129    1.0000 0.28480  0.16340  0.14230  Biso   1.000  C
  H2481    1.0000 0.29910  0.17340  0.15700  Biso   1.000  H
  H2482    1.0000 0.26660  0.15630  0.15400  Biso   1.000  H
  C2130    1.0000 0.27450  0.18730  0.11740  Biso   1.000  C
  H2483    1.0000 0.26430  0.20480  0.12740  Biso   1.000  H
  H2484    1.0000 0.26010  0.17750  0.10300  Biso   1.000  H
  H2485    1.0000 0.29260  0.19470  0.10610  Biso   1.000  H
  C2131    1.0000 0.86480  0.44991  0.61829  Biso   1.000  C
  C2132    1.0000 0.86715  0.48421  0.61206  Biso   1.000  C
  C2133    1.0000 0.88770  0.49428  0.58527  Biso   1.000  C
  H2486    1.0000 0.88490  0.48030  0.56780  Biso   1.000  H
  H2487    1.0000 0.88190  0.51510  0.57880  Biso   1.000  H
  C2134    1.0000 0.92172  0.49380  0.59560  Biso   1.000  C
  C2135    1.0000 0.93350  0.49930  0.62410  Biso   1.000  C
  H2488    1.0000 0.92120  0.50430  0.64150  Biso   1.000  H
  C2136    1.0000 0.96830  0.49670  0.62500  Biso   1.000  C
  H2489    1.0000 0.98040  0.49980  0.64290  Biso   1.000  H
  C2137    1.0000 0.98020  0.48930  0.59720  Biso   1.000  C
  H2490    1.0000 0.00150  0.48650  0.59330  Biso   1.000  H
  S143     1.0000 0.95123  0.48540  0.56945  Biso   1.000  S
  C2138    1.0000 0.85007  0.50348  0.63018  Biso   1.000  C
  H2491    1.0000 0.83680  0.49380  0.64460  Biso   1.000  H
  C2139    1.0000 0.84969  0.53736  0.63016  Biso   1.000  C
  C2140    1.0000 0.87212  0.55945  0.62371  Biso   1.000  C
  H2492    1.0000 0.89190  0.55510  0.61550  Biso   1.000  H
  C2141    1.0000 0.83201  0.58540  0.64246  Biso   1.000  C
  C2142    1.0000 0.79624  0.54170  0.65760  Biso   1.000  C
  C2143    1.0000 0.80104  0.54071  0.69283  Biso   1.000  C
  C2144    1.0000 0.83087  0.54111  0.70626  Biso   1.000  C
  H2493    1.0000 0.84850  0.54120  0.69330  Biso   1.000  H
  C2145    1.0000 0.83461  0.54139  0.73830  Biso   1.000  C
  H2494    1.0000 0.85470  0.54170  0.74690  Biso   1.000  H
  C2146    1.0000 0.80872  0.54117  0.75784  Biso   1.000  C
  C2147    1.0000 0.77899  0.53988  0.74464  Biso   1.000  C
  H2495    1.0000 0.76140  0.53890  0.75760  Biso   1.000  H
  C2148    1.0000 0.77529  0.54004  0.71268  Biso   1.000  C
  H2496    1.0000 0.75520  0.53970  0.70420  Biso   1.000  H
  C2149    1.0000 0.81265  0.54316  0.79225  Biso   1.000  C
  C2150    1.0000 0.81112  0.61148  0.65282  Biso   1.000  C
  H2497    1.0000 0.79930  0.60480  0.67090  Biso   1.000  H
  H2498    1.0000 0.82380  0.62910  0.65890  Biso   1.000  H
  C2151    1.0000 0.78800  0.62100  0.62630  Biso   1.000  C
  H2499    1.0000 0.79960  0.62730  0.60770  Biso   1.000  H
  H2500    1.0000 0.77470  0.60330  0.62080  Biso   1.000  H
  C2152    1.0000 0.76760  0.64870  0.63830  Biso   1.000  C
  H2501    1.0000 0.75930  0.64360  0.65890  Biso   1.000  H
  H2502    1.0000 0.74990  0.65170  0.62420  Biso   1.000  H
  C2153    1.0000 0.78640  0.67940  0.64030  Biso   1.000  C
  H2503    1.0000 0.77310  0.69600  0.64770  Biso   1.000  H
  H2504    1.0000 0.79430  0.68470  0.61980  Biso   1.000  H
  H2505    1.0000 0.80370  0.67670  0.65450  Biso   1.000  H
  N143     1.0000 0.86119  0.58910  0.63112  Biso   1.000  N
  N144     1.0000 0.82414  0.55469  0.64206  Biso   1.000  N
  O285     1.0000 0.87671  0.43060  0.59916  Biso   1.000  O
  O286     1.0000 0.85118  0.43945  0.64259  Biso   1.000  O
  O287     1.0000 0.84183  0.54485  0.80117  Biso   1.000  O
  H2506    1.0000 0.84740  0.54810  0.81960  Biso   1.000  H
  O288     1.0000 0.79078  0.54289  0.81103  Biso   1.000  O
  H2507    1.0000 0.88110  0.48330  0.56670  Biso   1.000  H
  H2508    1.0000 0.88430  0.51630  0.58170  Biso   1.000  H
  C2154    1.0000 0.92240  0.48950  0.58960  Biso   1.000  C
  C2155    1.0000 0.94440  0.47880  0.57010  Biso   1.000  C
  H2509    1.0000 0.94050  0.47250  0.54960  Biso   1.000  H
  C2156    1.0000 0.97600  0.47830  0.58520  Biso   1.000  C
  H2510    1.0000 0.99420  0.47140  0.57520  Biso   1.000  H
  C2157    1.0000 0.97540  0.48890  0.61470  Biso   1.000  C
  H2511    1.0000 0.99280  0.49050  0.62770  Biso   1.000  H
  S144     1.0000 0.93822  0.49897  0.62523  Biso   1.000  S
  H2512    1.0000 0.79200  0.60260  0.66090  Biso   1.000  H
  H2513    1.0000 0.82130  0.62220  0.66990  Biso   1.000  H
  C2158    1.0000 0.80140  0.63470  0.62670  Biso   1.000  C
  H2514    1.0000 0.81980  0.64160  0.61520  Biso   1.000  H
  H2515    1.0000 0.78730  0.62450  0.61210  Biso   1.000  H
  C2159    1.0000 0.78480  0.66340  0.64230  Biso   1.000  C
  H2516    1.0000 0.79910  0.67340  0.65700  Biso   1.000  H
  H2517    1.0000 0.76660  0.65630  0.65400  Biso   1.000  H
  C2160    1.0000 0.77450  0.68730  0.61740  Biso   1.000  C
  H2518    1.0000 0.76430  0.70480  0.62740  Biso   1.000  H
  H2519    1.0000 0.76010  0.67750  0.60300  Biso   1.000  H
  H2520    1.0000 0.79260  0.69470  0.60610  Biso   1.000  H
  C2161    1.0000 0.38520  0.36829  0.69991  Biso   1.000  C
  C2162    1.0000 0.38285  0.36206  0.73421  Biso   1.000  C
  C2163    1.0000 0.36230  0.33527  0.74428  Biso   1.000  C
  H2521    1.0000 0.36510  0.31780  0.73030  Biso   1.000  H
  H2522    1.0000 0.36810  0.32880  0.76510  Biso   1.000  H
  C2164    1.0000 0.32828  0.34560  0.74380  Biso   1.000  C
  C2165    1.0000 0.31650  0.37410  0.74930  Biso   1.000  C
  H2523    1.0000 0.32880  0.39150  0.75430  Biso   1.000  H
  C2166    1.0000 0.28170  0.37500  0.74670  Biso   1.000  C
  H2524    1.0000 0.26960  0.39290  0.74980  Biso   1.000  H
  C2167    1.0000 0.26980  0.34720  0.73930  Biso   1.000  C
  H2525    1.0000 0.24850  0.34330  0.73650  Biso   1.000  H
  S145     1.0000 0.29877  0.31945  0.73540  Biso   1.000  S
  C2168    1.0000 0.39993  0.38018  0.75348  Biso   1.000  C
  H2526    1.0000 0.41320  0.39460  0.74380  Biso   1.000  H
  C2169    1.0000 0.40031  0.38016  0.78736  Biso   1.000  C
  C2170    1.0000 0.37788  0.37371  0.80945  Biso   1.000  C
  H2527    1.0000 0.35810  0.36550  0.80510  Biso   1.000  H
  C2171    1.0000 0.41799  0.39246  0.83540  Biso   1.000  C
  C2172    1.0000 0.45376  0.40760  0.79170  Biso   1.000  C
  C2173    1.0000 0.44896  0.44283  0.79071  Biso   1.000  C
  C2174    1.0000 0.41913  0.45626  0.79111  Biso   1.000  C
  H2528    1.0000 0.40150  0.44330  0.79120  Biso   1.000  H
  C2175    1.0000 0.41539  0.48830  0.79139  Biso   1.000  C
  H2529    1.0000 0.39530  0.49690  0.79170  Biso   1.000  H
  C2176    1.0000 0.44128  0.50784  0.79117  Biso   1.000  C
  C2177    1.0000 0.47101  0.49464  0.78988  Biso   1.000  C
  H2530    1.0000 0.48860  0.50760  0.78890  Biso   1.000  H
  C2178    1.0000 0.47471  0.46268  0.79004  Biso   1.000  C
  H2531    1.0000 0.49480  0.45420  0.78970  Biso   1.000  H
  C2179    1.0000 0.43735  0.54225  0.79316  Biso   1.000  C
  C2180    1.0000 0.43888  0.40282  0.86148  Biso   1.000  C
  H2532    1.0000 0.45070  0.42090  0.85480  Biso   1.000  H
  H2533    1.0000 0.42620  0.40890  0.87910  Biso   1.000  H
  C2181    1.0000 0.46200  0.37630  0.87100  Biso   1.000  C
  H2534    1.0000 0.45040  0.35770  0.87730  Biso   1.000  H
  H2535    1.0000 0.47530  0.37080  0.85330  Biso   1.000  H
  C2182    1.0000 0.48240  0.38830  0.89870  Biso   1.000  C
  H2536    1.0000 0.49070  0.40890  0.89360  Biso   1.000  H
  H2537    1.0000 0.50010  0.37420  0.90170  Biso   1.000  H
  C2183    1.0000 0.46360  0.39030  0.92940  Biso   1.000  C
  H2538    1.0000 0.47690  0.39770  0.94600  Biso   1.000  H
  H2539    1.0000 0.45570  0.36980  0.93470  Biso   1.000  H
  H2540    1.0000 0.44630  0.40450  0.92670  Biso   1.000  H
  N145     1.0000 0.38881  0.38112  0.83910  Biso   1.000  N
  N146     1.0000 0.42586  0.39206  0.80469  Biso   1.000  N
  O289     1.0000 0.37329  0.34916  0.68060  Biso   1.000  O
  O290     1.0000 0.39882  0.39259  0.68945  Biso   1.000  O
  O291     1.0000 0.40817  0.55117  0.79485  Biso   1.000  O
  H2541    1.0000 0.40260  0.56960  0.79810  Biso   1.000  H
  O292     1.0000 0.45922  0.56103  0.79289  Biso   1.000  O
  H2542    1.0000 0.36890  0.31670  0.73330  Biso   1.000  H
  H2543    1.0000 0.36570  0.33170  0.76630  Biso   1.000  H
  C2184    1.0000 0.32760  0.33960  0.73950  Biso   1.000  C
  C2185    1.0000 0.30560  0.32010  0.72880  Biso   1.000  C
  H2544    1.0000 0.30950  0.29960  0.72250  Biso   1.000  H
  C2186    1.0000 0.27400  0.33520  0.72830  Biso   1.000  C
  H2545    1.0000 0.25580  0.32520  0.72140  Biso   1.000  H
  C2187    1.0000 0.27460  0.36470  0.73890  Biso   1.000  C
  H2546    1.0000 0.25720  0.37770  0.74050  Biso   1.000  H
  S146     1.0000 0.31178  0.37523  0.74897  Biso   1.000  S
  H2547    1.0000 0.45800  0.41090  0.85260  Biso   1.000  H
  H2548    1.0000 0.42870  0.41990  0.87220  Biso   1.000  H
  C2188    1.0000 0.44860  0.37670  0.88470  Biso   1.000  C
  H2549    1.0000 0.43020  0.36520  0.89160  Biso   1.000  H
  H2550    1.0000 0.46270  0.36210  0.87450  Biso   1.000  H
  C2189    1.0000 0.46520  0.39230  0.91340  Biso   1.000  C
  H2551    1.0000 0.45090  0.40700  0.92340  Biso   1.000  H
  H2552    1.0000 0.48340  0.40400  0.90630  Biso   1.000  H
  C2190    1.0000 0.47550  0.36740  0.93730  Biso   1.000  C
  H2553    1.0000 0.48570  0.37740  0.95480  Biso   1.000  H
  H2554    1.0000 0.48990  0.35300  0.92750  Biso   1.000  H
  H2555    1.0000 0.45740  0.35610  0.94470  Biso   1.000  H
  C2191    1.0000 0.88520  0.86829  0.19991  Biso   1.000  C
  C2192    1.0000 0.88285  0.86206  0.23421  Biso   1.000  C
  C2193    1.0000 0.86230  0.83527  0.24428  Biso   1.000  C
  H2556    1.0000 0.86510  0.81780  0.23030  Biso   1.000  H
  H2557    1.0000 0.86810  0.82880  0.26510  Biso   1.000  H
  C2194    1.0000 0.82828  0.84560  0.24380  Biso   1.000  C
  C2195    1.0000 0.81650  0.87410  0.24930  Biso   1.000  C
  H2558    1.0000 0.82880  0.89150  0.25430  Biso   1.000  H
  C2196    1.0000 0.78170  0.87500  0.24670  Biso   1.000  C
  H2559    1.0000 0.76960  0.89290  0.24980  Biso   1.000  H
  C2197    1.0000 0.76980  0.84720  0.23930  Biso   1.000  C
  H2560    1.0000 0.74850  0.84330  0.23650  Biso   1.000  H
  S147     1.0000 0.79877  0.81945  0.23540  Biso   1.000  S
  C2198    1.0000 0.89993  0.88018  0.25348  Biso   1.000  C
  H2561    1.0000 0.91320  0.89460  0.24380  Biso   1.000  H
  C2199    1.0000 0.90031  0.88016  0.28736  Biso   1.000  C
  C2200    1.0000 0.87788  0.87371  0.30945  Biso   1.000  C
  H2562    1.0000 0.85810  0.86550  0.30510  Biso   1.000  H
  C2201    1.0000 0.91799  0.89246  0.33540  Biso   1.000  C
  C2202    1.0000 0.95376  0.90760  0.29170  Biso   1.000  C
  C2203    1.0000 0.94896  0.94283  0.29071  Biso   1.000  C
  C2204    1.0000 0.91913  0.95626  0.29111  Biso   1.000  C
  H2563    1.0000 0.90150  0.94330  0.29120  Biso   1.000  H
  C2205    1.0000 0.91539  0.98830  0.29139  Biso   1.000  C
  H2564    1.0000 0.89530  0.99690  0.29170  Biso   1.000  H
  C2206    1.0000 0.94128  0.00784  0.29117  Biso   1.000  C
  C2207    1.0000 0.97101  0.99464  0.28988  Biso   1.000  C
  H2565    1.0000 0.98860  0.00760  0.28890  Biso   1.000  H
  C2208    1.0000 0.97471  0.96268  0.29004  Biso   1.000  C
  H2566    1.0000 0.99480  0.95420  0.28970  Biso   1.000  H
  C2209    1.0000 0.93735  0.04225  0.29316  Biso   1.000  C
  C2210    1.0000 0.93888  0.90282  0.36148  Biso   1.000  C
  H2567    1.0000 0.95070  0.92090  0.35480  Biso   1.000  H
  H2568    1.0000 0.92620  0.90890  0.37910  Biso   1.000  H
  C2211    1.0000 0.96200  0.87630  0.37100  Biso   1.000  C
  H2569    1.0000 0.95040  0.85770  0.37730  Biso   1.000  H
  H2570    1.0000 0.97530  0.87080  0.35330  Biso   1.000  H
  C2212    1.0000 0.98240  0.88830  0.39870  Biso   1.000  C
  H2571    1.0000 0.99070  0.90890  0.39360  Biso   1.000  H
  H2572    1.0000 0.00010  0.87420  0.40170  Biso   1.000  H
  C2213    1.0000 0.96360  0.89030  0.42940  Biso   1.000  C
  H2573    1.0000 0.97690  0.89770  0.44600  Biso   1.000  H
  H2574    1.0000 0.95570  0.86980  0.43470  Biso   1.000  H
  H2575    1.0000 0.94630  0.90450  0.42670  Biso   1.000  H
  N147     1.0000 0.88881  0.88112  0.33910  Biso   1.000  N
  N148     1.0000 0.92586  0.89206  0.30469  Biso   1.000  N
  O293     1.0000 0.87329  0.84916  0.18060  Biso   1.000  O
  O294     1.0000 0.89882  0.89259  0.18945  Biso   1.000  O
  O295     1.0000 0.90817  0.05117  0.29485  Biso   1.000  O
  H2576    1.0000 0.90260  0.06960  0.29810  Biso   1.000  H
  O296     1.0000 0.95922  0.06103  0.29289  Biso   1.000  O
  H2577    1.0000 0.86890  0.81670  0.23330  Biso   1.000  H
  H2578    1.0000 0.86570  0.83170  0.26630  Biso   1.000  H
  C2214    1.0000 0.82760  0.83960  0.23950  Biso   1.000  C
  C2215    1.0000 0.80560  0.82010  0.22880  Biso   1.000  C
  H2579    1.0000 0.80950  0.79960  0.22250  Biso   1.000  H
  C2216    1.0000 0.77400  0.83520  0.22830  Biso   1.000  C
  H2580    1.0000 0.75580  0.82520  0.22140  Biso   1.000  H
  C2217    1.0000 0.77460  0.86470  0.23890  Biso   1.000  C
  H2581    1.0000 0.75720  0.87770  0.24050  Biso   1.000  H
  S148     1.0000 0.81178  0.87523  0.24897  Biso   1.000  S
  H2582    1.0000 0.95800  0.91090  0.35260  Biso   1.000  H
  H2583    1.0000 0.92870  0.91990  0.37220  Biso   1.000  H
  C2218    1.0000 0.94860  0.87670  0.38470  Biso   1.000  C
  H2584    1.0000 0.93020  0.86520  0.39160  Biso   1.000  H
  H2585    1.0000 0.96270  0.86210  0.37450  Biso   1.000  H
  C2219    1.0000 0.96520  0.89230  0.41340  Biso   1.000  C
  H2586    1.0000 0.95090  0.90700  0.42340  Biso   1.000  H
  H2587    1.0000 0.98340  0.90400  0.40630  Biso   1.000  H
  C2220    1.0000 0.97550  0.86740  0.43730  Biso   1.000  C
  H2588    1.0000 0.98570  0.87740  0.45480  Biso   1.000  H
  H2589    1.0000 0.98990  0.85300  0.42750  Biso   1.000  H
  H2590    1.0000 0.95740  0.85610  0.44470  Biso   1.000  H
  C2221    1.0000 0.11480  0.63171  0.19991  Biso   1.000  C
  C2222    1.0000 0.11715  0.63794  0.23421  Biso   1.000  C
  C2223    1.0000 0.13770  0.66473  0.24428  Biso   1.000  C
  H2591    1.0000 0.13490  0.68220  0.23030  Biso   1.000  H
  H2592    1.0000 0.13190  0.67120  0.26510  Biso   1.000  H
  C2224    1.0000 0.17172  0.65440  0.24380  Biso   1.000  C
  C2225    1.0000 0.18350  0.62590  0.24930  Biso   1.000  C
  H2593    1.0000 0.17120  0.60850  0.25430  Biso   1.000  H
  C2226    1.0000 0.21830  0.62500  0.24670  Biso   1.000  C
  H2594    1.0000 0.23040  0.60710  0.24980  Biso   1.000  H
  C2227    1.0000 0.23020  0.65280  0.23930  Biso   1.000  C
  H2595    1.0000 0.25150  0.65670  0.23650  Biso   1.000  H
  S149     1.0000 0.20123  0.68055  0.23540  Biso   1.000  S
  C2228    1.0000 0.10007  0.61982  0.25348  Biso   1.000  C
  H2596    1.0000 0.08680  0.60540  0.24380  Biso   1.000  H
  C2229    1.0000 0.09969  0.61984  0.28736  Biso   1.000  C
  C2230    1.0000 0.12212  0.62629  0.30945  Biso   1.000  C
  H2597    1.0000 0.14190  0.63450  0.30510  Biso   1.000  H
  C2231    1.0000 0.08201  0.60754  0.33540  Biso   1.000  C
  C2232    1.0000 0.04624  0.59240  0.29170  Biso   1.000  C
  C2233    1.0000 0.05104  0.55717  0.29071  Biso   1.000  C
  C2234    1.0000 0.08087  0.54374  0.29111  Biso   1.000  C
  H2598    1.0000 0.09850  0.55670  0.29120  Biso   1.000  H
  C2235    1.0000 0.08461  0.51170  0.29139  Biso   1.000  C
  H2599    1.0000 0.10470  0.50310  0.29170  Biso   1.000  H
  C2236    1.0000 0.05872  0.49216  0.29117  Biso   1.000  C
  C2237    1.0000 0.02899  0.50536  0.28988  Biso   1.000  C
  H2600    1.0000 0.01140  0.49240  0.28890  Biso   1.000  H
  C2238    1.0000 0.02529  0.53732  0.29004  Biso   1.000  C
  H2601    1.0000 0.00520  0.54580  0.28970  Biso   1.000  H
  C2239    1.0000 0.06265  0.45775  0.29316  Biso   1.000  C
  C2240    1.0000 0.06112  0.59718  0.36148  Biso   1.000  C
  H2602    1.0000 0.04930  0.57910  0.35480  Biso   1.000  H
  H2603    1.0000 0.07380  0.59110  0.37910  Biso   1.000  H
  C2241    1.0000 0.03800  0.62370  0.37100  Biso   1.000  C
  H2604    1.0000 0.04960  0.64230  0.37730  Biso   1.000  H
  H2605    1.0000 0.02470  0.62920  0.35330  Biso   1.000  H
  C2242    1.0000 0.01760  0.61170  0.39870  Biso   1.000  C
  H2606    1.0000 0.00930  0.59110  0.39360  Biso   1.000  H
  H2607    1.0000 0.99990  0.62580  0.40170  Biso   1.000  H
  C2243    1.0000 0.03640  0.60970  0.42940  Biso   1.000  C
  H2608    1.0000 0.02310  0.60230  0.44600  Biso   1.000  H
  H2609    1.0000 0.04430  0.63020  0.43470  Biso   1.000  H
  H2610    1.0000 0.05370  0.59550  0.42670  Biso   1.000  H
  N149     1.0000 0.11119  0.61888  0.33910  Biso   1.000  N
  N150     1.0000 0.07414  0.60794  0.30469  Biso   1.000  N
  O297     1.0000 0.12671  0.65084  0.18060  Biso   1.000  O
  O298     1.0000 0.10118  0.60741  0.18945  Biso   1.000  O
  O299     1.0000 0.09183  0.44883  0.29485  Biso   1.000  O
  H2611    1.0000 0.09740  0.43040  0.29810  Biso   1.000  H
  O300     1.0000 0.04078  0.43897  0.29289  Biso   1.000  O
  H2612    1.0000 0.13110  0.68330  0.23330  Biso   1.000  H
  H2613    1.0000 0.13430  0.66830  0.26630  Biso   1.000  H
  C2244    1.0000 0.17240  0.66040  0.23950  Biso   1.000  C
  C2245    1.0000 0.19440  0.67990  0.22880  Biso   1.000  C
  H2614    1.0000 0.19050  0.70040  0.22250  Biso   1.000  H
  C2246    1.0000 0.22600  0.66480  0.22830  Biso   1.000  C
  H2615    1.0000 0.24420  0.67480  0.22140  Biso   1.000  H
  C2247    1.0000 0.22540  0.63530  0.23890  Biso   1.000  C
  H2616    1.0000 0.24280  0.62230  0.24050  Biso   1.000  H
  S150     1.0000 0.18822  0.62477  0.24897  Biso   1.000  S
  H2617    1.0000 0.04200  0.58910  0.35260  Biso   1.000  H
  H2618    1.0000 0.07130  0.58010  0.37220  Biso   1.000  H
  C2248    1.0000 0.05140  0.62330  0.38470  Biso   1.000  C
  H2619    1.0000 0.06980  0.63480  0.39160  Biso   1.000  H
  H2620    1.0000 0.03730  0.63790  0.37450  Biso   1.000  H
  C2249    1.0000 0.03480  0.60770  0.41340  Biso   1.000  C
  H2621    1.0000 0.04910  0.59300  0.42340  Biso   1.000  H
  H2622    1.0000 0.01660  0.59600  0.40630  Biso   1.000  H
  C2250    1.0000 0.02450  0.63260  0.43730  Biso   1.000  C
  H2623    1.0000 0.01430  0.62260  0.45480  Biso   1.000  H
  H2624    1.0000 0.01010  0.64700  0.42750  Biso   1.000  H
  H2625    1.0000 0.04260  0.64390  0.44470  Biso   1.000  H
  C2251    1.0000 0.61480  0.13171  0.69991  Biso   1.000  C
  C2252    1.0000 0.61715  0.13794  0.73421  Biso   1.000  C
  C2253    1.0000 0.63770  0.16473  0.74428  Biso   1.000  C
  H2626    1.0000 0.63490  0.18220  0.73030  Biso   1.000  H
  H2627    1.0000 0.63190  0.17120  0.76510  Biso   1.000  H
  C2254    1.0000 0.67172  0.15440  0.74380  Biso   1.000  C
  C2255    1.0000 0.68350  0.12590  0.74930  Biso   1.000  C
  H2628    1.0000 0.67120  0.10850  0.75430  Biso   1.000  H
  C2256    1.0000 0.71830  0.12500  0.74670  Biso   1.000  C
  H2629    1.0000 0.73040  0.10710  0.74980  Biso   1.000  H
  C2257    1.0000 0.73020  0.15280  0.73930  Biso   1.000  C
  H2630    1.0000 0.75150  0.15670  0.73650  Biso   1.000  H
  S151     1.0000 0.70123  0.18055  0.73540  Biso   1.000  S
  C2258    1.0000 0.60007  0.11982  0.75348  Biso   1.000  C
  H2631    1.0000 0.58680  0.10540  0.74380  Biso   1.000  H
  C2259    1.0000 0.59969  0.11984  0.78736  Biso   1.000  C
  C2260    1.0000 0.62212  0.12629  0.80945  Biso   1.000  C
  H2632    1.0000 0.64190  0.13450  0.80510  Biso   1.000  H
  C2261    1.0000 0.58201  0.10754  0.83540  Biso   1.000  C
  C2262    1.0000 0.54624  0.09240  0.79170  Biso   1.000  C
  C2263    1.0000 0.55104  0.05717  0.79071  Biso   1.000  C
  C2264    1.0000 0.58087  0.04374  0.79111  Biso   1.000  C
  H2633    1.0000 0.59850  0.05670  0.79120  Biso   1.000  H
  C2265    1.0000 0.58461  0.01170  0.79139  Biso   1.000  C
  H2634    1.0000 0.60470  0.00310  0.79170  Biso   1.000  H
  C2266    1.0000 0.55872  0.99216  0.79117  Biso   1.000  C
  C2267    1.0000 0.52899  0.00536  0.78988  Biso   1.000  C
  H2635    1.0000 0.51140  0.99240  0.78890  Biso   1.000  H
  C2268    1.0000 0.52529  0.03732  0.79004  Biso   1.000  C
  H2636    1.0000 0.50520  0.04580  0.78970  Biso   1.000  H
  C2269    1.0000 0.56265  0.95775  0.79316  Biso   1.000  C
  C2270    1.0000 0.56112  0.09718  0.86148  Biso   1.000  C
  H2637    1.0000 0.54930  0.07910  0.85480  Biso   1.000  H
  H2638    1.0000 0.57380  0.09110  0.87910  Biso   1.000  H
  C2271    1.0000 0.53800  0.12370  0.87100  Biso   1.000  C
  H2639    1.0000 0.54960  0.14230  0.87730  Biso   1.000  H
  H2640    1.0000 0.52470  0.12920  0.85330  Biso   1.000  H
  C2272    1.0000 0.51760  0.11170  0.89870  Biso   1.000  C
  H2641    1.0000 0.50930  0.09110  0.89360  Biso   1.000  H
  H2642    1.0000 0.49990  0.12580  0.90170  Biso   1.000  H
  C2273    1.0000 0.53640  0.10970  0.92940  Biso   1.000  C
  H2643    1.0000 0.52310  0.10230  0.94600  Biso   1.000  H
  H2644    1.0000 0.54430  0.13020  0.93470  Biso   1.000  H
  H2645    1.0000 0.55370  0.09550  0.92670  Biso   1.000  H
  N151     1.0000 0.61119  0.11888  0.83910  Biso   1.000  N
  N152     1.0000 0.57414  0.10794  0.80469  Biso   1.000  N
  O301     1.0000 0.62671  0.15084  0.68060  Biso   1.000  O
  O302     1.0000 0.60118  0.10741  0.68945  Biso   1.000  O
  O303     1.0000 0.59183  0.94883  0.79485  Biso   1.000  O
  H2646    1.0000 0.59740  0.93040  0.79810  Biso   1.000  H
  O304     1.0000 0.54078  0.93897  0.79289  Biso   1.000  O
  H2647    1.0000 0.63110  0.18330  0.73330  Biso   1.000  H
  H2648    1.0000 0.63430  0.16830  0.76630  Biso   1.000  H
  C2274    1.0000 0.67240  0.16040  0.73950  Biso   1.000  C
  C2275    1.0000 0.69440  0.17990  0.72880  Biso   1.000  C
  H2649    1.0000 0.69050  0.20040  0.72250  Biso   1.000  H
  C2276    1.0000 0.72600  0.16480  0.72830  Biso   1.000  C
  H2650    1.0000 0.74420  0.17480  0.72140  Biso   1.000  H
  C2277    1.0000 0.72540  0.13530  0.73890  Biso   1.000  C
  H2651    1.0000 0.74280  0.12230  0.74050  Biso   1.000  H
  S152     1.0000 0.68822  0.12477  0.74897  Biso   1.000  S
  H2652    1.0000 0.54200  0.08910  0.85260  Biso   1.000  H
  H2653    1.0000 0.57130  0.08010  0.87220  Biso   1.000  H
  C2278    1.0000 0.55140  0.12330  0.88470  Biso   1.000  C
  H2654    1.0000 0.56980  0.13480  0.89160  Biso   1.000  H
  H2655    1.0000 0.53730  0.13790  0.87450  Biso   1.000  H
  C2279    1.0000 0.53480  0.10770  0.91340  Biso   1.000  C
  H2656    1.0000 0.54910  0.09300  0.92340  Biso   1.000  H
  H2657    1.0000 0.51660  0.09600  0.90630  Biso   1.000  H
  C2280    1.0000 0.52450  0.13260  0.93730  Biso   1.000  C
  H2658    1.0000 0.51430  0.12260  0.95480  Biso   1.000  H
  H2659    1.0000 0.51010  0.14700  0.92750  Biso   1.000  H
  H2660    1.0000 0.54260  0.14390  0.94470  Biso   1.000  H
  C2281    1.0000 0.88520  0.13171  0.30009  Biso   1.000  C
  C2282    1.0000 0.88285  0.13794  0.26579  Biso   1.000  C
  C2283    1.0000 0.86230  0.16473  0.25572  Biso   1.000  C
  H2661    1.0000 0.86510  0.18220  0.26970  Biso   1.000  H
  H2662    1.0000 0.86810  0.17120  0.23490  Biso   1.000  H
  C2284    1.0000 0.82828  0.15440  0.25620  Biso   1.000  C
  C2285    1.0000 0.81650  0.12590  0.25070  Biso   1.000  C
  H2663    1.0000 0.82880  0.10850  0.24570  Biso   1.000  H
  C2286    1.0000 0.78170  0.12500  0.25330  Biso   1.000  C
  H2664    1.0000 0.76960  0.10710  0.25020  Biso   1.000  H
  C2287    1.0000 0.76980  0.15280  0.26070  Biso   1.000  C
  H2665    1.0000 0.74850  0.15670  0.26350  Biso   1.000  H
  S153     1.0000 0.79877  0.18055  0.26460  Biso   1.000  S
  C2288    1.0000 0.89993  0.11982  0.24652  Biso   1.000  C
  H2666    1.0000 0.91320  0.10540  0.25620  Biso   1.000  H
  C2289    1.0000 0.90031  0.11984  0.21264  Biso   1.000  C
  C2290    1.0000 0.87788  0.12629  0.19055  Biso   1.000  C
  H2667    1.0000 0.85810  0.13450  0.19490  Biso   1.000  H
  C2291    1.0000 0.91799  0.10754  0.16460  Biso   1.000  C
  C2292    1.0000 0.95376  0.09240  0.20830  Biso   1.000  C
  C2293    1.0000 0.94896  0.05717  0.20929  Biso   1.000  C
  C2294    1.0000 0.91913  0.04374  0.20889  Biso   1.000  C
  H2668    1.0000 0.90150  0.05670  0.20880  Biso   1.000  H
  C2295    1.0000 0.91539  0.01170  0.20861  Biso   1.000  C
  H2669    1.0000 0.89530  0.00310  0.20830  Biso   1.000  H
  C2296    1.0000 0.94128  0.99216  0.20883  Biso   1.000  C
  C2297    1.0000 0.97101  0.00536  0.21012  Biso   1.000  C
  H2670    1.0000 0.98860  0.99240  0.21110  Biso   1.000  H
  C2298    1.0000 0.97471  0.03732  0.20996  Biso   1.000  C
  H2671    1.0000 0.99480  0.04580  0.21030  Biso   1.000  H
  C2299    1.0000 0.93735  0.95775  0.20684  Biso   1.000  C
  C2300    1.0000 0.93888  0.09718  0.13852  Biso   1.000  C
  H2672    1.0000 0.95070  0.07910  0.14520  Biso   1.000  H
  H2673    1.0000 0.92620  0.09110  0.12090  Biso   1.000  H
  C2301    1.0000 0.96200  0.12370  0.12900  Biso   1.000  C
  H2674    1.0000 0.95040  0.14230  0.12270  Biso   1.000  H
  H2675    1.0000 0.97530  0.12920  0.14670  Biso   1.000  H
  C2302    1.0000 0.98240  0.11170  0.10130  Biso   1.000  C
  H2676    1.0000 0.99070  0.09110  0.10640  Biso   1.000  H
  H2677    1.0000 0.00010  0.12580  0.09830  Biso   1.000  H
  C2303    1.0000 0.96360  0.10970  0.07060  Biso   1.000  C
  H2678    1.0000 0.97690  0.10230  0.05400  Biso   1.000  H
  H2679    1.0000 0.95570  0.13020  0.06530  Biso   1.000  H
  H2680    1.0000 0.94630  0.09550  0.07330  Biso   1.000  H
  N153     1.0000 0.88881  0.11888  0.16090  Biso   1.000  N
  N154     1.0000 0.92586  0.10794  0.19531  Biso   1.000  N
  O305     1.0000 0.87329  0.15084  0.31940  Biso   1.000  O
  O306     1.0000 0.89882  0.10741  0.31055  Biso   1.000  O
  O307     1.0000 0.90817  0.94883  0.20515  Biso   1.000  O
  H2681    1.0000 0.90260  0.93040  0.20190  Biso   1.000  H
  O308     1.0000 0.95922  0.93897  0.20711  Biso   1.000  O
  H2682    1.0000 0.86890  0.18330  0.26670  Biso   1.000  H
  H2683    1.0000 0.86570  0.16830  0.23370  Biso   1.000  H
  C2304    1.0000 0.82760  0.16040  0.26050  Biso   1.000  C
  C2305    1.0000 0.80560  0.17990  0.27120  Biso   1.000  C
  H2684    1.0000 0.80950  0.20040  0.27750  Biso   1.000  H
  C2306    1.0000 0.77400  0.16480  0.27170  Biso   1.000  C
  H2685    1.0000 0.75580  0.17480  0.27860  Biso   1.000  H
  C2307    1.0000 0.77460  0.13530  0.26110  Biso   1.000  C
  H2686    1.0000 0.75720  0.12230  0.25950  Biso   1.000  H
  S154     1.0000 0.81178  0.12477  0.25103  Biso   1.000  S
  H2687    1.0000 0.95800  0.08910  0.14740  Biso   1.000  H
  H2688    1.0000 0.92870  0.08010  0.12780  Biso   1.000  H
  C2308    1.0000 0.94860  0.12330  0.11530  Biso   1.000  C
  H2689    1.0000 0.93020  0.13480  0.10840  Biso   1.000  H
  H2690    1.0000 0.96270  0.13790  0.12550  Biso   1.000  H
  C2309    1.0000 0.96520  0.10770  0.08660  Biso   1.000  C
  H2691    1.0000 0.95090  0.09300  0.07660  Biso   1.000  H
  H2692    1.0000 0.98340  0.09600  0.09370  Biso   1.000  H
  C2310    1.0000 0.97550  0.13260  0.06270  Biso   1.000  C
  H2693    1.0000 0.98570  0.12260  0.04520  Biso   1.000  H
  H2694    1.0000 0.98990  0.14700  0.07250  Biso   1.000  H
  H2695    1.0000 0.95740  0.14390  0.05530  Biso   1.000  H
  C2311    1.0000 0.38520  0.63171  0.80009  Biso   1.000  C
  C2312    1.0000 0.38285  0.63794  0.76579  Biso   1.000  C
  C2313    1.0000 0.36230  0.66473  0.75572  Biso   1.000  C
  H2696    1.0000 0.36510  0.68220  0.76970  Biso   1.000  H
  H2697    1.0000 0.36810  0.67120  0.73490  Biso   1.000  H
  C2314    1.0000 0.32828  0.65440  0.75620  Biso   1.000  C
  C2315    1.0000 0.31650  0.62590  0.75070  Biso   1.000  C
  H2698    1.0000 0.32880  0.60850  0.74570  Biso   1.000  H
  C2316    1.0000 0.28170  0.62500  0.75330  Biso   1.000  C
  H2699    1.0000 0.26960  0.60710  0.75020  Biso   1.000  H
  C2317    1.0000 0.26980  0.65280  0.76070  Biso   1.000  C
  H2700    1.0000 0.24850  0.65670  0.76350  Biso   1.000  H
  S155     1.0000 0.29877  0.68055  0.76460  Biso   1.000  S
  C2318    1.0000 0.39993  0.61982  0.74652  Biso   1.000  C
  H2701    1.0000 0.41320  0.60540  0.75620  Biso   1.000  H
  C2319    1.0000 0.40031  0.61984  0.71264  Biso   1.000  C
  C2320    1.0000 0.37788  0.62629  0.69055  Biso   1.000  C
  H2702    1.0000 0.35810  0.63450  0.69490  Biso   1.000  H
  C2321    1.0000 0.41799  0.60754  0.66460  Biso   1.000  C
  C2322    1.0000 0.45376  0.59240  0.70830  Biso   1.000  C
  C2323    1.0000 0.44896  0.55717  0.70929  Biso   1.000  C
  C2324    1.0000 0.41913  0.54374  0.70889  Biso   1.000  C
  H2703    1.0000 0.40150  0.55670  0.70880  Biso   1.000  H
  C2325    1.0000 0.41539  0.51170  0.70861  Biso   1.000  C
  H2704    1.0000 0.39530  0.50310  0.70830  Biso   1.000  H
  C2326    1.0000 0.44128  0.49216  0.70883  Biso   1.000  C
  C2327    1.0000 0.47101  0.50536  0.71012  Biso   1.000  C
  H2705    1.0000 0.48860  0.49240  0.71110  Biso   1.000  H
  C2328    1.0000 0.47471  0.53732  0.70996  Biso   1.000  C
  H2706    1.0000 0.49480  0.54580  0.71030  Biso   1.000  H
  C2329    1.0000 0.43735  0.45775  0.70684  Biso   1.000  C
  C2330    1.0000 0.43888  0.59718  0.63852  Biso   1.000  C
  H2707    1.0000 0.45070  0.57910  0.64520  Biso   1.000  H
  H2708    1.0000 0.42620  0.59110  0.62090  Biso   1.000  H
  C2331    1.0000 0.46200  0.62370  0.62900  Biso   1.000  C
  H2709    1.0000 0.45040  0.64230  0.62270  Biso   1.000  H
  H2710    1.0000 0.47530  0.62920  0.64670  Biso   1.000  H
  C2332    1.0000 0.48240  0.61170  0.60130  Biso   1.000  C
  H2711    1.0000 0.49070  0.59110  0.60640  Biso   1.000  H
  H2712    1.0000 0.50010  0.62580  0.59830  Biso   1.000  H
  C2333    1.0000 0.46360  0.60970  0.57060  Biso   1.000  C
  H2713    1.0000 0.47690  0.60230  0.55400  Biso   1.000  H
  H2714    1.0000 0.45570  0.63020  0.56530  Biso   1.000  H
  H2715    1.0000 0.44630  0.59550  0.57330  Biso   1.000  H
  N155     1.0000 0.38881  0.61888  0.66090  Biso   1.000  N
  N156     1.0000 0.42586  0.60794  0.69531  Biso   1.000  N
  O309     1.0000 0.37329  0.65084  0.81940  Biso   1.000  O
  O310     1.0000 0.39882  0.60741  0.81055  Biso   1.000  O
  O311     1.0000 0.40817  0.44883  0.70515  Biso   1.000  O
  H2716    1.0000 0.40260  0.43040  0.70190  Biso   1.000  H
  O312     1.0000 0.45922  0.43897  0.70711  Biso   1.000  O
  H2717    1.0000 0.36890  0.68330  0.76670  Biso   1.000  H
  H2718    1.0000 0.36570  0.66830  0.73370  Biso   1.000  H
  C2334    1.0000 0.32760  0.66040  0.76050  Biso   1.000  C
  C2335    1.0000 0.30560  0.67990  0.77120  Biso   1.000  C
  H2719    1.0000 0.30950  0.70040  0.77750  Biso   1.000  H
  C2336    1.0000 0.27400  0.66480  0.77170  Biso   1.000  C
  H2720    1.0000 0.25580  0.67480  0.77860  Biso   1.000  H
  C2337    1.0000 0.27460  0.63530  0.76110  Biso   1.000  C
  H2721    1.0000 0.25720  0.62230  0.75950  Biso   1.000  H
  S156     1.0000 0.31178  0.62477  0.75103  Biso   1.000  S
  H2722    1.0000 0.45800  0.58910  0.64740  Biso   1.000  H
  H2723    1.0000 0.42870  0.58010  0.62780  Biso   1.000  H
  C2338    1.0000 0.44860  0.62330  0.61530  Biso   1.000  C
  H2724    1.0000 0.43020  0.63480  0.60840  Biso   1.000  H
  H2725    1.0000 0.46270  0.63790  0.62550  Biso   1.000  H
  C2339    1.0000 0.46520  0.60770  0.58660  Biso   1.000  C
  H2726    1.0000 0.45090  0.59300  0.57660  Biso   1.000  H
  H2727    1.0000 0.48340  0.59600  0.59370  Biso   1.000  H
  C2340    1.0000 0.47550  0.63260  0.56270  Biso   1.000  C
  H2728    1.0000 0.48570  0.62260  0.54520  Biso   1.000  H
  H2729    1.0000 0.48990  0.64700  0.57250  Biso   1.000  H
  H2730    1.0000 0.45740  0.64390  0.55530  Biso   1.000  H
  C2341    1.0000 0.61480  0.86829  0.80009  Biso   1.000  C
  C2342    1.0000 0.61715  0.86206  0.76579  Biso   1.000  C
  C2343    1.0000 0.63770  0.83527  0.75572  Biso   1.000  C
  H2731    1.0000 0.63490  0.81780  0.76970  Biso   1.000  H
  H2732    1.0000 0.63190  0.82880  0.73490  Biso   1.000  H
  C2344    1.0000 0.67172  0.84560  0.75620  Biso   1.000  C
  C2345    1.0000 0.68350  0.87410  0.75070  Biso   1.000  C
  H2733    1.0000 0.67120  0.89150  0.74570  Biso   1.000  H
  C2346    1.0000 0.71830  0.87500  0.75330  Biso   1.000  C
  H2734    1.0000 0.73040  0.89290  0.75020  Biso   1.000  H
  C2347    1.0000 0.73020  0.84720  0.76070  Biso   1.000  C
  H2735    1.0000 0.75150  0.84330  0.76350  Biso   1.000  H
  S157     1.0000 0.70123  0.81945  0.76460  Biso   1.000  S
  C2348    1.0000 0.60007  0.88018  0.74652  Biso   1.000  C
  H2736    1.0000 0.58680  0.89460  0.75620  Biso   1.000  H
  C2349    1.0000 0.59969  0.88016  0.71264  Biso   1.000  C
  C2350    1.0000 0.62212  0.87371  0.69055  Biso   1.000  C
  H2737    1.0000 0.64190  0.86550  0.69490  Biso   1.000  H
  C2351    1.0000 0.58201  0.89246  0.66460  Biso   1.000  C
  C2352    1.0000 0.54624  0.90760  0.70830  Biso   1.000  C
  C2353    1.0000 0.55104  0.94283  0.70929  Biso   1.000  C
  C2354    1.0000 0.58087  0.95626  0.70889  Biso   1.000  C
  H2738    1.0000 0.59850  0.94330  0.70880  Biso   1.000  H
  C2355    1.0000 0.58461  0.98830  0.70861  Biso   1.000  C
  H2739    1.0000 0.60470  0.99690  0.70830  Biso   1.000  H
  C2356    1.0000 0.55872  0.00784  0.70883  Biso   1.000  C
  C2357    1.0000 0.52899  0.99464  0.71012  Biso   1.000  C
  H2740    1.0000 0.51140  0.00760  0.71110  Biso   1.000  H
  C2358    1.0000 0.52529  0.96268  0.70996  Biso   1.000  C
  H2741    1.0000 0.50520  0.95420  0.71030  Biso   1.000  H
  C2359    1.0000 0.56265  0.04225  0.70684  Biso   1.000  C
  C2360    1.0000 0.56112  0.90282  0.63852  Biso   1.000  C
  H2742    1.0000 0.54930  0.92090  0.64520  Biso   1.000  H
  H2743    1.0000 0.57380  0.90890  0.62090  Biso   1.000  H
  C2361    1.0000 0.53800  0.87630  0.62900  Biso   1.000  C
  H2744    1.0000 0.54960  0.85770  0.62270  Biso   1.000  H
  H2745    1.0000 0.52470  0.87080  0.64670  Biso   1.000  H
  C2362    1.0000 0.51760  0.88830  0.60130  Biso   1.000  C
  H2746    1.0000 0.50930  0.90890  0.60640  Biso   1.000  H
  H2747    1.0000 0.49990  0.87420  0.59830  Biso   1.000  H
  C2363    1.0000 0.53640  0.89030  0.57060  Biso   1.000  C
  H2748    1.0000 0.52310  0.89770  0.55400  Biso   1.000  H
  H2749    1.0000 0.54430  0.86980  0.56530  Biso   1.000  H
  H2750    1.0000 0.55370  0.90450  0.57330  Biso   1.000  H
  N157     1.0000 0.61119  0.88112  0.66090  Biso   1.000  N
  N158     1.0000 0.57414  0.89206  0.69531  Biso   1.000  N
  O313     1.0000 0.62671  0.84916  0.81940  Biso   1.000  O
  O314     1.0000 0.60118  0.89259  0.81055  Biso   1.000  O
  O315     1.0000 0.59183  0.05117  0.70515  Biso   1.000  O
  H2751    1.0000 0.59740  0.06960  0.70190  Biso   1.000  H
  O316     1.0000 0.54078  0.06103  0.70711  Biso   1.000  O
  H2752    1.0000 0.63110  0.81670  0.76670  Biso   1.000  H
  H2753    1.0000 0.63430  0.83170  0.73370  Biso   1.000  H
  C2364    1.0000 0.67240  0.83960  0.76050  Biso   1.000  C
  C2365    1.0000 0.69440  0.82010  0.77120  Biso   1.000  C
  H2754    1.0000 0.69050  0.79960  0.77750  Biso   1.000  H
  C2366    1.0000 0.72600  0.83520  0.77170  Biso   1.000  C
  H2755    1.0000 0.74420  0.82520  0.77860  Biso   1.000  H
  C2367    1.0000 0.72540  0.86470  0.76110  Biso   1.000  C
  H2756    1.0000 0.74280  0.87770  0.75950  Biso   1.000  H
  S158     1.0000 0.68822  0.87523  0.75103  Biso   1.000  S
  H2757    1.0000 0.54200  0.91090  0.64740  Biso   1.000  H
  H2758    1.0000 0.57130  0.91990  0.62780  Biso   1.000  H
  C2368    1.0000 0.55140  0.87670  0.61530  Biso   1.000  C
  H2759    1.0000 0.56980  0.86520  0.60840  Biso   1.000  H
  H2760    1.0000 0.53730  0.86210  0.62550  Biso   1.000  H
  C2369    1.0000 0.53480  0.89230  0.58660  Biso   1.000  C
  H2761    1.0000 0.54910  0.90700  0.57660  Biso   1.000  H
  H2762    1.0000 0.51660  0.90400  0.59370  Biso   1.000  H
  C2370    1.0000 0.52450  0.86740  0.56270  Biso   1.000  C
  H2763    1.0000 0.51430  0.87740  0.54520  Biso   1.000  H
  H2764    1.0000 0.51010  0.85300  0.57250  Biso   1.000  H
  H2765    1.0000 0.54260  0.85610  0.55530  Biso   1.000  H
  C2371    1.0000 0.11480  0.36829  0.30009  Biso   1.000  C
  C2372    1.0000 0.11715  0.36206  0.26579  Biso   1.000  C
  C2373    1.0000 0.13770  0.33527  0.25572  Biso   1.000  C
  H2766    1.0000 0.13490  0.31780  0.26970  Biso   1.000  H
  H2767    1.0000 0.13190  0.32880  0.23490  Biso   1.000  H
  C2374    1.0000 0.17172  0.34560  0.25620  Biso   1.000  C
  C2375    1.0000 0.18350  0.37410  0.25070  Biso   1.000  C
  H2768    1.0000 0.17120  0.39150  0.24570  Biso   1.000  H
  C2376    1.0000 0.21830  0.37500  0.25330  Biso   1.000  C
  H2769    1.0000 0.23040  0.39290  0.25020  Biso   1.000  H
  C2377    1.0000 0.23020  0.34720  0.26070  Biso   1.000  C
  H2770    1.0000 0.25150  0.34330  0.26350  Biso   1.000  H
  S159     1.0000 0.20123  0.31945  0.26460  Biso   1.000  S
  C2378    1.0000 0.10007  0.38018  0.24652  Biso   1.000  C
  H2771    1.0000 0.08680  0.39460  0.25620  Biso   1.000  H
  C2379    1.0000 0.09969  0.38016  0.21264  Biso   1.000  C
  C2380    1.0000 0.12212  0.37371  0.19055  Biso   1.000  C
  H2772    1.0000 0.14190  0.36550  0.19490  Biso   1.000  H
  C2381    1.0000 0.08201  0.39246  0.16460  Biso   1.000  C
  C2382    1.0000 0.04624  0.40760  0.20830  Biso   1.000  C
  C2383    1.0000 0.05104  0.44283  0.20929  Biso   1.000  C
  C2384    1.0000 0.08087  0.45626  0.20889  Biso   1.000  C
  H2773    1.0000 0.09850  0.44330  0.20880  Biso   1.000  H
  C2385    1.0000 0.08461  0.48830  0.20861  Biso   1.000  C
  H2774    1.0000 0.10470  0.49690  0.20830  Biso   1.000  H
  C2386    1.0000 0.05872  0.50784  0.20883  Biso   1.000  C
  C2387    1.0000 0.02899  0.49464  0.21012  Biso   1.000  C
  H2775    1.0000 0.01140  0.50760  0.21110  Biso   1.000  H
  C2388    1.0000 0.02529  0.46268  0.20996  Biso   1.000  C
  H2776    1.0000 0.00520  0.45420  0.21030  Biso   1.000  H
  C2389    1.0000 0.06265  0.54225  0.20684  Biso   1.000  C
  C2390    1.0000 0.06112  0.40282  0.13852  Biso   1.000  C
  H2777    1.0000 0.04930  0.42090  0.14520  Biso   1.000  H
  H2778    1.0000 0.07380  0.40890  0.12090  Biso   1.000  H
  C2391    1.0000 0.03800  0.37630  0.12900  Biso   1.000  C
  H2779    1.0000 0.04960  0.35770  0.12270  Biso   1.000  H
  H2780    1.0000 0.02470  0.37080  0.14670  Biso   1.000  H
  C2392    1.0000 0.01760  0.38830  0.10130  Biso   1.000  C
  H2781    1.0000 0.00930  0.40890  0.10640  Biso   1.000  H
  H2782    1.0000 0.99990  0.37420  0.09830  Biso   1.000  H
  C2393    1.0000 0.03640  0.39030  0.07060  Biso   1.000  C
  H2783    1.0000 0.02310  0.39770  0.05400  Biso   1.000  H
  H2784    1.0000 0.04430  0.36980  0.06530  Biso   1.000  H
  H2785    1.0000 0.05370  0.40450  0.07330  Biso   1.000  H
  N159     1.0000 0.11119  0.38112  0.16090  Biso   1.000  N
  N160     1.0000 0.07414  0.39206  0.19531  Biso   1.000  N
  O317     1.0000 0.12671  0.34916  0.31940  Biso   1.000  O
  O318     1.0000 0.10118  0.39259  0.31055  Biso   1.000  O
  O319     1.0000 0.09183  0.55117  0.20515  Biso   1.000  O
  H2786    1.0000 0.09740  0.56960  0.20190  Biso   1.000  H
  O320     1.0000 0.04078  0.56103  0.20711  Biso   1.000  O
  H2787    1.0000 0.13110  0.31670  0.26670  Biso   1.000  H
  H2788    1.0000 0.13430  0.33170  0.23370  Biso   1.000  H
  C2394    1.0000 0.17240  0.33960  0.26050  Biso   1.000  C
  C2395    1.0000 0.19440  0.32010  0.27120  Biso   1.000  C
  H2789    1.0000 0.19050  0.29960  0.27750  Biso   1.000  H
  C2396    1.0000 0.22600  0.33520  0.27170  Biso   1.000  C
  H2790    1.0000 0.24420  0.32520  0.27860  Biso   1.000  H
  C2397    1.0000 0.22540  0.36470  0.26110  Biso   1.000  C
  H2791    1.0000 0.24280  0.37770  0.25950  Biso   1.000  H
  S160     1.0000 0.18822  0.37523  0.25103  Biso   1.000  S
  H2792    1.0000 0.04200  0.41090  0.14740  Biso   1.000  H
  H2793    1.0000 0.07130  0.41990  0.12780  Biso   1.000  H
  C2398    1.0000 0.05140  0.37670  0.11530  Biso   1.000  C
  H2794    1.0000 0.06980  0.36520  0.10840  Biso   1.000  H
  H2795    1.0000 0.03730  0.36210  0.12550  Biso   1.000  H
  C2399    1.0000 0.03480  0.39230  0.08660  Biso   1.000  C
  H2796    1.0000 0.04910  0.40700  0.07660  Biso   1.000  H
  H2797    1.0000 0.01660  0.40400  0.09370  Biso   1.000  H
  C2400    1.0000 0.02450  0.36740  0.06270  Biso   1.000  C
  H2798    1.0000 0.01430  0.37740  0.04520  Biso   1.000  H
  H2799    1.0000 0.01010  0.35300  0.07250  Biso   1.000  H
  H2800    1.0000 0.04260  0.35610  0.05530  Biso   1.000  H
  C2401    1.0000 0.86829  0.80009  0.61480  Biso   1.000  C
  C2402    1.0000 0.86206  0.76579  0.61715  Biso   1.000  C
  C2403    1.0000 0.83527  0.75572  0.63770  Biso   1.000  C
  H2801    1.0000 0.81780  0.76970  0.63490  Biso   1.000  H
  H2802    1.0000 0.82880  0.73490  0.63190  Biso   1.000  H
  C2404    1.0000 0.84560  0.75620  0.67172  Biso   1.000  C
  C2405    1.0000 0.87410  0.75070  0.68350  Biso   1.000  C
  H2803    1.0000 0.89150  0.74570  0.67120  Biso   1.000  H
  C2406    1.0000 0.87500  0.75330  0.71830  Biso   1.000  C
  H2804    1.0000 0.89290  0.75020  0.73040  Biso   1.000  H
  C2407    1.0000 0.84720  0.76070  0.73020  Biso   1.000  C
  H2805    1.0000 0.84330  0.76350  0.75150  Biso   1.000  H
  S161     1.0000 0.81945  0.76460  0.70123  Biso   1.000  S
  C2408    1.0000 0.88018  0.74652  0.60007  Biso   1.000  C
  H2806    1.0000 0.89460  0.75620  0.58680  Biso   1.000  H
  C2409    1.0000 0.88016  0.71264  0.59969  Biso   1.000  C
  C2410    1.0000 0.87371  0.69055  0.62212  Biso   1.000  C
  H2807    1.0000 0.86550  0.69490  0.64190  Biso   1.000  H
  C2411    1.0000 0.89246  0.66460  0.58201  Biso   1.000  C
  C2412    1.0000 0.90760  0.70830  0.54624  Biso   1.000  C
  C2413    1.0000 0.94283  0.70929  0.55104  Biso   1.000  C
  C2414    1.0000 0.95626  0.70889  0.58087  Biso   1.000  C
  H2808    1.0000 0.94330  0.70880  0.59850  Biso   1.000  H
  C2415    1.0000 0.98830  0.70861  0.58461  Biso   1.000  C
  H2809    1.0000 0.99690  0.70830  0.60470  Biso   1.000  H
  C2416    1.0000 0.00784  0.70883  0.55872  Biso   1.000  C
  C2417    1.0000 0.99464  0.71012  0.52899  Biso   1.000  C
  H2810    1.0000 0.00760  0.71110  0.51140  Biso   1.000  H
  C2418    1.0000 0.96268  0.70996  0.52529  Biso   1.000  C
  H2811    1.0000 0.95420  0.71030  0.50520  Biso   1.000  H
  C2419    1.0000 0.04225  0.70684  0.56265  Biso   1.000  C
  C2420    1.0000 0.90282  0.63852  0.56112  Biso   1.000  C
  H2812    1.0000 0.92090  0.64520  0.54930  Biso   1.000  H
  H2813    1.0000 0.90890  0.62090  0.57380  Biso   1.000  H
  C2421    1.0000 0.87630  0.62900  0.53800  Biso   1.000  C
  H2814    1.0000 0.85770  0.62270  0.54960  Biso   1.000  H
  H2815    1.0000 0.87080  0.64670  0.52470  Biso   1.000  H
  C2422    1.0000 0.88830  0.60130  0.51760  Biso   1.000  C
  H2816    1.0000 0.90890  0.60640  0.50930  Biso   1.000  H
  H2817    1.0000 0.87420  0.59830  0.49990  Biso   1.000  H
  C2423    1.0000 0.89030  0.57060  0.53640  Biso   1.000  C
  H2818    1.0000 0.89770  0.55400  0.52310  Biso   1.000  H
  H2819    1.0000 0.86980  0.56530  0.54430  Biso   1.000  H
  H2820    1.0000 0.90450  0.57330  0.55370  Biso   1.000  H
  N161     1.0000 0.88112  0.66090  0.61119  Biso   1.000  N
  N162     1.0000 0.89206  0.69531  0.57414  Biso   1.000  N
  O321     1.0000 0.84916  0.81940  0.62671  Biso   1.000  O
  O322     1.0000 0.89259  0.81055  0.60118  Biso   1.000  O
  O323     1.0000 0.05117  0.70515  0.59183  Biso   1.000  O
  H2821    1.0000 0.06960  0.70190  0.59740  Biso   1.000  H
  O324     1.0000 0.06103  0.70711  0.54078  Biso   1.000  O
  H2822    1.0000 0.81670  0.76670  0.63110  Biso   1.000  H
  H2823    1.0000 0.83170  0.73370  0.63430  Biso   1.000  H
  C2424    1.0000 0.83960  0.76050  0.67240  Biso   1.000  C
  C2425    1.0000 0.82010  0.77120  0.69440  Biso   1.000  C
  H2824    1.0000 0.79960  0.77750  0.69050  Biso   1.000  H
  C2426    1.0000 0.83520  0.77170  0.72600  Biso   1.000  C
  H2825    1.0000 0.82520  0.77860  0.74420  Biso   1.000  H
  C2427    1.0000 0.86470  0.76110  0.72540  Biso   1.000  C
  H2826    1.0000 0.87770  0.75950  0.74280  Biso   1.000  H
  S162     1.0000 0.87523  0.75103  0.68822  Biso   1.000  S
  H2827    1.0000 0.91090  0.64740  0.54200  Biso   1.000  H
  H2828    1.0000 0.91990  0.62780  0.57130  Biso   1.000  H
  C2428    1.0000 0.87670  0.61530  0.55140  Biso   1.000  C
  H2829    1.0000 0.86520  0.60840  0.56980  Biso   1.000  H
  H2830    1.0000 0.86210  0.62550  0.53730  Biso   1.000  H
  C2429    1.0000 0.89230  0.58660  0.53480  Biso   1.000  C
  H2831    1.0000 0.90700  0.57660  0.54910  Biso   1.000  H
  H2832    1.0000 0.90400  0.59370  0.51660  Biso   1.000  H
  C2430    1.0000 0.86740  0.56270  0.52450  Biso   1.000  C
  H2833    1.0000 0.87740  0.54520  0.51430  Biso   1.000  H
  H2834    1.0000 0.85300  0.57250  0.51010  Biso   1.000  H
  H2835    1.0000 0.85610  0.55530  0.54260  Biso   1.000  H
  C2431    1.0000 0.36829  0.30009  0.11480  Biso   1.000  C
  C2432    1.0000 0.36206  0.26579  0.11715  Biso   1.000  C
  C2433    1.0000 0.33527  0.25572  0.13770  Biso   1.000  C
  H2836    1.0000 0.31780  0.26970  0.13490  Biso   1.000  H
  H2837    1.0000 0.32880  0.23490  0.13190  Biso   1.000  H
  C2434    1.0000 0.34560  0.25620  0.17172  Biso   1.000  C
  C2435    1.0000 0.37410  0.25070  0.18350  Biso   1.000  C
  H2838    1.0000 0.39150  0.24570  0.17120  Biso   1.000  H
  C2436    1.0000 0.37500  0.25330  0.21830  Biso   1.000  C
  H2839    1.0000 0.39290  0.25020  0.23040  Biso   1.000  H
  C2437    1.0000 0.34720  0.26070  0.23020  Biso   1.000  C
  H2840    1.0000 0.34330  0.26350  0.25150  Biso   1.000  H
  S163     1.0000 0.31945  0.26460  0.20123  Biso   1.000  S
  C2438    1.0000 0.38018  0.24652  0.10007  Biso   1.000  C
  H2841    1.0000 0.39460  0.25620  0.08680  Biso   1.000  H
  C2439    1.0000 0.38016  0.21264  0.09969  Biso   1.000  C
  C2440    1.0000 0.37371  0.19055  0.12212  Biso   1.000  C
  H2842    1.0000 0.36550  0.19490  0.14190  Biso   1.000  H
  C2441    1.0000 0.39246  0.16460  0.08201  Biso   1.000  C
  C2442    1.0000 0.40760  0.20830  0.04624  Biso   1.000  C
  C2443    1.0000 0.44283  0.20929  0.05104  Biso   1.000  C
  C2444    1.0000 0.45626  0.20889  0.08087  Biso   1.000  C
  H2843    1.0000 0.44330  0.20880  0.09850  Biso   1.000  H
  C2445    1.0000 0.48830  0.20861  0.08461  Biso   1.000  C
  H2844    1.0000 0.49690  0.20830  0.10470  Biso   1.000  H
  C2446    1.0000 0.50784  0.20883  0.05872  Biso   1.000  C
  C2447    1.0000 0.49464  0.21012  0.02899  Biso   1.000  C
  H2845    1.0000 0.50760  0.21110  0.01140  Biso   1.000  H
  C2448    1.0000 0.46268  0.20996  0.02529  Biso   1.000  C
  H2846    1.0000 0.45420  0.21030  0.00520  Biso   1.000  H
  C2449    1.0000 0.54225  0.20684  0.06265  Biso   1.000  C
  C2450    1.0000 0.40282  0.13852  0.06112  Biso   1.000  C
  H2847    1.0000 0.42090  0.14520  0.04930  Biso   1.000  H
  H2848    1.0000 0.40890  0.12090  0.07380  Biso   1.000  H
  C2451    1.0000 0.37630  0.12900  0.03800  Biso   1.000  C
  H2849    1.0000 0.35770  0.12270  0.04960  Biso   1.000  H
  H2850    1.0000 0.37080  0.14670  0.02470  Biso   1.000  H
  C2452    1.0000 0.38830  0.10130  0.01760  Biso   1.000  C
  H2851    1.0000 0.40890  0.10640  0.00930  Biso   1.000  H
  H2852    1.0000 0.37420  0.09830  0.99990  Biso   1.000  H
  C2453    1.0000 0.39030  0.07060  0.03640  Biso   1.000  C
  H2853    1.0000 0.39770  0.05400  0.02310  Biso   1.000  H
  H2854    1.0000 0.36980  0.06530  0.04430  Biso   1.000  H
  H2855    1.0000 0.40450  0.07330  0.05370  Biso   1.000  H
  N163     1.0000 0.38112  0.16090  0.11119  Biso   1.000  N
  N164     1.0000 0.39206  0.19531  0.07414  Biso   1.000  N
  O325     1.0000 0.34916  0.31940  0.12671  Biso   1.000  O
  O326     1.0000 0.39259  0.31055  0.10118  Biso   1.000  O
  O327     1.0000 0.55117  0.20515  0.09183  Biso   1.000  O
  H2856    1.0000 0.56960  0.20190  0.09740  Biso   1.000  H
  O328     1.0000 0.56103  0.20711  0.04078  Biso   1.000  O
  H2857    1.0000 0.31670  0.26670  0.13110  Biso   1.000  H
  H2858    1.0000 0.33170  0.23370  0.13430  Biso   1.000  H
  C2454    1.0000 0.33960  0.26050  0.17240  Biso   1.000  C
  C2455    1.0000 0.32010  0.27120  0.19440  Biso   1.000  C
  H2859    1.0000 0.29960  0.27750  0.19050  Biso   1.000  H
  C2456    1.0000 0.33520  0.27170  0.22600  Biso   1.000  C
  H2860    1.0000 0.32520  0.27860  0.24420  Biso   1.000  H
  C2457    1.0000 0.36470  0.26110  0.22540  Biso   1.000  C
  H2861    1.0000 0.37770  0.25950  0.24280  Biso   1.000  H
  S164     1.0000 0.37523  0.25103  0.18822  Biso   1.000  S
  H2862    1.0000 0.41090  0.14740  0.04200  Biso   1.000  H
  H2863    1.0000 0.41990  0.12780  0.07130  Biso   1.000  H
  C2458    1.0000 0.37670  0.11530  0.05140  Biso   1.000  C
  H2864    1.0000 0.36520  0.10840  0.06980  Biso   1.000  H
  H2865    1.0000 0.36210  0.12550  0.03730  Biso   1.000  H
  C2459    1.0000 0.39230  0.08660  0.03480  Biso   1.000  C
  H2866    1.0000 0.40700  0.07660  0.04910  Biso   1.000  H
  H2867    1.0000 0.40400  0.09370  0.01660  Biso   1.000  H
  C2460    1.0000 0.36740  0.06270  0.02450  Biso   1.000  C
  H2868    1.0000 0.37740  0.04520  0.01430  Biso   1.000  H
  H2869    1.0000 0.35300  0.07250  0.01010  Biso   1.000  H
  H2870    1.0000 0.35610  0.05530  0.04260  Biso   1.000  H
  C2461    1.0000 0.13171  0.30009  0.88520  Biso   1.000  C
  C2462    1.0000 0.13794  0.26579  0.88285  Biso   1.000  C
  C2463    1.0000 0.16473  0.25572  0.86230  Biso   1.000  C
  H2871    1.0000 0.18220  0.26970  0.86510  Biso   1.000  H
  H2872    1.0000 0.17120  0.23490  0.86810  Biso   1.000  H
  C2464    1.0000 0.15440  0.25620  0.82828  Biso   1.000  C
  C2465    1.0000 0.12590  0.25070  0.81650  Biso   1.000  C
  H2873    1.0000 0.10850  0.24570  0.82880  Biso   1.000  H
  C2466    1.0000 0.12500  0.25330  0.78170  Biso   1.000  C
  H2874    1.0000 0.10710  0.25020  0.76960  Biso   1.000  H
  C2467    1.0000 0.15280  0.26070  0.76980  Biso   1.000  C
  H2875    1.0000 0.15670  0.26350  0.74850  Biso   1.000  H
  S165     1.0000 0.18055  0.26460  0.79877  Biso   1.000  S
  C2468    1.0000 0.11982  0.24652  0.89993  Biso   1.000  C
  H2876    1.0000 0.10540  0.25620  0.91320  Biso   1.000  H
  C2469    1.0000 0.11984  0.21264  0.90031  Biso   1.000  C
  C2470    1.0000 0.12629  0.19055  0.87788  Biso   1.000  C
  H2877    1.0000 0.13450  0.19490  0.85810  Biso   1.000  H
  C2471    1.0000 0.10754  0.16460  0.91799  Biso   1.000  C
  C2472    1.0000 0.09240  0.20830  0.95376  Biso   1.000  C
  C2473    1.0000 0.05717  0.20929  0.94896  Biso   1.000  C
  C2474    1.0000 0.04374  0.20889  0.91913  Biso   1.000  C
  H2878    1.0000 0.05670  0.20880  0.90150  Biso   1.000  H
  C2475    1.0000 0.01170  0.20861  0.91539  Biso   1.000  C
  H2879    1.0000 0.00310  0.20830  0.89530  Biso   1.000  H
  C2476    1.0000 0.99216  0.20883  0.94128  Biso   1.000  C
  C2477    1.0000 0.00536  0.21012  0.97101  Biso   1.000  C
  H2880    1.0000 0.99240  0.21110  0.98860  Biso   1.000  H
  C2478    1.0000 0.03732  0.20996  0.97471  Biso   1.000  C
  H2881    1.0000 0.04580  0.21030  0.99480  Biso   1.000  H
  C2479    1.0000 0.95775  0.20684  0.93735  Biso   1.000  C
  C2480    1.0000 0.09718  0.13852  0.93888  Biso   1.000  C
  H2882    1.0000 0.07910  0.14520  0.95070  Biso   1.000  H
  H2883    1.0000 0.09110  0.12090  0.92620  Biso   1.000  H
  C2481    1.0000 0.12370  0.12900  0.96200  Biso   1.000  C
  H2884    1.0000 0.14230  0.12270  0.95040  Biso   1.000  H
  H2885    1.0000 0.12920  0.14670  0.97530  Biso   1.000  H
  C2482    1.0000 0.11170  0.10130  0.98240  Biso   1.000  C
  H2886    1.0000 0.09110  0.10640  0.99070  Biso   1.000  H
  H2887    1.0000 0.12580  0.09830  0.00010  Biso   1.000  H
  C2483    1.0000 0.10970  0.07060  0.96360  Biso   1.000  C
  H2888    1.0000 0.10230  0.05400  0.97690  Biso   1.000  H
  H2889    1.0000 0.13020  0.06530  0.95570  Biso   1.000  H
  H2890    1.0000 0.09550  0.07330  0.94630  Biso   1.000  H
  N165     1.0000 0.11888  0.16090  0.88881  Biso   1.000  N
  N166     1.0000 0.10794  0.19531  0.92586  Biso   1.000  N
  O329     1.0000 0.15084  0.31940  0.87329  Biso   1.000  O
  O330     1.0000 0.10741  0.31055  0.89882  Biso   1.000  O
  O331     1.0000 0.94883  0.20515  0.90817  Biso   1.000  O
  H2891    1.0000 0.93040  0.20190  0.90260  Biso   1.000  H
  O332     1.0000 0.93897  0.20711  0.95922  Biso   1.000  O
  H2892    1.0000 0.18330  0.26670  0.86890  Biso   1.000  H
  H2893    1.0000 0.16830  0.23370  0.86570  Biso   1.000  H
  C2484    1.0000 0.16040  0.26050  0.82760  Biso   1.000  C
  C2485    1.0000 0.17990  0.27120  0.80560  Biso   1.000  C
  H2894    1.0000 0.20040  0.27750  0.80950  Biso   1.000  H
  C2486    1.0000 0.16480  0.27170  0.77400  Biso   1.000  C
  H2895    1.0000 0.17480  0.27860  0.75580  Biso   1.000  H
  C2487    1.0000 0.13530  0.26110  0.77460  Biso   1.000  C
  H2896    1.0000 0.12230  0.25950  0.75720  Biso   1.000  H
  S166     1.0000 0.12477  0.25103  0.81178  Biso   1.000  S
  H2897    1.0000 0.08910  0.14740  0.95800  Biso   1.000  H
  H2898    1.0000 0.08010  0.12780  0.92870  Biso   1.000  H
  C2488    1.0000 0.12330  0.11530  0.94860  Biso   1.000  C
  H2899    1.0000 0.13480  0.10840  0.93020  Biso   1.000  H
  H2900    1.0000 0.13790  0.12550  0.96270  Biso   1.000  H
  C2489    1.0000 0.10770  0.08660  0.96520  Biso   1.000  C
  H2901    1.0000 0.09300  0.07660  0.95090  Biso   1.000  H
  H2902    1.0000 0.09600  0.09370  0.98340  Biso   1.000  H
  C2490    1.0000 0.13260  0.06270  0.97550  Biso   1.000  C
  H2903    1.0000 0.12260  0.04520  0.98570  Biso   1.000  H
  H2904    1.0000 0.14700  0.07250  0.98990  Biso   1.000  H
  H2905    1.0000 0.14390  0.05530  0.95740  Biso   1.000  H
  C2491    1.0000 0.63171  0.80009  0.38520  Biso   1.000  C
  C2492    1.0000 0.63794  0.76579  0.38285  Biso   1.000  C
  C2493    1.0000 0.66473  0.75572  0.36230  Biso   1.000  C
  H2906    1.0000 0.68220  0.76970  0.36510  Biso   1.000  H
  H2907    1.0000 0.67120  0.73490  0.36810  Biso   1.000  H
  C2494    1.0000 0.65440  0.75620  0.32828  Biso   1.000  C
  C2495    1.0000 0.62590  0.75070  0.31650  Biso   1.000  C
  H2908    1.0000 0.60850  0.74570  0.32880  Biso   1.000  H
  C2496    1.0000 0.62500  0.75330  0.28170  Biso   1.000  C
  H2909    1.0000 0.60710  0.75020  0.26960  Biso   1.000  H
  C2497    1.0000 0.65280  0.76070  0.26980  Biso   1.000  C
  H2910    1.0000 0.65670  0.76350  0.24850  Biso   1.000  H
  S167     1.0000 0.68055  0.76460  0.29877  Biso   1.000  S
  C2498    1.0000 0.61982  0.74652  0.39993  Biso   1.000  C
  H2911    1.0000 0.60540  0.75620  0.41320  Biso   1.000  H
  C2499    1.0000 0.61984  0.71264  0.40031  Biso   1.000  C
  C2500    1.0000 0.62629  0.69055  0.37788  Biso   1.000  C
  H2912    1.0000 0.63450  0.69490  0.35810  Biso   1.000  H
  C2501    1.0000 0.60754  0.66460  0.41799  Biso   1.000  C
  C2502    1.0000 0.59240  0.70830  0.45376  Biso   1.000  C
  C2503    1.0000 0.55717  0.70929  0.44896  Biso   1.000  C
  C2504    1.0000 0.54374  0.70889  0.41913  Biso   1.000  C
  H2913    1.0000 0.55670  0.70880  0.40150  Biso   1.000  H
  C2505    1.0000 0.51170  0.70861  0.41539  Biso   1.000  C
  H2914    1.0000 0.50310  0.70830  0.39530  Biso   1.000  H
  C2506    1.0000 0.49216  0.70883  0.44128  Biso   1.000  C
  C2507    1.0000 0.50536  0.71012  0.47101  Biso   1.000  C
  H2915    1.0000 0.49240  0.71110  0.48860  Biso   1.000  H
  C2508    1.0000 0.53732  0.70996  0.47471  Biso   1.000  C
  H2916    1.0000 0.54580  0.71030  0.49480  Biso   1.000  H
  C2509    1.0000 0.45775  0.70684  0.43735  Biso   1.000  C
  C2510    1.0000 0.59718  0.63852  0.43888  Biso   1.000  C
  H2917    1.0000 0.57910  0.64520  0.45070  Biso   1.000  H
  H2918    1.0000 0.59110  0.62090  0.42620  Biso   1.000  H
  C2511    1.0000 0.62370  0.62900  0.46200  Biso   1.000  C
  H2919    1.0000 0.64230  0.62270  0.45040  Biso   1.000  H
  H2920    1.0000 0.62920  0.64670  0.47530  Biso   1.000  H
  C2512    1.0000 0.61170  0.60130  0.48240  Biso   1.000  C
  H2921    1.0000 0.59110  0.60640  0.49070  Biso   1.000  H
  H2922    1.0000 0.62580  0.59830  0.50010  Biso   1.000  H
  C2513    1.0000 0.60970  0.57060  0.46360  Biso   1.000  C
  H2923    1.0000 0.60230  0.55400  0.47690  Biso   1.000  H
  H2924    1.0000 0.63020  0.56530  0.45570  Biso   1.000  H
  H2925    1.0000 0.59550  0.57330  0.44630  Biso   1.000  H
  N167     1.0000 0.61888  0.66090  0.38881  Biso   1.000  N
  N168     1.0000 0.60794  0.69531  0.42586  Biso   1.000  N
  O333     1.0000 0.65084  0.81940  0.37329  Biso   1.000  O
  O334     1.0000 0.60741  0.81055  0.39882  Biso   1.000  O
  O335     1.0000 0.44883  0.70515  0.40817  Biso   1.000  O
  H2926    1.0000 0.43040  0.70190  0.40260  Biso   1.000  H
  O336     1.0000 0.43897  0.70711  0.45922  Biso   1.000  O
  H2927    1.0000 0.68330  0.76670  0.36890  Biso   1.000  H
  H2928    1.0000 0.66830  0.73370  0.36570  Biso   1.000  H
  C2514    1.0000 0.66040  0.76050  0.32760  Biso   1.000  C
  C2515    1.0000 0.67990  0.77120  0.30560  Biso   1.000  C
  H2929    1.0000 0.70040  0.77750  0.30950  Biso   1.000  H
  C2516    1.0000 0.66480  0.77170  0.27400  Biso   1.000  C
  H2930    1.0000 0.67480  0.77860  0.25580  Biso   1.000  H
  C2517    1.0000 0.63530  0.76110  0.27460  Biso   1.000  C
  H2931    1.0000 0.62230  0.75950  0.25720  Biso   1.000  H
  S168     1.0000 0.62477  0.75103  0.31178  Biso   1.000  S
  H2932    1.0000 0.58910  0.64740  0.45800  Biso   1.000  H
  H2933    1.0000 0.58010  0.62780  0.42870  Biso   1.000  H
  C2518    1.0000 0.62330  0.61530  0.44860  Biso   1.000  C
  H2934    1.0000 0.63480  0.60840  0.43020  Biso   1.000  H
  H2935    1.0000 0.63790  0.62550  0.46270  Biso   1.000  H
  C2519    1.0000 0.60770  0.58660  0.46520  Biso   1.000  C
  H2936    1.0000 0.59300  0.57660  0.45090  Biso   1.000  H
  H2937    1.0000 0.59600  0.59370  0.48340  Biso   1.000  H
  C2520    1.0000 0.63260  0.56270  0.47550  Biso   1.000  C
  H2938    1.0000 0.62260  0.54520  0.48570  Biso   1.000  H
  H2939    1.0000 0.64700  0.57250  0.48990  Biso   1.000  H
  H2940    1.0000 0.64390  0.55530  0.45740  Biso   1.000  H
  C2521    1.0000 0.63171  0.19991  0.11480  Biso   1.000  C
  C2522    1.0000 0.63794  0.23421  0.11715  Biso   1.000  C
  C2523    1.0000 0.66473  0.24428  0.13770  Biso   1.000  C
  H2941    1.0000 0.68220  0.23030  0.13490  Biso   1.000  H
  H2942    1.0000 0.67120  0.26510  0.13190  Biso   1.000  H
  C2524    1.0000 0.65440  0.24380  0.17172  Biso   1.000  C
  C2525    1.0000 0.62590  0.24930  0.18350  Biso   1.000  C
  H2943    1.0000 0.60850  0.25430  0.17120  Biso   1.000  H
  C2526    1.0000 0.62500  0.24670  0.21830  Biso   1.000  C
  H2944    1.0000 0.60710  0.24980  0.23040  Biso   1.000  H
  C2527    1.0000 0.65280  0.23930  0.23020  Biso   1.000  C
  H2945    1.0000 0.65670  0.23650  0.25150  Biso   1.000  H
  S169     1.0000 0.68055  0.23540  0.20123  Biso   1.000  S
  C2528    1.0000 0.61982  0.25348  0.10007  Biso   1.000  C
  H2946    1.0000 0.60540  0.24380  0.08680  Biso   1.000  H
  C2529    1.0000 0.61984  0.28736  0.09969  Biso   1.000  C
  C2530    1.0000 0.62629  0.30945  0.12212  Biso   1.000  C
  H2947    1.0000 0.63450  0.30510  0.14190  Biso   1.000  H
  C2531    1.0000 0.60754  0.33540  0.08201  Biso   1.000  C
  C2532    1.0000 0.59240  0.29170  0.04624  Biso   1.000  C
  C2533    1.0000 0.55717  0.29071  0.05104  Biso   1.000  C
  C2534    1.0000 0.54374  0.29111  0.08087  Biso   1.000  C
  H2948    1.0000 0.55670  0.29120  0.09850  Biso   1.000  H
  C2535    1.0000 0.51170  0.29139  0.08461  Biso   1.000  C
  H2949    1.0000 0.50310  0.29170  0.10470  Biso   1.000  H
  C2536    1.0000 0.49216  0.29117  0.05872  Biso   1.000  C
  C2537    1.0000 0.50536  0.28988  0.02899  Biso   1.000  C
  H2950    1.0000 0.49240  0.28890  0.01140  Biso   1.000  H
  C2538    1.0000 0.53732  0.29004  0.02529  Biso   1.000  C
  H2951    1.0000 0.54580  0.28970  0.00520  Biso   1.000  H
  C2539    1.0000 0.45775  0.29316  0.06265  Biso   1.000  C
  C2540    1.0000 0.59718  0.36148  0.06112  Biso   1.000  C
  H2952    1.0000 0.57910  0.35480  0.04930  Biso   1.000  H
  H2953    1.0000 0.59110  0.37910  0.07380  Biso   1.000  H
  C2541    1.0000 0.62370  0.37100  0.03800  Biso   1.000  C
  H2954    1.0000 0.64230  0.37730  0.04960  Biso   1.000  H
  H2955    1.0000 0.62920  0.35330  0.02470  Biso   1.000  H
  C2542    1.0000 0.61170  0.39870  0.01760  Biso   1.000  C
  H2956    1.0000 0.59110  0.39360  0.00930  Biso   1.000  H
  H2957    1.0000 0.62580  0.40170  0.99990  Biso   1.000  H
  C2543    1.0000 0.60970  0.42940  0.03640  Biso   1.000  C
  H2958    1.0000 0.60230  0.44600  0.02310  Biso   1.000  H
  H2959    1.0000 0.63020  0.43470  0.04430  Biso   1.000  H
  H2960    1.0000 0.59550  0.42670  0.05370  Biso   1.000  H
  N169     1.0000 0.61888  0.33910  0.11119  Biso   1.000  N
  N170     1.0000 0.60794  0.30469  0.07414  Biso   1.000  N
  O337     1.0000 0.65084  0.18060  0.12671  Biso   1.000  O
  O338     1.0000 0.60741  0.18945  0.10118  Biso   1.000  O
  O339     1.0000 0.44883  0.29485  0.09183  Biso   1.000  O
  H2961    1.0000 0.43040  0.29810  0.09740  Biso   1.000  H
  O340     1.0000 0.43897  0.29289  0.04078  Biso   1.000  O
  H2962    1.0000 0.68330  0.23330  0.13110  Biso   1.000  H
  H2963    1.0000 0.66830  0.26630  0.13430  Biso   1.000  H
  C2544    1.0000 0.66040  0.23950  0.17240  Biso   1.000  C
  C2545    1.0000 0.67990  0.22880  0.19440  Biso   1.000  C
  H2964    1.0000 0.70040  0.22250  0.19050  Biso   1.000  H
  C2546    1.0000 0.66480  0.22830  0.22600  Biso   1.000  C
  H2965    1.0000 0.67480  0.22140  0.24420  Biso   1.000  H
  C2547    1.0000 0.63530  0.23890  0.22540  Biso   1.000  C
  H2966    1.0000 0.62230  0.24050  0.24280  Biso   1.000  H
  S170     1.0000 0.62477  0.24897  0.18822  Biso   1.000  S
  H2967    1.0000 0.58910  0.35260  0.04200  Biso   1.000  H
  H2968    1.0000 0.58010  0.37220  0.07130  Biso   1.000  H
  C2548    1.0000 0.62330  0.38470  0.05140  Biso   1.000  C
  H2969    1.0000 0.63480  0.39160  0.06980  Biso   1.000  H
  H2970    1.0000 0.63790  0.37450  0.03730  Biso   1.000  H
  C2549    1.0000 0.60770  0.41340  0.03480  Biso   1.000  C
  H2971    1.0000 0.59300  0.42340  0.04910  Biso   1.000  H
  H2972    1.0000 0.59600  0.40630  0.01660  Biso   1.000  H
  C2550    1.0000 0.63260  0.43730  0.02450  Biso   1.000  C
  H2973    1.0000 0.62260  0.45480  0.01430  Biso   1.000  H
  H2974    1.0000 0.64700  0.42750  0.01010  Biso   1.000  H
  H2975    1.0000 0.64390  0.44470  0.04260  Biso   1.000  H
  C2551    1.0000 0.13171  0.69991  0.61480  Biso   1.000  C
  C2552    1.0000 0.13794  0.73421  0.61715  Biso   1.000  C
  C2553    1.0000 0.16473  0.74428  0.63770  Biso   1.000  C
  H2976    1.0000 0.18220  0.73030  0.63490  Biso   1.000  H
  H2977    1.0000 0.17120  0.76510  0.63190  Biso   1.000  H
  C2554    1.0000 0.15440  0.74380  0.67172  Biso   1.000  C
  C2555    1.0000 0.12590  0.74930  0.68350  Biso   1.000  C
  H2978    1.0000 0.10850  0.75430  0.67120  Biso   1.000  H
  C2556    1.0000 0.12500  0.74670  0.71830  Biso   1.000  C
  H2979    1.0000 0.10710  0.74980  0.73040  Biso   1.000  H
  C2557    1.0000 0.15280  0.73930  0.73020  Biso   1.000  C
  H2980    1.0000 0.15670  0.73650  0.75150  Biso   1.000  H
  S171     1.0000 0.18055  0.73540  0.70123  Biso   1.000  S
  C2558    1.0000 0.11982  0.75348  0.60007  Biso   1.000  C
  H2981    1.0000 0.10540  0.74380  0.58680  Biso   1.000  H
  C2559    1.0000 0.11984  0.78736  0.59969  Biso   1.000  C
  C2560    1.0000 0.12629  0.80945  0.62212  Biso   1.000  C
  H2982    1.0000 0.13450  0.80510  0.64190  Biso   1.000  H
  C2561    1.0000 0.10754  0.83540  0.58201  Biso   1.000  C
  C2562    1.0000 0.09240  0.79170  0.54624  Biso   1.000  C
  C2563    1.0000 0.05717  0.79071  0.55104  Biso   1.000  C
  C2564    1.0000 0.04374  0.79111  0.58087  Biso   1.000  C
  H2983    1.0000 0.05670  0.79120  0.59850  Biso   1.000  H
  C2565    1.0000 0.01170  0.79139  0.58461  Biso   1.000  C
  H2984    1.0000 0.00310  0.79170  0.60470  Biso   1.000  H
  C2566    1.0000 0.99216  0.79117  0.55872  Biso   1.000  C
  C2567    1.0000 0.00536  0.78988  0.52899  Biso   1.000  C
  H2985    1.0000 0.99240  0.78890  0.51140  Biso   1.000  H
  C2568    1.0000 0.03732  0.79004  0.52529  Biso   1.000  C
  H2986    1.0000 0.04580  0.78970  0.50520  Biso   1.000  H
  C2569    1.0000 0.95775  0.79316  0.56265  Biso   1.000  C
  C2570    1.0000 0.09718  0.86148  0.56112  Biso   1.000  C
  H2987    1.0000 0.07910  0.85480  0.54930  Biso   1.000  H
  H2988    1.0000 0.09110  0.87910  0.57380  Biso   1.000  H
  C2571    1.0000 0.12370  0.87100  0.53800  Biso   1.000  C
  H2989    1.0000 0.14230  0.87730  0.54960  Biso   1.000  H
  H2990    1.0000 0.12920  0.85330  0.52470  Biso   1.000  H
  C2572    1.0000 0.11170  0.89870  0.51760  Biso   1.000  C
  H2991    1.0000 0.09110  0.89360  0.50930  Biso   1.000  H
  H2992    1.0000 0.12580  0.90170  0.49990  Biso   1.000  H
  C2573    1.0000 0.10970  0.92940  0.53640  Biso   1.000  C
  H2993    1.0000 0.10230  0.94600  0.52310  Biso   1.000  H
  H2994    1.0000 0.13020  0.93470  0.54430  Biso   1.000  H
  H2995    1.0000 0.09550  0.92670  0.55370  Biso   1.000  H
  N171     1.0000 0.11888  0.83910  0.61119  Biso   1.000  N
  N172     1.0000 0.10794  0.80469  0.57414  Biso   1.000  N
  O341     1.0000 0.15084  0.68060  0.62671  Biso   1.000  O
  O342     1.0000 0.10741  0.68945  0.60118  Biso   1.000  O
  O343     1.0000 0.94883  0.79485  0.59183  Biso   1.000  O
  H2996    1.0000 0.93040  0.79810  0.59740  Biso   1.000  H
  O344     1.0000 0.93897  0.79289  0.54078  Biso   1.000  O
  H2997    1.0000 0.18330  0.73330  0.63110  Biso   1.000  H
  H2998    1.0000 0.16830  0.76630  0.63430  Biso   1.000  H
  C2574    1.0000 0.16040  0.73950  0.67240  Biso   1.000  C
  C2575    1.0000 0.17990  0.72880  0.69440  Biso   1.000  C
  H2999    1.0000 0.20040  0.72250  0.69050  Biso   1.000  H
  C2576    1.0000 0.16480  0.72830  0.72600  Biso   1.000  C
  H3000    1.0000 0.17480  0.72140  0.74420  Biso   1.000  H
  C2577    1.0000 0.13530  0.73890  0.72540  Biso   1.000  C
  H3001    1.0000 0.12230  0.74050  0.74280  Biso   1.000  H
  S172     1.0000 0.12477  0.74897  0.68822  Biso   1.000  S
  H3002    1.0000 0.08910  0.85260  0.54200  Biso   1.000  H
  H3003    1.0000 0.08010  0.87220  0.57130  Biso   1.000  H
  C2578    1.0000 0.12330  0.88470  0.55140  Biso   1.000  C
  H3004    1.0000 0.13480  0.89160  0.56980  Biso   1.000  H
  H3005    1.0000 0.13790  0.87450  0.53730  Biso   1.000  H
  C2579    1.0000 0.10770  0.91340  0.53480  Biso   1.000  C
  H3006    1.0000 0.09300  0.92340  0.54910  Biso   1.000  H
  H3007    1.0000 0.09600  0.90630  0.51660  Biso   1.000  H
  C2580    1.0000 0.13260  0.93730  0.52450  Biso   1.000  C
  H3008    1.0000 0.12260  0.95480  0.51430  Biso   1.000  H
  H3009    1.0000 0.14700  0.92750  0.51010  Biso   1.000  H
  H3010    1.0000 0.14390  0.94470  0.54260  Biso   1.000  H
  C2581    1.0000 0.36829  0.69991  0.38520  Biso   1.000  C
  C2582    1.0000 0.36206  0.73421  0.38285  Biso   1.000  C
  C2583    1.0000 0.33527  0.74428  0.36230  Biso   1.000  C
  H3011    1.0000 0.31780  0.73030  0.36510  Biso   1.000  H
  H3012    1.0000 0.32880  0.76510  0.36810  Biso   1.000  H
  C2584    1.0000 0.34560  0.74380  0.32828  Biso   1.000  C
  C2585    1.0000 0.37410  0.74930  0.31650  Biso   1.000  C
  H3013    1.0000 0.39150  0.75430  0.32880  Biso   1.000  H
  C2586    1.0000 0.37500  0.74670  0.28170  Biso   1.000  C
  H3014    1.0000 0.39290  0.74980  0.26960  Biso   1.000  H
  C2587    1.0000 0.34720  0.73930  0.26980  Biso   1.000  C
  H3015    1.0000 0.34330  0.73650  0.24850  Biso   1.000  H
  S173     1.0000 0.31945  0.73540  0.29877  Biso   1.000  S
  C2588    1.0000 0.38018  0.75348  0.39993  Biso   1.000  C
  H3016    1.0000 0.39460  0.74380  0.41320  Biso   1.000  H
  C2589    1.0000 0.38016  0.78736  0.40031  Biso   1.000  C
  C2590    1.0000 0.37371  0.80945  0.37788  Biso   1.000  C
  H3017    1.0000 0.36550  0.80510  0.35810  Biso   1.000  H
  C2591    1.0000 0.39246  0.83540  0.41799  Biso   1.000  C
  C2592    1.0000 0.40760  0.79170  0.45376  Biso   1.000  C
  C2593    1.0000 0.44283  0.79071  0.44896  Biso   1.000  C
  C2594    1.0000 0.45626  0.79111  0.41913  Biso   1.000  C
  H3018    1.0000 0.44330  0.79120  0.40150  Biso   1.000  H
  C2595    1.0000 0.48830  0.79139  0.41539  Biso   1.000  C
  H3019    1.0000 0.49690  0.79170  0.39530  Biso   1.000  H
  C2596    1.0000 0.50784  0.79117  0.44128  Biso   1.000  C
  C2597    1.0000 0.49464  0.78988  0.47101  Biso   1.000  C
  H3020    1.0000 0.50760  0.78890  0.48860  Biso   1.000  H
  C2598    1.0000 0.46268  0.79004  0.47471  Biso   1.000  C
  H3021    1.0000 0.45420  0.78970  0.49480  Biso   1.000  H
  C2599    1.0000 0.54225  0.79316  0.43735  Biso   1.000  C
  C2600    1.0000 0.40282  0.86148  0.43888  Biso   1.000  C
  H3022    1.0000 0.42090  0.85480  0.45070  Biso   1.000  H
  H3023    1.0000 0.40890  0.87910  0.42620  Biso   1.000  H
  C2601    1.0000 0.37630  0.87100  0.46200  Biso   1.000  C
  H3024    1.0000 0.35770  0.87730  0.45040  Biso   1.000  H
  H3025    1.0000 0.37080  0.85330  0.47530  Biso   1.000  H
  C2602    1.0000 0.38830  0.89870  0.48240  Biso   1.000  C
  H3026    1.0000 0.40890  0.89360  0.49070  Biso   1.000  H
  H3027    1.0000 0.37420  0.90170  0.50010  Biso   1.000  H
  C2603    1.0000 0.39030  0.92940  0.46360  Biso   1.000  C
  H3028    1.0000 0.39770  0.94600  0.47690  Biso   1.000  H
  H3029    1.0000 0.36980  0.93470  0.45570  Biso   1.000  H
  H3030    1.0000 0.40450  0.92670  0.44630  Biso   1.000  H
  N173     1.0000 0.38112  0.83910  0.38881  Biso   1.000  N
  N174     1.0000 0.39206  0.80469  0.42586  Biso   1.000  N
  O345     1.0000 0.34916  0.68060  0.37329  Biso   1.000  O
  O346     1.0000 0.39259  0.68945  0.39882  Biso   1.000  O
  O347     1.0000 0.55117  0.79485  0.40817  Biso   1.000  O
  H3031    1.0000 0.56960  0.79810  0.40260  Biso   1.000  H
  O348     1.0000 0.56103  0.79289  0.45922  Biso   1.000  O
  H3032    1.0000 0.31670  0.73330  0.36890  Biso   1.000  H
  H3033    1.0000 0.33170  0.76630  0.36570  Biso   1.000  H
  C2604    1.0000 0.33960  0.73950  0.32760  Biso   1.000  C
  C2605    1.0000 0.32010  0.72880  0.30560  Biso   1.000  C
  H3034    1.0000 0.29960  0.72250  0.30950  Biso   1.000  H
  C2606    1.0000 0.33520  0.72830  0.27400  Biso   1.000  C
  H3035    1.0000 0.32520  0.72140  0.25580  Biso   1.000  H
  C2607    1.0000 0.36470  0.73890  0.27460  Biso   1.000  C
  H3036    1.0000 0.37770  0.74050  0.25720  Biso   1.000  H
  S174     1.0000 0.37523  0.74897  0.31178  Biso   1.000  S
  H3037    1.0000 0.41090  0.85260  0.45800  Biso   1.000  H
  H3038    1.0000 0.41990  0.87220  0.42870  Biso   1.000  H
  C2608    1.0000 0.37670  0.88470  0.44860  Biso   1.000  C
  H3039    1.0000 0.36520  0.89160  0.43020  Biso   1.000  H
  H3040    1.0000 0.36210  0.87450  0.46270  Biso   1.000  H
  C2609    1.0000 0.39230  0.91340  0.46520  Biso   1.000  C
  H3041    1.0000 0.40700  0.92340  0.45090  Biso   1.000  H
  H3042    1.0000 0.40400  0.90630  0.48340  Biso   1.000  H
  C2610    1.0000 0.36740  0.93730  0.47550  Biso   1.000  C
  H3043    1.0000 0.37740  0.95480  0.48570  Biso   1.000  H
  H3044    1.0000 0.35300  0.92750  0.48990  Biso   1.000  H
  H3045    1.0000 0.35610  0.94470  0.45740  Biso   1.000  H
  C2611    1.0000 0.86829  0.19991  0.88520  Biso   1.000  C
  C2612    1.0000 0.86206  0.23421  0.88285  Biso   1.000  C
  C2613    1.0000 0.83527  0.24428  0.86230  Biso   1.000  C
  H3046    1.0000 0.81780  0.23030  0.86510  Biso   1.000  H
  H3047    1.0000 0.82880  0.26510  0.86810  Biso   1.000  H
  C2614    1.0000 0.84560  0.24380  0.82828  Biso   1.000  C
  C2615    1.0000 0.87410  0.24930  0.81650  Biso   1.000  C
  H3048    1.0000 0.89150  0.25430  0.82880  Biso   1.000  H
  C2616    1.0000 0.87500  0.24670  0.78170  Biso   1.000  C
  H3049    1.0000 0.89290  0.24980  0.76960  Biso   1.000  H
  C2617    1.0000 0.84720  0.23930  0.76980  Biso   1.000  C
  H3050    1.0000 0.84330  0.23650  0.74850  Biso   1.000  H
  S175     1.0000 0.81945  0.23540  0.79877  Biso   1.000  S
  C2618    1.0000 0.88018  0.25348  0.89993  Biso   1.000  C
  H3051    1.0000 0.89460  0.24380  0.91320  Biso   1.000  H
  C2619    1.0000 0.88016  0.28736  0.90031  Biso   1.000  C
  C2620    1.0000 0.87371  0.30945  0.87788  Biso   1.000  C
  H3052    1.0000 0.86550  0.30510  0.85810  Biso   1.000  H
  C2621    1.0000 0.89246  0.33540  0.91799  Biso   1.000  C
  C2622    1.0000 0.90760  0.29170  0.95376  Biso   1.000  C
  C2623    1.0000 0.94283  0.29071  0.94896  Biso   1.000  C
  C2624    1.0000 0.95626  0.29111  0.91913  Biso   1.000  C
  H3053    1.0000 0.94330  0.29120  0.90150  Biso   1.000  H
  C2625    1.0000 0.98830  0.29139  0.91539  Biso   1.000  C
  H3054    1.0000 0.99690  0.29170  0.89530  Biso   1.000  H
  C2626    1.0000 0.00784  0.29117  0.94128  Biso   1.000  C
  C2627    1.0000 0.99464  0.28988  0.97101  Biso   1.000  C
  H3055    1.0000 0.00760  0.28890  0.98860  Biso   1.000  H
  C2628    1.0000 0.96268  0.29004  0.97471  Biso   1.000  C
  H3056    1.0000 0.95420  0.28970  0.99480  Biso   1.000  H
  C2629    1.0000 0.04225  0.29316  0.93735  Biso   1.000  C
  C2630    1.0000 0.90282  0.36148  0.93888  Biso   1.000  C
  H3057    1.0000 0.92090  0.35480  0.95070  Biso   1.000  H
  H3058    1.0000 0.90890  0.37910  0.92620  Biso   1.000  H
  C2631    1.0000 0.87630  0.37100  0.96200  Biso   1.000  C
  H3059    1.0000 0.85770  0.37730  0.95040  Biso   1.000  H
  H3060    1.0000 0.87080  0.35330  0.97530  Biso   1.000  H
  C2632    1.0000 0.88830  0.39870  0.98240  Biso   1.000  C
  H3061    1.0000 0.90890  0.39360  0.99070  Biso   1.000  H
  H3062    1.0000 0.87420  0.40170  0.00010  Biso   1.000  H
  C2633    1.0000 0.89030  0.42940  0.96360  Biso   1.000  C
  H3063    1.0000 0.89770  0.44600  0.97690  Biso   1.000  H
  H3064    1.0000 0.86980  0.43470  0.95570  Biso   1.000  H
  H3065    1.0000 0.90450  0.42670  0.94630  Biso   1.000  H
  N175     1.0000 0.88112  0.33910  0.88881  Biso   1.000  N
  N176     1.0000 0.89206  0.30469  0.92586  Biso   1.000  N
  O349     1.0000 0.84916  0.18060  0.87329  Biso   1.000  O
  O350     1.0000 0.89259  0.18945  0.89882  Biso   1.000  O
  O351     1.0000 0.05117  0.29485  0.90817  Biso   1.000  O
  H3066    1.0000 0.06960  0.29810  0.90260  Biso   1.000  H
  O352     1.0000 0.06103  0.29289  0.95922  Biso   1.000  O
  H3067    1.0000 0.81670  0.23330  0.86890  Biso   1.000  H
  H3068    1.0000 0.83170  0.26630  0.86570  Biso   1.000  H
  C2634    1.0000 0.83960  0.23950  0.82760  Biso   1.000  C
  C2635    1.0000 0.82010  0.22880  0.80560  Biso   1.000  C
  H3069    1.0000 0.79960  0.22250  0.80950  Biso   1.000  H
  C2636    1.0000 0.83520  0.22830  0.77400  Biso   1.000  C
  H3070    1.0000 0.82520  0.22140  0.75580  Biso   1.000  H
  C2637    1.0000 0.86470  0.23890  0.77460  Biso   1.000  C
  H3071    1.0000 0.87770  0.24050  0.75720  Biso   1.000  H
  S176     1.0000 0.87523  0.24897  0.81178  Biso   1.000  S
  H3072    1.0000 0.91090  0.35260  0.95800  Biso   1.000  H
  H3073    1.0000 0.91990  0.37220  0.92870  Biso   1.000  H
  C2638    1.0000 0.87670  0.38470  0.94860  Biso   1.000  C
  H3074    1.0000 0.86520  0.39160  0.93020  Biso   1.000  H
  H3075    1.0000 0.86210  0.37450  0.96270  Biso   1.000  H
  C2639    1.0000 0.89230  0.41340  0.96520  Biso   1.000  C
  H3076    1.0000 0.90700  0.42340  0.95090  Biso   1.000  H
  H3077    1.0000 0.90400  0.40630  0.98340  Biso   1.000  H
  C2640    1.0000 0.86740  0.43730  0.97550  Biso   1.000  C
  H3078    1.0000 0.87740  0.45480  0.98570  Biso   1.000  H
  H3079    1.0000 0.85300  0.42750  0.98990  Biso   1.000  H
  H3080    1.0000 0.85610  0.44470  0.95740  Biso   1.000  H
  C2641    1.0000 0.30009  0.88520  0.13171  Biso   1.000  C
  C2642    1.0000 0.26579  0.88285  0.13794  Biso   1.000  C
  C2643    1.0000 0.25572  0.86230  0.16473  Biso   1.000  C
  H3081    1.0000 0.26970  0.86510  0.18220  Biso   1.000  H
  H3082    1.0000 0.23490  0.86810  0.17120  Biso   1.000  H
  C2644    1.0000 0.25620  0.82828  0.15440  Biso   1.000  C
  C2645    1.0000 0.25070  0.81650  0.12590  Biso   1.000  C
  H3083    1.0000 0.24570  0.82880  0.10850  Biso   1.000  H
  C2646    1.0000 0.25330  0.78170  0.12500  Biso   1.000  C
  H3084    1.0000 0.25020  0.76960  0.10710  Biso   1.000  H
  C2647    1.0000 0.26070  0.76980  0.15280  Biso   1.000  C
  H3085    1.0000 0.26350  0.74850  0.15670  Biso   1.000  H
  S177     1.0000 0.26460  0.79877  0.18055  Biso   1.000  S
  C2648    1.0000 0.24652  0.89993  0.11982  Biso   1.000  C
  H3086    1.0000 0.25620  0.91320  0.10540  Biso   1.000  H
  C2649    1.0000 0.21264  0.90031  0.11984  Biso   1.000  C
  C2650    1.0000 0.19055  0.87788  0.12629  Biso   1.000  C
  H3087    1.0000 0.19490  0.85810  0.13450  Biso   1.000  H
  C2651    1.0000 0.16460  0.91799  0.10754  Biso   1.000  C
  C2652    1.0000 0.20830  0.95376  0.09240  Biso   1.000  C
  C2653    1.0000 0.20929  0.94896  0.05717  Biso   1.000  C
  C2654    1.0000 0.20889  0.91913  0.04374  Biso   1.000  C
  H3088    1.0000 0.20880  0.90150  0.05670  Biso   1.000  H
  C2655    1.0000 0.20861  0.91539  0.01170  Biso   1.000  C
  H3089    1.0000 0.20830  0.89530  0.00310  Biso   1.000  H
  C2656    1.0000 0.20883  0.94128  0.99216  Biso   1.000  C
  C2657    1.0000 0.21012  0.97101  0.00536  Biso   1.000  C
  H3090    1.0000 0.21110  0.98860  0.99240  Biso   1.000  H
  C2658    1.0000 0.20996  0.97471  0.03732  Biso   1.000  C
  H3091    1.0000 0.21030  0.99480  0.04580  Biso   1.000  H
  C2659    1.0000 0.20684  0.93735  0.95775  Biso   1.000  C
  C2660    1.0000 0.13852  0.93888  0.09718  Biso   1.000  C
  H3092    1.0000 0.14520  0.95070  0.07910  Biso   1.000  H
  H3093    1.0000 0.12090  0.92620  0.09110  Biso   1.000  H
  C2661    1.0000 0.12900  0.96200  0.12370  Biso   1.000  C
  H3094    1.0000 0.12270  0.95040  0.14230  Biso   1.000  H
  H3095    1.0000 0.14670  0.97530  0.12920  Biso   1.000  H
  C2662    1.0000 0.10130  0.98240  0.11170  Biso   1.000  C
  H3096    1.0000 0.10640  0.99070  0.09110  Biso   1.000  H
  H3097    1.0000 0.09830  0.00010  0.12580  Biso   1.000  H
  C2663    1.0000 0.07060  0.96360  0.10970  Biso   1.000  C
  H3098    1.0000 0.05400  0.97690  0.10230  Biso   1.000  H
  H3099    1.0000 0.06530  0.95570  0.13020  Biso   1.000  H
  H3100    1.0000 0.07330  0.94630  0.09550  Biso   1.000  H
  N177     1.0000 0.16090  0.88881  0.11888  Biso   1.000  N
  N178     1.0000 0.19531  0.92586  0.10794  Biso   1.000  N
  O353     1.0000 0.31940  0.87329  0.15084  Biso   1.000  O
  O354     1.0000 0.31055  0.89882  0.10741  Biso   1.000  O
  O355     1.0000 0.20515  0.90817  0.94883  Biso   1.000  O
  H3101    1.0000 0.20190  0.90260  0.93040  Biso   1.000  H
  O356     1.0000 0.20711  0.95922  0.93897  Biso   1.000  O
  H3102    1.0000 0.26670  0.86890  0.18330  Biso   1.000  H
  H3103    1.0000 0.23370  0.86570  0.16830  Biso   1.000  H
  C2664    1.0000 0.26050  0.82760  0.16040  Biso   1.000  C
  C2665    1.0000 0.27120  0.80560  0.17990  Biso   1.000  C
  H3104    1.0000 0.27750  0.80950  0.20040  Biso   1.000  H
  C2666    1.0000 0.27170  0.77400  0.16480  Biso   1.000  C
  H3105    1.0000 0.27860  0.75580  0.17480  Biso   1.000  H
  C2667    1.0000 0.26110  0.77460  0.13530  Biso   1.000  C
  H3106    1.0000 0.25950  0.75720  0.12230  Biso   1.000  H
  S178     1.0000 0.25103  0.81178  0.12477  Biso   1.000  S
  H3107    1.0000 0.14740  0.95800  0.08910  Biso   1.000  H
  H3108    1.0000 0.12780  0.92870  0.08010  Biso   1.000  H
  C2668    1.0000 0.11530  0.94860  0.12330  Biso   1.000  C
  H3109    1.0000 0.10840  0.93020  0.13480  Biso   1.000  H
  H3110    1.0000 0.12550  0.96270  0.13790  Biso   1.000  H
  C2669    1.0000 0.08660  0.96520  0.10770  Biso   1.000  C
  H3111    1.0000 0.07660  0.95090  0.09300  Biso   1.000  H
  H3112    1.0000 0.09370  0.98340  0.09600  Biso   1.000  H
  C2670    1.0000 0.06270  0.97550  0.13260  Biso   1.000  C
  H3113    1.0000 0.04520  0.98570  0.12260  Biso   1.000  H
  H3114    1.0000 0.07250  0.98990  0.14700  Biso   1.000  H
  H3115    1.0000 0.05530  0.95740  0.14390  Biso   1.000  H
  C2671    1.0000 0.80009  0.38520  0.63171  Biso   1.000  C
  C2672    1.0000 0.76579  0.38285  0.63794  Biso   1.000  C
  C2673    1.0000 0.75572  0.36230  0.66473  Biso   1.000  C
  H3116    1.0000 0.76970  0.36510  0.68220  Biso   1.000  H
  H3117    1.0000 0.73490  0.36810  0.67120  Biso   1.000  H
  C2674    1.0000 0.75620  0.32828  0.65440  Biso   1.000  C
  C2675    1.0000 0.75070  0.31650  0.62590  Biso   1.000  C
  H3118    1.0000 0.74570  0.32880  0.60850  Biso   1.000  H
  C2676    1.0000 0.75330  0.28170  0.62500  Biso   1.000  C
  H3119    1.0000 0.75020  0.26960  0.60710  Biso   1.000  H
  C2677    1.0000 0.76070  0.26980  0.65280  Biso   1.000  C
  H3120    1.0000 0.76350  0.24850  0.65670  Biso   1.000  H
  S179     1.0000 0.76460  0.29877  0.68055  Biso   1.000  S
  C2678    1.0000 0.74652  0.39993  0.61982  Biso   1.000  C
  H3121    1.0000 0.75620  0.41320  0.60540  Biso   1.000  H
  C2679    1.0000 0.71264  0.40031  0.61984  Biso   1.000  C
  C2680    1.0000 0.69055  0.37788  0.62629  Biso   1.000  C
  H3122    1.0000 0.69490  0.35810  0.63450  Biso   1.000  H
  C2681    1.0000 0.66460  0.41799  0.60754  Biso   1.000  C
  C2682    1.0000 0.70830  0.45376  0.59240  Biso   1.000  C
  C2683    1.0000 0.70929  0.44896  0.55717  Biso   1.000  C
  C2684    1.0000 0.70889  0.41913  0.54374  Biso   1.000  C
  H3123    1.0000 0.70880  0.40150  0.55670  Biso   1.000  H
  C2685    1.0000 0.70861  0.41539  0.51170  Biso   1.000  C
  H3124    1.0000 0.70830  0.39530  0.50310  Biso   1.000  H
  C2686    1.0000 0.70883  0.44128  0.49216  Biso   1.000  C
  C2687    1.0000 0.71012  0.47101  0.50536  Biso   1.000  C
  H3125    1.0000 0.71110  0.48860  0.49240  Biso   1.000  H
  C2688    1.0000 0.70996  0.47471  0.53732  Biso   1.000  C
  H3126    1.0000 0.71030  0.49480  0.54580  Biso   1.000  H
  C2689    1.0000 0.70684  0.43735  0.45775  Biso   1.000  C
  C2690    1.0000 0.63852  0.43888  0.59718  Biso   1.000  C
  H3127    1.0000 0.64520  0.45070  0.57910  Biso   1.000  H
  H3128    1.0000 0.62090  0.42620  0.59110  Biso   1.000  H
  C2691    1.0000 0.62900  0.46200  0.62370  Biso   1.000  C
  H3129    1.0000 0.62270  0.45040  0.64230  Biso   1.000  H
  H3130    1.0000 0.64670  0.47530  0.62920  Biso   1.000  H
  C2692    1.0000 0.60130  0.48240  0.61170  Biso   1.000  C
  H3131    1.0000 0.60640  0.49070  0.59110  Biso   1.000  H
  H3132    1.0000 0.59830  0.50010  0.62580  Biso   1.000  H
  C2693    1.0000 0.57060  0.46360  0.60970  Biso   1.000  C
  H3133    1.0000 0.55400  0.47690  0.60230  Biso   1.000  H
  H3134    1.0000 0.56530  0.45570  0.63020  Biso   1.000  H
  H3135    1.0000 0.57330  0.44630  0.59550  Biso   1.000  H
  N179     1.0000 0.66090  0.38881  0.61888  Biso   1.000  N
  N180     1.0000 0.69531  0.42586  0.60794  Biso   1.000  N
  O357     1.0000 0.81940  0.37329  0.65084  Biso   1.000  O
  O358     1.0000 0.81055  0.39882  0.60741  Biso   1.000  O
  O359     1.0000 0.70515  0.40817  0.44883  Biso   1.000  O
  H3136    1.0000 0.70190  0.40260  0.43040  Biso   1.000  H
  O360     1.0000 0.70711  0.45922  0.43897  Biso   1.000  O
  H3137    1.0000 0.76670  0.36890  0.68330  Biso   1.000  H
  H3138    1.0000 0.73370  0.36570  0.66830  Biso   1.000  H
  C2694    1.0000 0.76050  0.32760  0.66040  Biso   1.000  C
  C2695    1.0000 0.77120  0.30560  0.67990  Biso   1.000  C
  H3139    1.0000 0.77750  0.30950  0.70040  Biso   1.000  H
  C2696    1.0000 0.77170  0.27400  0.66480  Biso   1.000  C
  H3140    1.0000 0.77860  0.25580  0.67480  Biso   1.000  H
  C2697    1.0000 0.76110  0.27460  0.63530  Biso   1.000  C
  H3141    1.0000 0.75950  0.25720  0.62230  Biso   1.000  H
  S180     1.0000 0.75103  0.31178  0.62477  Biso   1.000  S
  H3142    1.0000 0.64740  0.45800  0.58910  Biso   1.000  H
  H3143    1.0000 0.62780  0.42870  0.58010  Biso   1.000  H
  C2698    1.0000 0.61530  0.44860  0.62330  Biso   1.000  C
  H3144    1.0000 0.60840  0.43020  0.63480  Biso   1.000  H
  H3145    1.0000 0.62550  0.46270  0.63790  Biso   1.000  H
  C2699    1.0000 0.58660  0.46520  0.60770  Biso   1.000  C
  H3146    1.0000 0.57660  0.45090  0.59300  Biso   1.000  H
  H3147    1.0000 0.59370  0.48340  0.59600  Biso   1.000  H
  C2700    1.0000 0.56270  0.47550  0.63260  Biso   1.000  C
  H3148    1.0000 0.54520  0.48570  0.62260  Biso   1.000  H
  H3149    1.0000 0.57250  0.48990  0.64700  Biso   1.000  H
  H3150    1.0000 0.55530  0.45740  0.64390  Biso   1.000  H
  C2701    1.0000 0.80009  0.61480  0.86829  Biso   1.000  C
  C2702    1.0000 0.76579  0.61715  0.86206  Biso   1.000  C
  C2703    1.0000 0.75572  0.63770  0.83527  Biso   1.000  C
  H3151    1.0000 0.76970  0.63490  0.81780  Biso   1.000  H
  H3152    1.0000 0.73490  0.63190  0.82880  Biso   1.000  H
  C2704    1.0000 0.75620  0.67172  0.84560  Biso   1.000  C
  C2705    1.0000 0.75070  0.68350  0.87410  Biso   1.000  C
  H3153    1.0000 0.74570  0.67120  0.89150  Biso   1.000  H
  C2706    1.0000 0.75330  0.71830  0.87500  Biso   1.000  C
  H3154    1.0000 0.75020  0.73040  0.89290  Biso   1.000  H
  C2707    1.0000 0.76070  0.73020  0.84720  Biso   1.000  C
  H3155    1.0000 0.76350  0.75150  0.84330  Biso   1.000  H
  S181     1.0000 0.76460  0.70123  0.81945  Biso   1.000  S
  C2708    1.0000 0.74652  0.60007  0.88018  Biso   1.000  C
  H3156    1.0000 0.75620  0.58680  0.89460  Biso   1.000  H
  C2709    1.0000 0.71264  0.59969  0.88016  Biso   1.000  C
  C2710    1.0000 0.69055  0.62212  0.87371  Biso   1.000  C
  H3157    1.0000 0.69490  0.64190  0.86550  Biso   1.000  H
  C2711    1.0000 0.66460  0.58201  0.89246  Biso   1.000  C
  C2712    1.0000 0.70830  0.54624  0.90760  Biso   1.000  C
  C2713    1.0000 0.70929  0.55104  0.94283  Biso   1.000  C
  C2714    1.0000 0.70889  0.58087  0.95626  Biso   1.000  C
  H3158    1.0000 0.70880  0.59850  0.94330  Biso   1.000  H
  C2715    1.0000 0.70861  0.58461  0.98830  Biso   1.000  C
  H3159    1.0000 0.70830  0.60470  0.99690  Biso   1.000  H
  C2716    1.0000 0.70883  0.55872  0.00784  Biso   1.000  C
  C2717    1.0000 0.71012  0.52899  0.99464  Biso   1.000  C
  H3160    1.0000 0.71110  0.51140  0.00760  Biso   1.000  H
  C2718    1.0000 0.70996  0.52529  0.96268  Biso   1.000  C
  H3161    1.0000 0.71030  0.50520  0.95420  Biso   1.000  H
  C2719    1.0000 0.70684  0.56265  0.04225  Biso   1.000  C
  C2720    1.0000 0.63852  0.56112  0.90282  Biso   1.000  C
  H3162    1.0000 0.64520  0.54930  0.92090  Biso   1.000  H
  H3163    1.0000 0.62090  0.57380  0.90890  Biso   1.000  H
  C2721    1.0000 0.62900  0.53800  0.87630  Biso   1.000  C
  H3164    1.0000 0.62270  0.54960  0.85770  Biso   1.000  H
  H3165    1.0000 0.64670  0.52470  0.87080  Biso   1.000  H
  C2722    1.0000 0.60130  0.51760  0.88830  Biso   1.000  C
  H3166    1.0000 0.60640  0.50930  0.90890  Biso   1.000  H
  H3167    1.0000 0.59830  0.49990  0.87420  Biso   1.000  H
  C2723    1.0000 0.57060  0.53640  0.89030  Biso   1.000  C
  H3168    1.0000 0.55400  0.52310  0.89770  Biso   1.000  H
  H3169    1.0000 0.56530  0.54430  0.86980  Biso   1.000  H
  H3170    1.0000 0.57330  0.55370  0.90450  Biso   1.000  H
  N181     1.0000 0.66090  0.61119  0.88112  Biso   1.000  N
  N182     1.0000 0.69531  0.57414  0.89206  Biso   1.000  N
  O361     1.0000 0.81940  0.62671  0.84916  Biso   1.000  O
  O362     1.0000 0.81055  0.60118  0.89259  Biso   1.000  O
  O363     1.0000 0.70515  0.59183  0.05117  Biso   1.000  O
  H3171    1.0000 0.70190  0.59740  0.06960  Biso   1.000  H
  O364     1.0000 0.70711  0.54078  0.06103  Biso   1.000  O
  H3172    1.0000 0.76670  0.63110  0.81670  Biso   1.000  H
  H3173    1.0000 0.73370  0.63430  0.83170  Biso   1.000  H
  C2724    1.0000 0.76050  0.67240  0.83960  Biso   1.000  C
  C2725    1.0000 0.77120  0.69440  0.82010  Biso   1.000  C
  H3174    1.0000 0.77750  0.69050  0.79960  Biso   1.000  H
  C2726    1.0000 0.77170  0.72600  0.83520  Biso   1.000  C
  H3175    1.0000 0.77860  0.74420  0.82520  Biso   1.000  H
  C2727    1.0000 0.76110  0.72540  0.86470  Biso   1.000  C
  H3176    1.0000 0.75950  0.74280  0.87770  Biso   1.000  H
  S182     1.0000 0.75103  0.68822  0.87523  Biso   1.000  S
  H3177    1.0000 0.64740  0.54200  0.91090  Biso   1.000  H
  H3178    1.0000 0.62780  0.57130  0.91990  Biso   1.000  H
  C2728    1.0000 0.61530  0.55140  0.87670  Biso   1.000  C
  H3179    1.0000 0.60840  0.56980  0.86520  Biso   1.000  H
  H3180    1.0000 0.62550  0.53730  0.86210  Biso   1.000  H
  C2729    1.0000 0.58660  0.53480  0.89230  Biso   1.000  C
  H3181    1.0000 0.57660  0.54910  0.90700  Biso   1.000  H
  H3182    1.0000 0.59370  0.51660  0.90400  Biso   1.000  H
  C2730    1.0000 0.56270  0.52450  0.86740  Biso   1.000  C
  H3183    1.0000 0.54520  0.51430  0.87740  Biso   1.000  H
  H3184    1.0000 0.57250  0.51010  0.85300  Biso   1.000  H
  H3185    1.0000 0.55530  0.54260  0.85610  Biso   1.000  H
  C2731    1.0000 0.30009  0.11480  0.36829  Biso   1.000  C
  C2732    1.0000 0.26579  0.11715  0.36206  Biso   1.000  C
  C2733    1.0000 0.25572  0.13770  0.33527  Biso   1.000  C
  H3186    1.0000 0.26970  0.13490  0.31780  Biso   1.000  H
  H3187    1.0000 0.23490  0.13190  0.32880  Biso   1.000  H
  C2734    1.0000 0.25620  0.17172  0.34560  Biso   1.000  C
  C2735    1.0000 0.25070  0.18350  0.37410  Biso   1.000  C
  H3188    1.0000 0.24570  0.17120  0.39150  Biso   1.000  H
  C2736    1.0000 0.25330  0.21830  0.37500  Biso   1.000  C
  H3189    1.0000 0.25020  0.23040  0.39290  Biso   1.000  H
  C2737    1.0000 0.26070  0.23020  0.34720  Biso   1.000  C
  H3190    1.0000 0.26350  0.25150  0.34330  Biso   1.000  H
  S183     1.0000 0.26460  0.20123  0.31945  Biso   1.000  S
  C2738    1.0000 0.24652  0.10007  0.38018  Biso   1.000  C
  H3191    1.0000 0.25620  0.08680  0.39460  Biso   1.000  H
  C2739    1.0000 0.21264  0.09969  0.38016  Biso   1.000  C
  C2740    1.0000 0.19055  0.12212  0.37371  Biso   1.000  C
  H3192    1.0000 0.19490  0.14190  0.36550  Biso   1.000  H
  C2741    1.0000 0.16460  0.08201  0.39246  Biso   1.000  C
  C2742    1.0000 0.20830  0.04624  0.40760  Biso   1.000  C
  C2743    1.0000 0.20929  0.05104  0.44283  Biso   1.000  C
  C2744    1.0000 0.20889  0.08087  0.45626  Biso   1.000  C
  H3193    1.0000 0.20880  0.09850  0.44330  Biso   1.000  H
  C2745    1.0000 0.20861  0.08461  0.48830  Biso   1.000  C
  H3194    1.0000 0.20830  0.10470  0.49690  Biso   1.000  H
  C2746    1.0000 0.20883  0.05872  0.50784  Biso   1.000  C
  C2747    1.0000 0.21012  0.02899  0.49464  Biso   1.000  C
  H3195    1.0000 0.21110  0.01140  0.50760  Biso   1.000  H
  C2748    1.0000 0.20996  0.02529  0.46268  Biso   1.000  C
  H3196    1.0000 0.21030  0.00520  0.45420  Biso   1.000  H
  C2749    1.0000 0.20684  0.06265  0.54225  Biso   1.000  C
  C2750    1.0000 0.13852  0.06112  0.40282  Biso   1.000  C
  H3197    1.0000 0.14520  0.04930  0.42090  Biso   1.000  H
  H3198    1.0000 0.12090  0.07380  0.40890  Biso   1.000  H
  C2751    1.0000 0.12900  0.03800  0.37630  Biso   1.000  C
  H3199    1.0000 0.12270  0.04960  0.35770  Biso   1.000  H
  H3200    1.0000 0.14670  0.02470  0.37080  Biso   1.000  H
  C2752    1.0000 0.10130  0.01760  0.38830  Biso   1.000  C
  H3201    1.0000 0.10640  0.00930  0.40890  Biso   1.000  H
  H3202    1.0000 0.09830  0.99990  0.37420  Biso   1.000  H
  C2753    1.0000 0.07060  0.03640  0.39030  Biso   1.000  C
  H3203    1.0000 0.05400  0.02310  0.39770  Biso   1.000  H
  H3204    1.0000 0.06530  0.04430  0.36980  Biso   1.000  H
  H3205    1.0000 0.07330  0.05370  0.40450  Biso   1.000  H
  N183     1.0000 0.16090  0.11119  0.38112  Biso   1.000  N
  N184     1.0000 0.19531  0.07414  0.39206  Biso   1.000  N
  O365     1.0000 0.31940  0.12671  0.34916  Biso   1.000  O
  O366     1.0000 0.31055  0.10118  0.39259  Biso   1.000  O
  O367     1.0000 0.20515  0.09183  0.55117  Biso   1.000  O
  H3206    1.0000 0.20190  0.09740  0.56960  Biso   1.000  H
  O368     1.0000 0.20711  0.04078  0.56103  Biso   1.000  O
  H3207    1.0000 0.26670  0.13110  0.31670  Biso   1.000  H
  H3208    1.0000 0.23370  0.13430  0.33170  Biso   1.000  H
  C2754    1.0000 0.26050  0.17240  0.33960  Biso   1.000  C
  C2755    1.0000 0.27120  0.19440  0.32010  Biso   1.000  C
  H3209    1.0000 0.27750  0.19050  0.29960  Biso   1.000  H
  C2756    1.0000 0.27170  0.22600  0.33520  Biso   1.000  C
  H3210    1.0000 0.27860  0.24420  0.32520  Biso   1.000  H
  C2757    1.0000 0.26110  0.22540  0.36470  Biso   1.000  C
  H3211    1.0000 0.25950  0.24280  0.37770  Biso   1.000  H
  S184     1.0000 0.25103  0.18822  0.37523  Biso   1.000  S
  H3212    1.0000 0.14740  0.04200  0.41090  Biso   1.000  H
  H3213    1.0000 0.12780  0.07130  0.41990  Biso   1.000  H
  C2758    1.0000 0.11530  0.05140  0.37670  Biso   1.000  C
  H3214    1.0000 0.10840  0.06980  0.36520  Biso   1.000  H
  H3215    1.0000 0.12550  0.03730  0.36210  Biso   1.000  H
  C2759    1.0000 0.08660  0.03480  0.39230  Biso   1.000  C
  H3216    1.0000 0.07660  0.04910  0.40700  Biso   1.000  H
  H3217    1.0000 0.09370  0.01660  0.40400  Biso   1.000  H
  C2760    1.0000 0.06270  0.02450  0.36740  Biso   1.000  C
  H3218    1.0000 0.04520  0.01430  0.37740  Biso   1.000  H
  H3219    1.0000 0.07250  0.01010  0.35300  Biso   1.000  H
  H3220    1.0000 0.05530  0.04260  0.35610  Biso   1.000  H
  C2761    1.0000 0.69991  0.38520  0.36829  Biso   1.000  C
  C2762    1.0000 0.73421  0.38285  0.36206  Biso   1.000  C
  C2763    1.0000 0.74428  0.36230  0.33527  Biso   1.000  C
  H3221    1.0000 0.73030  0.36510  0.31780  Biso   1.000  H
  H3222    1.0000 0.76510  0.36810  0.32880  Biso   1.000  H
  C2764    1.0000 0.74380  0.32828  0.34560  Biso   1.000  C
  C2765    1.0000 0.74930  0.31650  0.37410  Biso   1.000  C
  H3223    1.0000 0.75430  0.32880  0.39150  Biso   1.000  H
  C2766    1.0000 0.74670  0.28170  0.37500  Biso   1.000  C
  H3224    1.0000 0.74980  0.26960  0.39290  Biso   1.000  H
  C2767    1.0000 0.73930  0.26980  0.34720  Biso   1.000  C
  H3225    1.0000 0.73650  0.24850  0.34330  Biso   1.000  H
  S185     1.0000 0.73540  0.29877  0.31945  Biso   1.000  S
  C2768    1.0000 0.75348  0.39993  0.38018  Biso   1.000  C
  H3226    1.0000 0.74380  0.41320  0.39460  Biso   1.000  H
  C2769    1.0000 0.78736  0.40031  0.38016  Biso   1.000  C
  C2770    1.0000 0.80945  0.37788  0.37371  Biso   1.000  C
  H3227    1.0000 0.80510  0.35810  0.36550  Biso   1.000  H
  C2771    1.0000 0.83540  0.41799  0.39246  Biso   1.000  C
  C2772    1.0000 0.79170  0.45376  0.40760  Biso   1.000  C
  C2773    1.0000 0.79071  0.44896  0.44283  Biso   1.000  C
  C2774    1.0000 0.79111  0.41913  0.45626  Biso   1.000  C
  H3228    1.0000 0.79120  0.40150  0.44330  Biso   1.000  H
  C2775    1.0000 0.79139  0.41539  0.48830  Biso   1.000  C
  H3229    1.0000 0.79170  0.39530  0.49690  Biso   1.000  H
  C2776    1.0000 0.79117  0.44128  0.50784  Biso   1.000  C
  C2777    1.0000 0.78988  0.47101  0.49464  Biso   1.000  C
  H3230    1.0000 0.78890  0.48860  0.50760  Biso   1.000  H
  C2778    1.0000 0.79004  0.47471  0.46268  Biso   1.000  C
  H3231    1.0000 0.78970  0.49480  0.45420  Biso   1.000  H
  C2779    1.0000 0.79316  0.43735  0.54225  Biso   1.000  C
  C2780    1.0000 0.86148  0.43888  0.40282  Biso   1.000  C
  H3232    1.0000 0.85480  0.45070  0.42090  Biso   1.000  H
  H3233    1.0000 0.87910  0.42620  0.40890  Biso   1.000  H
  C2781    1.0000 0.87100  0.46200  0.37630  Biso   1.000  C
  H3234    1.0000 0.87730  0.45040  0.35770  Biso   1.000  H
  H3235    1.0000 0.85330  0.47530  0.37080  Biso   1.000  H
  C2782    1.0000 0.89870  0.48240  0.38830  Biso   1.000  C
  H3236    1.0000 0.89360  0.49070  0.40890  Biso   1.000  H
  H3237    1.0000 0.90170  0.50010  0.37420  Biso   1.000  H
  C2783    1.0000 0.92940  0.46360  0.39030  Biso   1.000  C
  H3238    1.0000 0.94600  0.47690  0.39770  Biso   1.000  H
  H3239    1.0000 0.93470  0.45570  0.36980  Biso   1.000  H
  H3240    1.0000 0.92670  0.44630  0.40450  Biso   1.000  H
  N185     1.0000 0.83910  0.38881  0.38112  Biso   1.000  N
  N186     1.0000 0.80469  0.42586  0.39206  Biso   1.000  N
  O369     1.0000 0.68060  0.37329  0.34916  Biso   1.000  O
  O370     1.0000 0.68945  0.39882  0.39259  Biso   1.000  O
  O371     1.0000 0.79485  0.40817  0.55117  Biso   1.000  O
  H3241    1.0000 0.79810  0.40260  0.56960  Biso   1.000  H
  O372     1.0000 0.79289  0.45922  0.56103  Biso   1.000  O
  H3242    1.0000 0.73330  0.36890  0.31670  Biso   1.000  H
  H3243    1.0000 0.76630  0.36570  0.33170  Biso   1.000  H
  C2784    1.0000 0.73950  0.32760  0.33960  Biso   1.000  C
  C2785    1.0000 0.72880  0.30560  0.32010  Biso   1.000  C
  H3244    1.0000 0.72250  0.30950  0.29960  Biso   1.000  H
  C2786    1.0000 0.72830  0.27400  0.33520  Biso   1.000  C
  H3245    1.0000 0.72140  0.25580  0.32520  Biso   1.000  H
  C2787    1.0000 0.73890  0.27460  0.36470  Biso   1.000  C
  H3246    1.0000 0.74050  0.25720  0.37770  Biso   1.000  H
  S186     1.0000 0.74897  0.31178  0.37523  Biso   1.000  S
  H3247    1.0000 0.85260  0.45800  0.41090  Biso   1.000  H
  H3248    1.0000 0.87220  0.42870  0.41990  Biso   1.000  H
  C2788    1.0000 0.88470  0.44860  0.37670  Biso   1.000  C
  H3249    1.0000 0.89160  0.43020  0.36520  Biso   1.000  H
  H3250    1.0000 0.87450  0.46270  0.36210  Biso   1.000  H
  C2789    1.0000 0.91340  0.46520  0.39230  Biso   1.000  C
  H3251    1.0000 0.92340  0.45090  0.40700  Biso   1.000  H
  H3252    1.0000 0.90630  0.48340  0.40400  Biso   1.000  H
  C2790    1.0000 0.93730  0.47550  0.36740  Biso   1.000  C
  H3253    1.0000 0.95480  0.48570  0.37740  Biso   1.000  H
  H3254    1.0000 0.92750  0.48990  0.35300  Biso   1.000  H
  H3255    1.0000 0.94470  0.45740  0.35610  Biso   1.000  H
  C2791    1.0000 0.19991  0.88520  0.86829  Biso   1.000  C
  C2792    1.0000 0.23421  0.88285  0.86206  Biso   1.000  C
  C2793    1.0000 0.24428  0.86230  0.83527  Biso   1.000  C
  H3256    1.0000 0.23030  0.86510  0.81780  Biso   1.000  H
  H3257    1.0000 0.26510  0.86810  0.82880  Biso   1.000  H
  C2794    1.0000 0.24380  0.82828  0.84560  Biso   1.000  C
  C2795    1.0000 0.24930  0.81650  0.87410  Biso   1.000  C
  H3258    1.0000 0.25430  0.82880  0.89150  Biso   1.000  H
  C2796    1.0000 0.24670  0.78170  0.87500  Biso   1.000  C
  H3259    1.0000 0.24980  0.76960  0.89290  Biso   1.000  H
  C2797    1.0000 0.23930  0.76980  0.84720  Biso   1.000  C
  H3260    1.0000 0.23650  0.74850  0.84330  Biso   1.000  H
  S187     1.0000 0.23540  0.79877  0.81945  Biso   1.000  S
  C2798    1.0000 0.25348  0.89993  0.88018  Biso   1.000  C
  H3261    1.0000 0.24380  0.91320  0.89460  Biso   1.000  H
  C2799    1.0000 0.28736  0.90031  0.88016  Biso   1.000  C
  C2800    1.0000 0.30945  0.87788  0.87371  Biso   1.000  C
  H3262    1.0000 0.30510  0.85810  0.86550  Biso   1.000  H
  C2801    1.0000 0.33540  0.91799  0.89246  Biso   1.000  C
  C2802    1.0000 0.29170  0.95376  0.90760  Biso   1.000  C
  C2803    1.0000 0.29071  0.94896  0.94283  Biso   1.000  C
  C2804    1.0000 0.29111  0.91913  0.95626  Biso   1.000  C
  H3263    1.0000 0.29120  0.90150  0.94330  Biso   1.000  H
  C2805    1.0000 0.29139  0.91539  0.98830  Biso   1.000  C
  H3264    1.0000 0.29170  0.89530  0.99690  Biso   1.000  H
  C2806    1.0000 0.29117  0.94128  0.00784  Biso   1.000  C
  C2807    1.0000 0.28988  0.97101  0.99464  Biso   1.000  C
  H3265    1.0000 0.28890  0.98860  0.00760  Biso   1.000  H
  C2808    1.0000 0.29004  0.97471  0.96268  Biso   1.000  C
  H3266    1.0000 0.28970  0.99480  0.95420  Biso   1.000  H
  C2809    1.0000 0.29316  0.93735  0.04225  Biso   1.000  C
  C2810    1.0000 0.36148  0.93888  0.90282  Biso   1.000  C
  H3267    1.0000 0.35480  0.95070  0.92090  Biso   1.000  H
  H3268    1.0000 0.37910  0.92620  0.90890  Biso   1.000  H
  C2811    1.0000 0.37100  0.96200  0.87630  Biso   1.000  C
  H3269    1.0000 0.37730  0.95040  0.85770  Biso   1.000  H
  H3270    1.0000 0.35330  0.97530  0.87080  Biso   1.000  H
  C2812    1.0000 0.39870  0.98240  0.88830  Biso   1.000  C
  H3271    1.0000 0.39360  0.99070  0.90890  Biso   1.000  H
  H3272    1.0000 0.40170  0.00010  0.87420  Biso   1.000  H
  C2813    1.0000 0.42940  0.96360  0.89030  Biso   1.000  C
  H3273    1.0000 0.44600  0.97690  0.89770  Biso   1.000  H
  H3274    1.0000 0.43470  0.95570  0.86980  Biso   1.000  H
  H3275    1.0000 0.42670  0.94630  0.90450  Biso   1.000  H
  N187     1.0000 0.33910  0.88881  0.88112  Biso   1.000  N
  N188     1.0000 0.30469  0.92586  0.89206  Biso   1.000  N
  O373     1.0000 0.18060  0.87329  0.84916  Biso   1.000  O
  O374     1.0000 0.18945  0.89882  0.89259  Biso   1.000  O
  O375     1.0000 0.29485  0.90817  0.05117  Biso   1.000  O
  H3276    1.0000 0.29810  0.90260  0.06960  Biso   1.000  H
  O376     1.0000 0.29289  0.95922  0.06103  Biso   1.000  O
  H3277    1.0000 0.23330  0.86890  0.81670  Biso   1.000  H
  H3278    1.0000 0.26630  0.86570  0.83170  Biso   1.000  H
  C2814    1.0000 0.23950  0.82760  0.83960  Biso   1.000  C
  C2815    1.0000 0.22880  0.80560  0.82010  Biso   1.000  C
  H3279    1.0000 0.22250  0.80950  0.79960  Biso   1.000  H
  C2816    1.0000 0.22830  0.77400  0.83520  Biso   1.000  C
  H3280    1.0000 0.22140  0.75580  0.82520  Biso   1.000  H
  C2817    1.0000 0.23890  0.77460  0.86470  Biso   1.000  C
  H3281    1.0000 0.24050  0.75720  0.87770  Biso   1.000  H
  S188     1.0000 0.24897  0.81178  0.87523  Biso   1.000  S
  H3282    1.0000 0.35260  0.95800  0.91090  Biso   1.000  H
  H3283    1.0000 0.37220  0.92870  0.91990  Biso   1.000  H
  C2818    1.0000 0.38470  0.94860  0.87670  Biso   1.000  C
  H3284    1.0000 0.39160  0.93020  0.86520  Biso   1.000  H
  H3285    1.0000 0.37450  0.96270  0.86210  Biso   1.000  H
  C2819    1.0000 0.41340  0.96520  0.89230  Biso   1.000  C
  H3286    1.0000 0.42340  0.95090  0.90700  Biso   1.000  H
  H3287    1.0000 0.40630  0.98340  0.90400  Biso   1.000  H
  C2820    1.0000 0.43730  0.97550  0.86740  Biso   1.000  C
  H3288    1.0000 0.45480  0.98570  0.87740  Biso   1.000  H
  H3289    1.0000 0.42750  0.98990  0.85300  Biso   1.000  H
  H3290    1.0000 0.44470  0.95740  0.85610  Biso   1.000  H
  C2821    1.0000 0.19991  0.11480  0.63171  Biso   1.000  C
  C2822    1.0000 0.23421  0.11715  0.63794  Biso   1.000  C
  C2823    1.0000 0.24428  0.13770  0.66473  Biso   1.000  C
  H3291    1.0000 0.23030  0.13490  0.68220  Biso   1.000  H
  H3292    1.0000 0.26510  0.13190  0.67120  Biso   1.000  H
  C2824    1.0000 0.24380  0.17172  0.65440  Biso   1.000  C
  C2825    1.0000 0.24930  0.18350  0.62590  Biso   1.000  C
  H3293    1.0000 0.25430  0.17120  0.60850  Biso   1.000  H
  C2826    1.0000 0.24670  0.21830  0.62500  Biso   1.000  C
  H3294    1.0000 0.24980  0.23040  0.60710  Biso   1.000  H
  C2827    1.0000 0.23930  0.23020  0.65280  Biso   1.000  C
  H3295    1.0000 0.23650  0.25150  0.65670  Biso   1.000  H
  S189     1.0000 0.23540  0.20123  0.68055  Biso   1.000  S
  C2828    1.0000 0.25348  0.10007  0.61982  Biso   1.000  C
  H3296    1.0000 0.24380  0.08680  0.60540  Biso   1.000  H
  C2829    1.0000 0.28736  0.09969  0.61984  Biso   1.000  C
  C2830    1.0000 0.30945  0.12212  0.62629  Biso   1.000  C
  H3297    1.0000 0.30510  0.14190  0.63450  Biso   1.000  H
  C2831    1.0000 0.33540  0.08201  0.60754  Biso   1.000  C
  C2832    1.0000 0.29170  0.04624  0.59240  Biso   1.000  C
  C2833    1.0000 0.29071  0.05104  0.55717  Biso   1.000  C
  C2834    1.0000 0.29111  0.08087  0.54374  Biso   1.000  C
  H3298    1.0000 0.29120  0.09850  0.55670  Biso   1.000  H
  C2835    1.0000 0.29139  0.08461  0.51170  Biso   1.000  C
  H3299    1.0000 0.29170  0.10470  0.50310  Biso   1.000  H
  C2836    1.0000 0.29117  0.05872  0.49216  Biso   1.000  C
  C2837    1.0000 0.28988  0.02899  0.50536  Biso   1.000  C
  H3300    1.0000 0.28890  0.01140  0.49240  Biso   1.000  H
  C2838    1.0000 0.29004  0.02529  0.53732  Biso   1.000  C
  H3301    1.0000 0.28970  0.00520  0.54580  Biso   1.000  H
  C2839    1.0000 0.29316  0.06265  0.45775  Biso   1.000  C
  C2840    1.0000 0.36148  0.06112  0.59718  Biso   1.000  C
  H3302    1.0000 0.35480  0.04930  0.57910  Biso   1.000  H
  H3303    1.0000 0.37910  0.07380  0.59110  Biso   1.000  H
  C2841    1.0000 0.37100  0.03800  0.62370  Biso   1.000  C
  H3304    1.0000 0.37730  0.04960  0.64230  Biso   1.000  H
  H3305    1.0000 0.35330  0.02470  0.62920  Biso   1.000  H
  C2842    1.0000 0.39870  0.01760  0.61170  Biso   1.000  C
  H3306    1.0000 0.39360  0.00930  0.59110  Biso   1.000  H
  H3307    1.0000 0.40170  0.99990  0.62580  Biso   1.000  H
  C2843    1.0000 0.42940  0.03640  0.60970  Biso   1.000  C
  H3308    1.0000 0.44600  0.02310  0.60230  Biso   1.000  H
  H3309    1.0000 0.43470  0.04430  0.63020  Biso   1.000  H
  H3310    1.0000 0.42670  0.05370  0.59550  Biso   1.000  H
  N189     1.0000 0.33910  0.11119  0.61888  Biso   1.000  N
  N190     1.0000 0.30469  0.07414  0.60794  Biso   1.000  N
  O377     1.0000 0.18060  0.12671  0.65084  Biso   1.000  O
  O378     1.0000 0.18945  0.10118  0.60741  Biso   1.000  O
  O379     1.0000 0.29485  0.09183  0.44883  Biso   1.000  O
  H3311    1.0000 0.29810  0.09740  0.43040  Biso   1.000  H
  O380     1.0000 0.29289  0.04078  0.43897  Biso   1.000  O
  H3312    1.0000 0.23330  0.13110  0.68330  Biso   1.000  H
  H3313    1.0000 0.26630  0.13430  0.66830  Biso   1.000  H
  C2844    1.0000 0.23950  0.17240  0.66040  Biso   1.000  C
  C2845    1.0000 0.22880  0.19440  0.67990  Biso   1.000  C
  H3314    1.0000 0.22250  0.19050  0.70040  Biso   1.000  H
  C2846    1.0000 0.22830  0.22600  0.66480  Biso   1.000  C
  H3315    1.0000 0.22140  0.24420  0.67480  Biso   1.000  H
  C2847    1.0000 0.23890  0.22540  0.63530  Biso   1.000  C
  H3316    1.0000 0.24050  0.24280  0.62230  Biso   1.000  H
  S190     1.0000 0.24897  0.18822  0.62477  Biso   1.000  S
  H3317    1.0000 0.35260  0.04200  0.58910  Biso   1.000  H
  H3318    1.0000 0.37220  0.07130  0.58010  Biso   1.000  H
  C2848    1.0000 0.38470  0.05140  0.62330  Biso   1.000  C
  H3319    1.0000 0.39160  0.06980  0.63480  Biso   1.000  H
  H3320    1.0000 0.37450  0.03730  0.63790  Biso   1.000  H
  C2849    1.0000 0.41340  0.03480  0.60770  Biso   1.000  C
  H3321    1.0000 0.42340  0.04910  0.59300  Biso   1.000  H
  H3322    1.0000 0.40630  0.01660  0.59600  Biso   1.000  H
  C2850    1.0000 0.43730  0.02450  0.63260  Biso   1.000  C
  H3323    1.0000 0.45480  0.01430  0.62260  Biso   1.000  H
  H3324    1.0000 0.42750  0.01010  0.64700  Biso   1.000  H
  H3325    1.0000 0.44470  0.04260  0.64390  Biso   1.000  H
  C2851    1.0000 0.69991  0.61480  0.13171  Biso   1.000  C
  C2852    1.0000 0.73421  0.61715  0.13794  Biso   1.000  C
  C2853    1.0000 0.74428  0.63770  0.16473  Biso   1.000  C
  H3326    1.0000 0.73030  0.63490  0.18220  Biso   1.000  H
  H3327    1.0000 0.76510  0.63190  0.17120  Biso   1.000  H
  C2854    1.0000 0.74380  0.67172  0.15440  Biso   1.000  C
  C2855    1.0000 0.74930  0.68350  0.12590  Biso   1.000  C
  H3328    1.0000 0.75430  0.67120  0.10850  Biso   1.000  H
  C2856    1.0000 0.74670  0.71830  0.12500  Biso   1.000  C
  H3329    1.0000 0.74980  0.73040  0.10710  Biso   1.000  H
  C2857    1.0000 0.73930  0.73020  0.15280  Biso   1.000  C
  H3330    1.0000 0.73650  0.75150  0.15670  Biso   1.000  H
  S191     1.0000 0.73540  0.70123  0.18055  Biso   1.000  S
  C2858    1.0000 0.75348  0.60007  0.11982  Biso   1.000  C
  H3331    1.0000 0.74380  0.58680  0.10540  Biso   1.000  H
  C2859    1.0000 0.78736  0.59969  0.11984  Biso   1.000  C
  C2860    1.0000 0.80945  0.62212  0.12629  Biso   1.000  C
  H3332    1.0000 0.80510  0.64190  0.13450  Biso   1.000  H
  C2861    1.0000 0.83540  0.58201  0.10754  Biso   1.000  C
  C2862    1.0000 0.79170  0.54624  0.09240  Biso   1.000  C
  C2863    1.0000 0.79071  0.55104  0.05717  Biso   1.000  C
  C2864    1.0000 0.79111  0.58087  0.04374  Biso   1.000  C
  H3333    1.0000 0.79120  0.59850  0.05670  Biso   1.000  H
  C2865    1.0000 0.79139  0.58461  0.01170  Biso   1.000  C
  H3334    1.0000 0.79170  0.60470  0.00310  Biso   1.000  H
  C2866    1.0000 0.79117  0.55872  0.99216  Biso   1.000  C
  C2867    1.0000 0.78988  0.52899  0.00536  Biso   1.000  C
  H3335    1.0000 0.78890  0.51140  0.99240  Biso   1.000  H
  C2868    1.0000 0.79004  0.52529  0.03732  Biso   1.000  C
  H3336    1.0000 0.78970  0.50520  0.04580  Biso   1.000  H
  C2869    1.0000 0.79316  0.56265  0.95775  Biso   1.000  C
  C2870    1.0000 0.86148  0.56112  0.09718  Biso   1.000  C
  H3337    1.0000 0.85480  0.54930  0.07910  Biso   1.000  H
  H3338    1.0000 0.87910  0.57380  0.09110  Biso   1.000  H
  C2871    1.0000 0.87100  0.53800  0.12370  Biso   1.000  C
  H3339    1.0000 0.87730  0.54960  0.14230  Biso   1.000  H
  H3340    1.0000 0.85330  0.52470  0.12920  Biso   1.000  H
  C2872    1.0000 0.89870  0.51760  0.11170  Biso   1.000  C
  H3341    1.0000 0.89360  0.50930  0.09110  Biso   1.000  H
  H3342    1.0000 0.90170  0.49990  0.12580  Biso   1.000  H
  C2873    1.0000 0.92940  0.53640  0.10970  Biso   1.000  C
  H3343    1.0000 0.94600  0.52310  0.10230  Biso   1.000  H
  H3344    1.0000 0.93470  0.54430  0.13020  Biso   1.000  H
  H3345    1.0000 0.92670  0.55370  0.09550  Biso   1.000  H
  N191     1.0000 0.83910  0.61119  0.11888  Biso   1.000  N
  N192     1.0000 0.80469  0.57414  0.10794  Biso   1.000  N
  O381     1.0000 0.68060  0.62671  0.15084  Biso   1.000  O
  O382     1.0000 0.68945  0.60118  0.10741  Biso   1.000  O
  O383     1.0000 0.79485  0.59183  0.94883  Biso   1.000  O
  H3346    1.0000 0.79810  0.59740  0.93040  Biso   1.000  H
  O384     1.0000 0.79289  0.54078  0.93897  Biso   1.000  O
  H3347    1.0000 0.73330  0.63110  0.18330  Biso   1.000  H
  H3348    1.0000 0.76630  0.63430  0.16830  Biso   1.000  H
  C2874    1.0000 0.73950  0.67240  0.16040  Biso   1.000  C
  C2875    1.0000 0.72880  0.69440  0.17990  Biso   1.000  C
  H3349    1.0000 0.72250  0.69050  0.20040  Biso   1.000  H
  C2876    1.0000 0.72830  0.72600  0.16480  Biso   1.000  C
  H3350    1.0000 0.72140  0.74420  0.17480  Biso   1.000  H
  C2877    1.0000 0.73890  0.72540  0.13530  Biso   1.000  C
  H3351    1.0000 0.74050  0.74280  0.12230  Biso   1.000  H
  S192     1.0000 0.74897  0.68822  0.12477  Biso   1.000  S
  H3352    1.0000 0.85260  0.54200  0.08910  Biso   1.000  H
  H3353    1.0000 0.87220  0.57130  0.08010  Biso   1.000  H
  C2878    1.0000 0.88470  0.55140  0.12330  Biso   1.000  C
  H3354    1.0000 0.89160  0.56980  0.13480  Biso   1.000  H
  H3355    1.0000 0.87450  0.53730  0.13790  Biso   1.000  H
  C2879    1.0000 0.91340  0.53480  0.10770  Biso   1.000  C
  H3356    1.0000 0.92340  0.54910  0.09300  Biso   1.000  H
  H3357    1.0000 0.90630  0.51660  0.09600  Biso   1.000  H
  C2880    1.0000 0.93730  0.52450  0.13260  Biso   1.000  C
  H3358    1.0000 0.95480  0.51430  0.12260  Biso   1.000  H
  H3359    1.0000 0.92750  0.51010  0.14700  Biso   1.000  H
  H3360    1.0000 0.94470  0.54260  0.14390  Biso   1.000  H
  Zn1      1.0000 0.35920  0.89080  0.12500  Biso   1.000  Zn
  Zn2      1.0000 0.14080  0.10920  0.62500  Biso   1.000  Zn
  Zn3      1.0000 0.64080  0.39080  0.37500  Biso   1.000  Zn
  Zn4      1.0000 0.85920  0.60920  0.87500  Biso   1.000  Zn
  Zn5      1.0000 0.12500  0.35920  0.89080  Biso   1.000  Zn
  Zn6      1.0000 0.62500  0.14080  0.10920  Biso   1.000  Zn
  Zn7      1.0000 0.37500  0.64080  0.39080  Biso   1.000  Zn
  Zn8      1.0000 0.87500  0.85920  0.60920  Biso   1.000  Zn
  Zn9      1.0000 0.89080  0.12500  0.35920  Biso   1.000  Zn
  Zn10     1.0000 0.10920  0.62500  0.14080  Biso   1.000  Zn
  Zn11     1.0000 0.39080  0.37500  0.64080  Biso   1.000  Zn
  Zn12     1.0000 0.60920  0.87500  0.85920  Biso   1.000  Zn
  Zn13     1.0000 0.64080  0.60920  0.12500  Biso   1.000  Zn
  Zn14     1.0000 0.85920  0.39080  0.62500  Biso   1.000  Zn
  Zn15     1.0000 0.14080  0.89080  0.87500  Biso   1.000  Zn
  Zn16     1.0000 0.35920  0.10920  0.37500  Biso   1.000  Zn
  Zn17     1.0000 0.10920  0.37500  0.35920  Biso   1.000  Zn
  Zn18     1.0000 0.89080  0.87500  0.14080  Biso   1.000  Zn
  Zn19     1.0000 0.39080  0.62500  0.85920  Biso   1.000  Zn
  Zn20     1.0000 0.60920  0.12500  0.64080  Biso   1.000  Zn
  Zn21     1.0000 0.87500  0.14080  0.89080  Biso   1.000  Zn
  Zn22     1.0000 0.37500  0.35920  0.10920  Biso   1.000  Zn
  Zn23     1.0000 0.12500  0.64080  0.60920  Biso   1.000  Zn
  Zn24     1.0000 0.62500  0.85920  0.39080  Biso   1.000  Zn
  Zn25     1.0000 0.64080  0.10920  0.87500  Biso   1.000  Zn
  Zn26     1.0000 0.85920  0.89080  0.37500  Biso   1.000  Zn
  Zn27     1.0000 0.35920  0.60920  0.62500  Biso   1.000  Zn
  Zn28     1.0000 0.14080  0.39080  0.12500  Biso   1.000  Zn
  Zn29     1.0000 0.87500  0.64080  0.10920  Biso   1.000  Zn
  Zn30     1.0000 0.37500  0.85920  0.89080  Biso   1.000  Zn
  Zn31     1.0000 0.62500  0.35920  0.60920  Biso   1.000  Zn
  Zn32     1.0000 0.12500  0.14080  0.39080  Biso   1.000  Zn
  Zn33     1.0000 0.10920  0.87500  0.64080  Biso   1.000  Zn
  Zn34     1.0000 0.89080  0.37500  0.85920  Biso   1.000  Zn
  Zn35     1.0000 0.60920  0.62500  0.35920  Biso   1.000  Zn
  Zn36     1.0000 0.39080  0.12500  0.14080  Biso   1.000  Zn
  Zn37     1.0000 0.35920  0.39080  0.87500  Biso   1.000  Zn
  Zn38     1.0000 0.14080  0.60920  0.37500  Biso   1.000  Zn
  Zn39     1.0000 0.85920  0.10920  0.12500  Biso   1.000  Zn
  Zn40     1.0000 0.64080  0.89080  0.62500  Biso   1.000  Zn
  Zn41     1.0000 0.89080  0.62500  0.64080  Biso   1.000  Zn
  Zn42     1.0000 0.10920  0.12500  0.85920  Biso   1.000  Zn
  Zn43     1.0000 0.60920  0.37500  0.14080  Biso   1.000  Zn
  Zn44     1.0000 0.39080  0.87500  0.35920  Biso   1.000  Zn
  Zn45     1.0000 0.12500  0.85920  0.10920  Biso   1.000  Zn
  Zn46     1.0000 0.62500  0.64080  0.89080  Biso   1.000  Zn
  Zn47     1.0000 0.87500  0.35920  0.39080  Biso   1.000  Zn
  Zn48     1.0000 0.37500  0.14080  0.60920  Biso   1.000  Zn
