data_image0
_cell_length_a       37.27
_cell_length_b       10.733
_cell_length_c       38.171
_cell_angle_alpha    90
_cell_angle_beta     90
_cell_angle_gamma    90

_symmetry_space_group_name_H-M    "P 1"
_symmetry_int_tables_number       1

loop_
  _symmetry_equiv_pos_as_xyz
  'x, y, z'

loop_
  _atom_site_label
  _atom_site_occupancy
  _atom_site_fract_x
  _atom_site_fract_y
  _atom_site_fract_z
  _atom_site_thermal_displace_type
  _atom_site_B_iso_or_equiv
  _atom_site_type_symbol
  Zn1      1.0000 0.26983  0.41304  0.18688  Biso   1.000  Zn
  Zn2      1.0000 0.76594  0.03100  0.52370  Biso   1.000  Zn
  O1       1.0000 0.31100  0.38550  0.21570  Biso   1.000  O
  O2       1.0000 0.30560  0.56600  0.23670  Biso   1.000  O
  O3       1.0000 0.72260  0.35810  0.28110  Biso   1.000  O
  O4       1.0000 0.72100  0.53940  0.30050  Biso   1.000  O
  O5       1.0000 0.30360  0.23840  0.49120  Biso   1.000  O
  O6       1.0000 0.30660  0.43340  0.50750  Biso   1.000  O
  O7       1.0000 0.71740  0.07070  0.47370  Biso   1.000  O
  O8       1.0000 0.71820  0.09940  0.52950  Biso   1.000  O
  O9       1.0000 0.27970  0.52650  0.14630  Biso   1.000  O
  O10      1.0000 0.29950  0.71170  0.13790  Biso   1.000  O
  O11      1.0000 0.43167  0.65720  0.16110  Biso   1.000  O
  O12      1.0000 0.52750  0.67670  0.16530  Biso   1.000  O
  O13      1.0000 0.59530  0.55060  0.16930  Biso   1.000  O
  O14      1.0000 0.61390  0.30470  0.16090  Biso   1.000  O
  O15      1.0000 0.72130  0.15400  0.08730  Biso   1.000  O
  O16      1.0000 0.70250  0.96400  0.06780  Biso   1.000  O
  O17      1.0000 0.57450  0.94640  0.09440  Biso   1.000  O
  O18      1.0000 0.48030  0.93150  0.10440  Biso   1.000  O
  O19      1.0000 0.40750  0.02320  0.12260  Biso   1.000  O
  O20      1.0000 0.39370  0.28300  0.11460  Biso   1.000  O
  N1       1.0000 0.47792  0.62750  0.31257  Biso   1.000  N
  H1       1.0000 0.45530  0.64980  0.31420  Biso   1.000  H
  N2       1.0000 0.53706  0.61260  0.32260  Biso   1.000  N
  N3       1.0000 0.47560  0.09460  0.45480  Biso   1.000  N
  H2       1.0000 0.45300  0.09020  0.44810  Biso   1.000  H
  N4       1.0000 0.53360  0.05510  0.45720  Biso   1.000  N
  C1       1.0000 0.32190  0.47600  0.23150  Biso   1.000  C
  C2       1.0000 0.43490  0.46670  0.25880  Biso   1.000  C
  C3       1.0000 0.41420  0.56790  0.26910  Biso   1.000  C
  H3       1.0000 0.42520  0.63640  0.28080  Biso   1.000  H
  C4       1.0000 0.37760  0.56880  0.26250  Biso   1.000  C
  H4       1.0000 0.36340  0.63800  0.26960  Biso   1.000  H
  C5       1.0000 0.36160  0.46860  0.24550  Biso   1.000  C
  C6       1.0000 0.38230  0.36740  0.23520  Biso   1.000  C
  H5       1.0000 0.37140  0.29890  0.22360  Biso   1.000  H
  C7       1.0000 0.41900  0.36650  0.24180  Biso   1.000  C
  H6       1.0000 0.43310  0.29730  0.23470  Biso   1.000  H
  C8       1.0000 0.47530  0.47110  0.26320  Biso   1.000  C
  C9       1.0000 0.49230  0.54410  0.28860  Biso   1.000  C
  C10      1.0000 0.52890  0.53550  0.29450  Biso   1.000  C
  C11      1.0000 0.55170  0.46050  0.27380  Biso   1.000  C
  C12      1.0000 0.53480  0.39080  0.24880  Biso   1.000  C
  H7       1.0000 0.54870  0.33820  0.23410  Biso   1.000  H
  C13      1.0000 0.49660  0.39530  0.24430  Biso   1.000  C
  H8       1.0000 0.48590  0.34260  0.22720  Biso   1.000  H
  C14      1.0000 0.59140  0.45630  0.27850  Biso   1.000  C
  C15      1.0000 0.61060  0.56840  0.28420  Biso   1.000  C
  H9       1.0000 0.59840  0.64580  0.28580  Biso   1.000  H
  C16      1.0000 0.64800  0.56290  0.28750  Biso   1.000  C
  H10      1.0000 0.66100  0.63750  0.29170  Biso   1.000  H
  C17      1.0000 0.66610  0.45320  0.28480  Biso   1.000  C
  C18      1.0000 0.64840  0.34390  0.28000  Biso   1.000  C
  H11      1.0000 0.66120  0.26730  0.27990  Biso   1.000  H
  C19      1.0000 0.60990  0.34490  0.27490  Biso   1.000  C
  H12      1.0000 0.59750  0.27030  0.26930  Biso   1.000  H
  C20      1.0000 0.70900  0.44600  0.29340  Biso   1.000  C
  C21      1.0000 0.50440  0.66670  0.33240  Biso   1.000  C
  C22      1.0000 0.50270  0.75240  0.36190  Biso   1.000  C
  C23      1.0000 0.47580  0.83990  0.36340  Biso   1.000  C
  H13      1.0000 0.45830  0.84090  0.34540  Biso   1.000  H
  C24      1.0000 0.47340  0.92610  0.38990  Biso   1.000  C
  H14      1.0000 0.45390  0.98330  0.39060  Biso   1.000  H
  C25      1.0000 0.50000  0.92790  0.41560  Biso   1.000  C
  C26      1.0000 0.52670  0.83860  0.41460  Biso   1.000  C
  H15      1.0000 0.54450  0.83670  0.43240  Biso   1.000  H
  C27      1.0000 0.52770  0.75140  0.38770  Biso   1.000  C
  H16      1.0000 0.54620  0.69050  0.38730  Biso   1.000  H
  C28      1.0000 0.50300  0.02580  0.44280  Biso   1.000  C
  C29      1.0000 0.32200  0.33100  0.50230  Biso   1.000  C
  C30      1.0000 0.36030  0.32040  0.50490  Biso   1.000  C
  C31      1.0000 0.38290  0.41710  0.50460  Biso   1.000  C
  H17      1.0000 0.37320  0.49880  0.50570  Biso   1.000  H
  C32      1.0000 0.41890  0.40470  0.50280  Biso   1.000  C
  H18      1.0000 0.43380  0.47640  0.50160  Biso   1.000  H
  C33      1.0000 0.43410  0.28680  0.50280  Biso   1.000  C
  C34      1.0000 0.41090  0.18660  0.50400  Biso   1.000  C
  H19      1.0000 0.42040  0.10450  0.50400  Biso   1.000  H
  C35      1.0000 0.37520  0.20250  0.50510  Biso   1.000  C
  H20      1.0000 0.36000  0.13170  0.50610  Biso   1.000  H
  C36      1.0000 0.47390  0.26500  0.50100  Biso   1.000  C
  C37      1.0000 0.49790  0.33410  0.52170  Biso   1.000  C
  H21      1.0000 0.48890  0.39980  0.53590  Biso   1.000  H
  C38      1.0000 0.53390  0.30930  0.52190  Biso   1.000  C
  H22      1.0000 0.54880  0.35720  0.53700  Biso   1.000  H
  C39      1.0000 0.54980  0.21890  0.50160  Biso   1.000  C
  C40      1.0000 0.52650  0.15050  0.48030  Biso   1.000  C
  C41      1.0000 0.48980  0.17480  0.48010  Biso   1.000  C
  C42      1.0000 0.58970  0.19320  0.50130  Biso   1.000  C
  C43      1.0000 0.60880  0.20070  0.53270  Biso   1.000  C
  H23      1.0000 0.59740  0.22050  0.55420  Biso   1.000  H
  C44      1.0000 0.64720  0.17670  0.53060  Biso   1.000  C
  H24      1.0000 0.66150  0.18680  0.55110  Biso   1.000  H
  C45      1.0000 0.66350  0.13990  0.50000  Biso   1.000  C
  C46      1.0000 0.64270  0.12770  0.47080  Biso   1.000  C
  H25      1.0000 0.65340  0.09760  0.44980  Biso   1.000  H
  C47      1.0000 0.60660  0.15760  0.47070  Biso   1.000  C
  H26      1.0000 0.59340  0.15360  0.44940  Biso   1.000  H
  C48      1.0000 0.70070  0.10410  0.50060  Biso   1.000  C
  C49      1.0000 0.30490  0.60200  0.14140  Biso   1.000  C
  C50      1.0000 0.34220  0.55030  0.14180  Biso   1.000  C
  C51      1.0000 0.37060  0.62790  0.15050  Biso   1.000  C
  H27      1.0000 0.36660  0.71290  0.15630  Biso   1.000  H
  C52      1.0000 0.40490  0.57850  0.15050  Biso   1.000  C
  C53      1.0000 0.41010  0.45220  0.14350  Biso   1.000  C
  H28      1.0000 0.43360  0.41830  0.14390  Biso   1.000  H
  C54      1.0000 0.38140  0.37680  0.13620  Biso   1.000  C
  C55      1.0000 0.34700  0.42360  0.13490  Biso   1.000  C
  H29      1.0000 0.32720  0.37140  0.12940  Biso   1.000  H
  C56      1.0000 0.46750  0.61170  0.15900  Biso   1.000  C
  H30      1.0000 0.47320  0.59020  0.13440  Biso   1.000  H
  H31      1.0000 0.46980  0.53530  0.17340  Biso   1.000  H
  C57      1.0000 0.49260  0.70700  0.17170  Biso   1.000  C
  H32      1.0000 0.48700  0.78740  0.16020  Biso   1.000  H
  H33      1.0000 0.48920  0.71810  0.19730  Biso   1.000  H
  C58      1.0000 0.54990  0.67600  0.18970  Biso   1.000  C
  H34      1.0000 0.53960  0.61830  0.20740  Biso   1.000  H
  H35      1.0000 0.54840  0.75990  0.20020  Biso   1.000  H
  C59      1.0000 0.58470  0.65000  0.18960  Biso   1.000  C
  H36      1.0000 0.59230  0.63320  0.21400  Biso   1.000  H
  H37      1.0000 0.59780  0.72450  0.18150  Biso   1.000  H
  C60      1.0000 0.62220  0.50270  0.18160  Biso   1.000  C
  H38      1.0000 0.61630  0.47990  0.20610  Biso   1.000  H
  H39      1.0000 0.64060  0.56900  0.18290  Biso   1.000  H
  C61      1.0000 0.63770  0.40610  0.16780  Biso   1.000  C
  H40      1.0000 0.65690  0.37710  0.18370  Biso   1.000  H
  H41      1.0000 0.64920  0.43150  0.14550  Biso   1.000  H
  C62      1.0000 0.62610  0.20970  0.13920  Biso   1.000  C
  C63      1.0000 0.65560  0.18990  0.12340  Biso   1.000  C
  H42      1.0000 0.67440  0.24850  0.12700  Biso   1.000  H
  C64      1.0000 0.66290  0.09010  0.10130  Biso   1.000  C
  C65      1.0000 0.63450  0.00470  0.09110  Biso   1.000  C
  H43      1.0000 0.63850  0.93860  0.07490  Biso   1.000  H
  C66      1.0000 0.60230  0.02510  0.10580  Biso   1.000  C
  C67      1.0000 0.59670  0.12220  0.13010  Biso   1.000  C
  H44      1.0000 0.57380  0.13180  0.14070  Biso   1.000  H
  C68      1.0000 0.69840  0.06500  0.08410  Biso   1.000  C
  C69      1.0000 0.54040  0.97980  0.10680  Biso   1.000  C
  H45      1.0000 0.53550  0.06840  0.10150  Biso   1.000  H
  H46      1.0000 0.53920  0.96820  0.13250  Biso   1.000  H
  C70      1.0000 0.51340  0.89950  0.08940  Biso   1.000  C
  H47      1.0000 0.51320  0.91500  0.06380  Biso   1.000  H
  H48      1.0000 0.51890  0.81040  0.09350  Biso   1.000  H
  C71      1.0000 0.45110  0.87540  0.08780  Biso   1.000  C
  H49      1.0000 0.45550  0.78500  0.08480  Biso   1.000  H
  H50      1.0000 0.44720  0.91290  0.06440  Biso   1.000  H
  C72      1.0000 0.41760  0.89780  0.11170  Biso   1.000  C
  H51      1.0000 0.39660  0.86160  0.09950  Biso   1.000  H
  H52      1.0000 0.42120  0.84810  0.13330  Biso   1.000  H
  C73      1.0000 0.38550  0.08200  0.09830  Biso   1.000  C
  H53      1.0000 0.36870  0.01980  0.08840  Biso   1.000  H
  H54      1.0000 0.40050  0.11360  0.07880  Biso   1.000  H
  C74      1.0000 0.36550  0.18120  0.11210  Biso   1.000  C
  H55      1.0000 0.35560  0.16040  0.13540  Biso   1.000  H
  H56      1.0000 0.34580  0.20560  0.09620  Biso   1.000  H
  O21      1.0000 0.75700  0.85390  0.51250  Biso   1.000  O
  H57      1.0000 0.77740  0.81620  0.50960  Biso   1.000  H
  H58      1.0000 0.74540  0.81930  0.52970  Biso   1.000  H
  Zn3      1.0000 0.75250  0.18180  0.54290  Biso   1.000  Zn
  O22      1.0000 0.29810  0.48500  0.26130  Biso   1.000  O
  O23      1.0000 0.59970  0.59300  0.15800  Biso   1.000  O
  O24      1.0000 0.71800  0.22900  0.08500  Biso   1.000  O
  O25      1.0000 0.71860  0.01200  0.07600  Biso   1.000  O
  O26      1.0000 0.40910  0.02040  0.10260  Biso   1.000  O
  O27      1.0000 0.38790  0.24340  0.13660  Biso   1.000  O
  H59      1.0000 0.72730  0.33900  0.49620  Biso   1.000  H
  H60      1.0000 0.76300  0.37860  0.50290  Biso   1.000  H
  C75      1.0000 0.32120  0.44400  0.24240  Biso   1.000  C
  C76      1.0000 0.43510  0.47170  0.25830  Biso   1.000  C
  C77      1.0000 0.41160  0.50940  0.28460  Biso   1.000  C
  H61      1.0000 0.42080  0.54190  0.30600  Biso   1.000  H
  C78      1.0000 0.37480  0.49950  0.27970  Biso   1.000  C
  H62      1.0000 0.35880  0.52530  0.29770  Biso   1.000  H
  C79      1.0000 0.36140  0.45190  0.24850  Biso   1.000  C
  C80      1.0000 0.38480  0.41420  0.22220  Biso   1.000  C
  H63      1.0000 0.37560  0.38170  0.20080  Biso   1.000  H
  C81      1.0000 0.42160  0.42410  0.22710  Biso   1.000  C
  H64      1.0000 0.43760  0.39830  0.20910  Biso   1.000  H
  C82      1.0000 0.55490  0.74400  0.17000  Biso   1.000  C
  H65      1.0000 0.55580  0.76050  0.19590  Biso   1.000  H
  H66      1.0000 0.54990  0.82460  0.15890  Biso   1.000  H
  C83      1.0000 0.58790  0.71200  0.16100  Biso   1.000  C
  H67      1.0000 0.60410  0.75350  0.17810  Biso   1.000  H
  H68      1.0000 0.59230  0.75290  0.13820  Biso   1.000  H
  H69      1.0000 0.64110  0.55300  0.19310  Biso   1.000  H
  H70      1.0000 0.60610  0.47210  0.20040  Biso   1.000  H
  C84      1.0000 0.70800  0.11800  0.08500  Biso   1.000  C
  H71      1.0000 0.39780  0.83970  0.10600  Biso   1.000  H
  H72      1.0000 0.42370  0.89030  0.13690  Biso   1.000  H
  C85      1.0000 0.37520  0.02800  0.11970  Biso   1.000  C
  H73      1.0000 0.37710  0.00940  0.14500  Biso   1.000  H
  H74      1.0000 0.35730  0.97160  0.10880  Biso   1.000  H
  H75      1.0000 0.37160  0.20530  0.08770  Biso   1.000  H
  H76      1.0000 0.33990  0.19930  0.11650  Biso   1.000  H
  Zn4      1.0000 0.23017  0.58696  0.68688  Biso   1.000  Zn
  Zn5      1.0000 0.73406  0.96900  0.02370  Biso   1.000  Zn
  O28      1.0000 0.18900  0.61450  0.71570  Biso   1.000  O
  O29      1.0000 0.19440  0.43400  0.73670  Biso   1.000  O
  O30      1.0000 0.77740  0.64190  0.78110  Biso   1.000  O
  O31      1.0000 0.77900  0.46060  0.80050  Biso   1.000  O
  O32      1.0000 0.19640  0.76160  0.99120  Biso   1.000  O
  O33      1.0000 0.19340  0.56660  0.00750  Biso   1.000  O
  O34      1.0000 0.78260  0.92930  0.97370  Biso   1.000  O
  O35      1.0000 0.78180  0.90060  0.02950  Biso   1.000  O
  O36      1.0000 0.22030  0.47350  0.64630  Biso   1.000  O
  O37      1.0000 0.20050  0.28830  0.63790  Biso   1.000  O
  O38      1.0000 0.06833  0.34280  0.66110  Biso   1.000  O
  O39      1.0000 0.97250  0.32330  0.66530  Biso   1.000  O
  O40      1.0000 0.90470  0.44940  0.66930  Biso   1.000  O
  O41      1.0000 0.88610  0.69530  0.66090  Biso   1.000  O
  O42      1.0000 0.77870  0.84600  0.58730  Biso   1.000  O
  O43      1.0000 0.79750  0.03600  0.56780  Biso   1.000  O
  O44      1.0000 0.92550  0.05360  0.59440  Biso   1.000  O
  O45      1.0000 0.01970  0.06850  0.60440  Biso   1.000  O
  O46      1.0000 0.09250  0.97680  0.62260  Biso   1.000  O
  O47      1.0000 0.10630  0.71700  0.61460  Biso   1.000  O
  N5       1.0000 0.02208  0.37250  0.81257  Biso   1.000  N
  H77      1.0000 0.04470  0.35020  0.81420  Biso   1.000  H
  N6       1.0000 0.96294  0.38740  0.82260  Biso   1.000  N
  N7       1.0000 0.02440  0.90540  0.95480  Biso   1.000  N
  H78      1.0000 0.04700  0.90980  0.94810  Biso   1.000  H
  N8       1.0000 0.96640  0.94490  0.95720  Biso   1.000  N
  C86      1.0000 0.17810  0.52400  0.73150  Biso   1.000  C
  C87      1.0000 0.06510  0.53330  0.75880  Biso   1.000  C
  C88      1.0000 0.08580  0.43210  0.76910  Biso   1.000  C
  H79      1.0000 0.07480  0.36360  0.78080  Biso   1.000  H
  C89      1.0000 0.12240  0.43120  0.76250  Biso   1.000  C
  H80      1.0000 0.13660  0.36200  0.76960  Biso   1.000  H
  C90      1.0000 0.13840  0.53140  0.74550  Biso   1.000  C
  C91      1.0000 0.11770  0.63260  0.73520  Biso   1.000  C
  H81      1.0000 0.12860  0.70110  0.72360  Biso   1.000  H
  C92      1.0000 0.08100  0.63350  0.74180  Biso   1.000  C
  H82      1.0000 0.06690  0.70270  0.73470  Biso   1.000  H
  C93      1.0000 0.02470  0.52890  0.76320  Biso   1.000  C
  C94      1.0000 0.00770  0.45590  0.78860  Biso   1.000  C
  C95      1.0000 0.97110  0.46450  0.79450  Biso   1.000  C
  C96      1.0000 0.94830  0.53950  0.77380  Biso   1.000  C
  C97      1.0000 0.96520  0.60920  0.74880  Biso   1.000  C
  H83      1.0000 0.95130  0.66180  0.73410  Biso   1.000  H
  C98      1.0000 0.00340  0.60470  0.74430  Biso   1.000  C
  H84      1.0000 0.01410  0.65740  0.72720  Biso   1.000  H
  C99      1.0000 0.90860  0.54370  0.77850  Biso   1.000  C
  C100     1.0000 0.88940  0.43160  0.78420  Biso   1.000  C
  H85      1.0000 0.90160  0.35420  0.78580  Biso   1.000  H
  C101     1.0000 0.85200  0.43710  0.78750  Biso   1.000  C
  H86      1.0000 0.83900  0.36250  0.79170  Biso   1.000  H
  C102     1.0000 0.83390  0.54680  0.78480  Biso   1.000  C
  C103     1.0000 0.85160  0.65610  0.78000  Biso   1.000  C
  H87      1.0000 0.83880  0.73270  0.77990  Biso   1.000  H
  C104     1.0000 0.89010  0.65510  0.77490  Biso   1.000  C
  H88      1.0000 0.90250  0.72970  0.76930  Biso   1.000  H
  C105     1.0000 0.79100  0.55400  0.79340  Biso   1.000  C
  C106     1.0000 0.99560  0.33330  0.83240  Biso   1.000  C
  C107     1.0000 0.99730  0.24760  0.86190  Biso   1.000  C
  C108     1.0000 0.02420  0.16010  0.86340  Biso   1.000  C
  H89      1.0000 0.04170  0.15910  0.84540  Biso   1.000  H
  C109     1.0000 0.02660  0.07390  0.88990  Biso   1.000  C
  H90      1.0000 0.04610  0.01670  0.89060  Biso   1.000  H
  C110     1.0000 0.00000  0.07210  0.91560  Biso   1.000  C
  C111     1.0000 0.97330  0.16140  0.91460  Biso   1.000  C
  H91      1.0000 0.95550  0.16330  0.93240  Biso   1.000  H
  C112     1.0000 0.97230  0.24860  0.88770  Biso   1.000  C
  H92      1.0000 0.95380  0.30950  0.88730  Biso   1.000  H
  C113     1.0000 0.99700  0.97420  0.94280  Biso   1.000  C
  C114     1.0000 0.17800  0.66900  0.00230  Biso   1.000  C
  C115     1.0000 0.13970  0.67960  0.00490  Biso   1.000  C
  C116     1.0000 0.11710  0.58290  0.00460  Biso   1.000  C
  H93      1.0000 0.12680  0.50120  0.00570  Biso   1.000  H
  C117     1.0000 0.08110  0.59530  0.00280  Biso   1.000  C
  H94      1.0000 0.06620  0.52360  0.00160  Biso   1.000  H
  C118     1.0000 0.06590  0.71320  0.00280  Biso   1.000  C
  C119     1.0000 0.08910  0.81340  0.00400  Biso   1.000  C
  H95      1.0000 0.07960  0.89550  0.00400  Biso   1.000  H
  C120     1.0000 0.12480  0.79750  0.00510  Biso   1.000  C
  H96      1.0000 0.14000  0.86830  0.00610  Biso   1.000  H
  C121     1.0000 0.02610  0.73500  0.00100  Biso   1.000  C
  C122     1.0000 0.00210  0.66590  0.02170  Biso   1.000  C
  H97      1.0000 0.01110  0.60020  0.03590  Biso   1.000  H
  C123     1.0000 0.96610  0.69070  0.02190  Biso   1.000  C
  H98      1.0000 0.95120  0.64280  0.03700  Biso   1.000  H
  C124     1.0000 0.95020  0.78110  0.00160  Biso   1.000  C
  C125     1.0000 0.97350  0.84950  0.98030  Biso   1.000  C
  C126     1.0000 0.01020  0.82520  0.98010  Biso   1.000  C
  C127     1.0000 0.91030  0.80680  0.00130  Biso   1.000  C
  C128     1.0000 0.89120  0.79930  0.03270  Biso   1.000  C
  H99      1.0000 0.90260  0.77950  0.05420  Biso   1.000  H
  C129     1.0000 0.85280  0.82330  0.03060  Biso   1.000  C
  H100     1.0000 0.83850  0.81320  0.05110  Biso   1.000  H
  C130     1.0000 0.83650  0.86010  0.00000  Biso   1.000  C
  C131     1.0000 0.85730  0.87230  0.97080  Biso   1.000  C
  H101     1.0000 0.84660  0.90240  0.94980  Biso   1.000  H
  C132     1.0000 0.89340  0.84240  0.97070  Biso   1.000  C
  H102     1.0000 0.90660  0.84640  0.94940  Biso   1.000  H
  C133     1.0000 0.79930  0.89590  0.00060  Biso   1.000  C
  C134     1.0000 0.19510  0.39800  0.64140  Biso   1.000  C
  C135     1.0000 0.15780  0.44970  0.64180  Biso   1.000  C
  C136     1.0000 0.12940  0.37210  0.65050  Biso   1.000  C
  H103     1.0000 0.13340  0.28710  0.65630  Biso   1.000  H
  C137     1.0000 0.09510  0.42150  0.65050  Biso   1.000  C
  C138     1.0000 0.08990  0.54780  0.64350  Biso   1.000  C
  H104     1.0000 0.06640  0.58170  0.64390  Biso   1.000  H
  C139     1.0000 0.11860  0.62320  0.63620  Biso   1.000  C
  C140     1.0000 0.15300  0.57640  0.63490  Biso   1.000  C
  H105     1.0000 0.17280  0.62860  0.62940  Biso   1.000  H
  C141     1.0000 0.03250  0.38830  0.65900  Biso   1.000  C
  H106     1.0000 0.02680  0.40980  0.63440  Biso   1.000  H
  H107     1.0000 0.03020  0.46470  0.67340  Biso   1.000  H
  C142     1.0000 0.00740  0.29300  0.67170  Biso   1.000  C
  H108     1.0000 0.01300  0.21260  0.66020  Biso   1.000  H
  H109     1.0000 0.01080  0.28190  0.69730  Biso   1.000  H
  C143     1.0000 0.95010  0.32400  0.68970  Biso   1.000  C
  H110     1.0000 0.96040  0.38170  0.70740  Biso   1.000  H
  H111     1.0000 0.95160  0.24010  0.70020  Biso   1.000  H
  C144     1.0000 0.91530  0.35000  0.68960  Biso   1.000  C
  H112     1.0000 0.90770  0.36680  0.71400  Biso   1.000  H
  H113     1.0000 0.90220  0.27550  0.68150  Biso   1.000  H
  C145     1.0000 0.87780  0.49730  0.68160  Biso   1.000  C
  H114     1.0000 0.88370  0.52010  0.70610  Biso   1.000  H
  H115     1.0000 0.85940  0.43100  0.68290  Biso   1.000  H
  C146     1.0000 0.86230  0.59390  0.66780  Biso   1.000  C
  H116     1.0000 0.84310  0.62290  0.68370  Biso   1.000  H
  H117     1.0000 0.85080  0.56850  0.64550  Biso   1.000  H
  C147     1.0000 0.87390  0.79030  0.63920  Biso   1.000  C
  C148     1.0000 0.84440  0.81010  0.62340  Biso   1.000  C
  H118     1.0000 0.82560  0.75150  0.62700  Biso   1.000  H
  C149     1.0000 0.83710  0.90990  0.60130  Biso   1.000  C
  C150     1.0000 0.86550  0.99530  0.59110  Biso   1.000  C
  H119     1.0000 0.86150  0.06140  0.57490  Biso   1.000  H
  C151     1.0000 0.89770  0.97490  0.60580  Biso   1.000  C
  C152     1.0000 0.90330  0.87780  0.63010  Biso   1.000  C
  H120     1.0000 0.92620  0.86820  0.64070  Biso   1.000  H
  C153     1.0000 0.80160  0.93500  0.58410  Biso   1.000  C
  C154     1.0000 0.95960  0.02020  0.60680  Biso   1.000  C
  H121     1.0000 0.96450  0.93160  0.60150  Biso   1.000  H
  H122     1.0000 0.96080  0.03180  0.63250  Biso   1.000  H
  C155     1.0000 0.98660  0.10050  0.58940  Biso   1.000  C
  H123     1.0000 0.98680  0.08500  0.56380  Biso   1.000  H
  H124     1.0000 0.98110  0.18960  0.59350  Biso   1.000  H
  C156     1.0000 0.04890  0.12460  0.58780  Biso   1.000  C
  H125     1.0000 0.04450  0.21500  0.58480  Biso   1.000  H
  H126     1.0000 0.05280  0.08710  0.56440  Biso   1.000  H
  C157     1.0000 0.08240  0.10220  0.61170  Biso   1.000  C
  H127     1.0000 0.10340  0.13840  0.59950  Biso   1.000  H
  H128     1.0000 0.07880  0.15190  0.63330  Biso   1.000  H
  C158     1.0000 0.11450  0.91800  0.59830  Biso   1.000  C
  H129     1.0000 0.13130  0.98020  0.58840  Biso   1.000  H
  H130     1.0000 0.09950  0.88640  0.57880  Biso   1.000  H
  C159     1.0000 0.13450  0.81880  0.61210  Biso   1.000  C
  H131     1.0000 0.14440  0.83960  0.63540  Biso   1.000  H
  H132     1.0000 0.15420  0.79440  0.59620  Biso   1.000  H
  O48      1.0000 0.74300  0.14610  0.01250  Biso   1.000  O
  H133     1.0000 0.72260  0.18380  0.00960  Biso   1.000  H
  H134     1.0000 0.75460  0.18070  0.02970  Biso   1.000  H
  Zn6      1.0000 0.74750  0.81820  0.04290  Biso   1.000  Zn
  O49      1.0000 0.20190  0.51500  0.76130  Biso   1.000  O
  O50      1.0000 0.90030  0.40700  0.65800  Biso   1.000  O
  O51      1.0000 0.78200  0.77100  0.58500  Biso   1.000  O
  O52      1.0000 0.78140  0.98800  0.57600  Biso   1.000  O
  O53      1.0000 0.09090  0.97960  0.60260  Biso   1.000  O
  O54      1.0000 0.11210  0.75660  0.63660  Biso   1.000  O
  H135     1.0000 0.77270  0.66100  0.99620  Biso   1.000  H
  H136     1.0000 0.73700  0.62140  0.00290  Biso   1.000  H
  C160     1.0000 0.17880  0.55600  0.74240  Biso   1.000  C
  C161     1.0000 0.06490  0.52830  0.75830  Biso   1.000  C
  C162     1.0000 0.08840  0.49060  0.78460  Biso   1.000  C
  H137     1.0000 0.07920  0.45810  0.80600  Biso   1.000  H
  C163     1.0000 0.12520  0.50050  0.77970  Biso   1.000  C
  H138     1.0000 0.14120  0.47470  0.79770  Biso   1.000  H
  C164     1.0000 0.13860  0.54810  0.74850  Biso   1.000  C
  C165     1.0000 0.11520  0.58580  0.72220  Biso   1.000  C
  H139     1.0000 0.12440  0.61830  0.70080  Biso   1.000  H
  C166     1.0000 0.07840  0.57590  0.72710  Biso   1.000  C
  H140     1.0000 0.06240  0.60170  0.70910  Biso   1.000  H
  C167     1.0000 0.94510  0.25600  0.67000  Biso   1.000  C
  H141     1.0000 0.94420  0.23950  0.69590  Biso   1.000  H
  H142     1.0000 0.95010  0.17540  0.65890  Biso   1.000  H
  C168     1.0000 0.91210  0.28800  0.66100  Biso   1.000  C
  H143     1.0000 0.89590  0.24650  0.67810  Biso   1.000  H
  H144     1.0000 0.90770  0.24710  0.63820  Biso   1.000  H
  H145     1.0000 0.85890  0.44700  0.69310  Biso   1.000  H
  H146     1.0000 0.89390  0.52790  0.70040  Biso   1.000  H
  C169     1.0000 0.79200  0.88200  0.58500  Biso   1.000  C
  H147     1.0000 0.10220  0.16030  0.60600  Biso   1.000  H
  H148     1.0000 0.07630  0.10970  0.63690  Biso   1.000  H
  C170     1.0000 0.12480  0.97200  0.61970  Biso   1.000  C
  H149     1.0000 0.12290  0.99060  0.64500  Biso   1.000  H
  H150     1.0000 0.14270  0.02840  0.60880  Biso   1.000  H
  H151     1.0000 0.12840  0.79470  0.58770  Biso   1.000  H
  H152     1.0000 0.16010  0.80070  0.61650  Biso   1.000  H
  Zn7      1.0000 0.73017  0.91304  0.31312  Biso   1.000  Zn
  Zn8      1.0000 0.23406  0.53100  0.97630  Biso   1.000  Zn
  O55      1.0000 0.68900  0.88550  0.28430  Biso   1.000  O
  O56      1.0000 0.69440  0.06600  0.26330  Biso   1.000  O
  O57      1.0000 0.27740  0.85810  0.21890  Biso   1.000  O
  O58      1.0000 0.27900  0.03940  0.19950  Biso   1.000  O
  O59      1.0000 0.69640  0.73840  0.00880  Biso   1.000  O
  O60      1.0000 0.69340  0.93340  0.99250  Biso   1.000  O
  O61      1.0000 0.28260  0.57070  0.02630  Biso   1.000  O
  O62      1.0000 0.28180  0.59940  0.97050  Biso   1.000  O
  O63      1.0000 0.72030  0.02650  0.35370  Biso   1.000  O
  O64      1.0000 0.70050  0.21170  0.36210  Biso   1.000  O
  O65      1.0000 0.56833  0.15720  0.33890  Biso   1.000  O
  O66      1.0000 0.47250  0.17670  0.33470  Biso   1.000  O
  O67      1.0000 0.40470  0.05060  0.33070  Biso   1.000  O
  O68      1.0000 0.38610  0.80470  0.33910  Biso   1.000  O
  O69      1.0000 0.27870  0.65400  0.41270  Biso   1.000  O
  O70      1.0000 0.29750  0.46400  0.43220  Biso   1.000  O
  O71      1.0000 0.42550  0.44640  0.40560  Biso   1.000  O
  O72      1.0000 0.51970  0.43150  0.39560  Biso   1.000  O
  O73      1.0000 0.59250  0.52320  0.37740  Biso   1.000  O
  O74      1.0000 0.60630  0.78300  0.38540  Biso   1.000  O
  N9       1.0000 0.52208  0.12750  0.18743  Biso   1.000  N
  H153     1.0000 0.54470  0.14980  0.18580  Biso   1.000  H
  N10      1.0000 0.46294  0.11260  0.17740  Biso   1.000  N
  N11      1.0000 0.52440  0.59460  0.04520  Biso   1.000  N
  H154     1.0000 0.54700  0.59020  0.05190  Biso   1.000  H
  N12      1.0000 0.46640  0.55510  0.04280  Biso   1.000  N
  C171     1.0000 0.67810  0.97600  0.26850  Biso   1.000  C
  C172     1.0000 0.56510  0.96670  0.24120  Biso   1.000  C
  C173     1.0000 0.58580  0.06790  0.23090  Biso   1.000  C
  H155     1.0000 0.57480  0.13640  0.21920  Biso   1.000  H
  C174     1.0000 0.62240  0.06880  0.23750  Biso   1.000  C
  H156     1.0000 0.63660  0.13800  0.23040  Biso   1.000  H
  C175     1.0000 0.63840  0.96860  0.25450  Biso   1.000  C
  C176     1.0000 0.61770  0.86740  0.26480  Biso   1.000  C
  H157     1.0000 0.62860  0.79890  0.27640  Biso   1.000  H
  C177     1.0000 0.58100  0.86650  0.25820  Biso   1.000  C
  H158     1.0000 0.56690  0.79730  0.26530  Biso   1.000  H
  C178     1.0000 0.52470  0.97110  0.23680  Biso   1.000  C
  C179     1.0000 0.50770  0.04410  0.21140  Biso   1.000  C
  C180     1.0000 0.47110  0.03550  0.20550  Biso   1.000  C
  C181     1.0000 0.44830  0.96050  0.22620  Biso   1.000  C
  C182     1.0000 0.46520  0.89080  0.25120  Biso   1.000  C
  H159     1.0000 0.45130  0.83820  0.26590  Biso   1.000  H
  C183     1.0000 0.50340  0.89530  0.25570  Biso   1.000  C
  H160     1.0000 0.51410  0.84260  0.27280  Biso   1.000  H
  C184     1.0000 0.40860  0.95630  0.22150  Biso   1.000  C
  C185     1.0000 0.38940  0.06840  0.21580  Biso   1.000  C
  H161     1.0000 0.40160  0.14580  0.21420  Biso   1.000  H
  C186     1.0000 0.35200  0.06290  0.21250  Biso   1.000  C
  H162     1.0000 0.33900  0.13750  0.20830  Biso   1.000  H
  C187     1.0000 0.33390  0.95320  0.21520  Biso   1.000  C
  C188     1.0000 0.35160  0.84390  0.22000  Biso   1.000  C
  H163     1.0000 0.33880  0.76730  0.22010  Biso   1.000  H
  C189     1.0000 0.39010  0.84490  0.22510  Biso   1.000  C
  H164     1.0000 0.40250  0.77030  0.23070  Biso   1.000  H
  C190     1.0000 0.29100  0.94600  0.20660  Biso   1.000  C
  C191     1.0000 0.49560  0.16670  0.16760  Biso   1.000  C
  C192     1.0000 0.49730  0.25240  0.13810  Biso   1.000  C
  C193     1.0000 0.52420  0.33990  0.13660  Biso   1.000  C
  H165     1.0000 0.54170  0.34090  0.15460  Biso   1.000  H
  C194     1.0000 0.52660  0.42610  0.11010  Biso   1.000  C
  H166     1.0000 0.54610  0.48330  0.10940  Biso   1.000  H
  C195     1.0000 0.50000  0.42790  0.08440  Biso   1.000  C
  C196     1.0000 0.47330  0.33860  0.08540  Biso   1.000  C
  H167     1.0000 0.45550  0.33670  0.06760  Biso   1.000  H
  C197     1.0000 0.47230  0.25140  0.11230  Biso   1.000  C
  H168     1.0000 0.45380  0.19050  0.11270  Biso   1.000  H
  C198     1.0000 0.49700  0.52580  0.05720  Biso   1.000  C
  C199     1.0000 0.67800  0.83100  0.99770  Biso   1.000  C
  C200     1.0000 0.63970  0.82040  0.99510  Biso   1.000  C
  C201     1.0000 0.61710  0.91710  0.99540  Biso   1.000  C
  H169     1.0000 0.62680  0.99880  0.99430  Biso   1.000  H
  C202     1.0000 0.58110  0.90470  0.99720  Biso   1.000  C
  H170     1.0000 0.56620  0.97640  0.99840  Biso   1.000  H
  C203     1.0000 0.56590  0.78680  0.99720  Biso   1.000  C
  C204     1.0000 0.58910  0.68660  0.99600  Biso   1.000  C
  H171     1.0000 0.57960  0.60450  0.99600  Biso   1.000  H
  C205     1.0000 0.62480  0.70250  0.99490  Biso   1.000  C
  H172     1.0000 0.64000  0.63170  0.99390  Biso   1.000  H
  C206     1.0000 0.52610  0.76500  0.99900  Biso   1.000  C
  C207     1.0000 0.50210  0.83410  0.97830  Biso   1.000  C
  H173     1.0000 0.51110  0.89980  0.96410  Biso   1.000  H
  C208     1.0000 0.46610  0.80930  0.97810  Biso   1.000  C
  H174     1.0000 0.45120  0.85720  0.96300  Biso   1.000  H
  C209     1.0000 0.45020  0.71890  0.99840  Biso   1.000  C
  C210     1.0000 0.47350  0.65050  0.01970  Biso   1.000  C
  C211     1.0000 0.51020  0.67480  0.01990  Biso   1.000  C
  C212     1.0000 0.41030  0.69320  0.99870  Biso   1.000  C
  C213     1.0000 0.39120  0.70070  0.96730  Biso   1.000  C
  H175     1.0000 0.40260  0.72050  0.94580  Biso   1.000  H
  C214     1.0000 0.35280  0.67670  0.96940  Biso   1.000  C
  H176     1.0000 0.33850  0.68680  0.94890  Biso   1.000  H
  C215     1.0000 0.33650  0.63990  0.00000  Biso   1.000  C
  C216     1.0000 0.35730  0.62770  0.02920  Biso   1.000  C
  H177     1.0000 0.34660  0.59760  0.05020  Biso   1.000  H
  C217     1.0000 0.39340  0.65760  0.02930  Biso   1.000  C
  H178     1.0000 0.40660  0.65360  0.05060  Biso   1.000  H
  C218     1.0000 0.29930  0.60410  0.99940  Biso   1.000  C
  C219     1.0000 0.69510  0.10200  0.35860  Biso   1.000  C
  C220     1.0000 0.65780  0.05030  0.35820  Biso   1.000  C
  C221     1.0000 0.62940  0.12790  0.34950  Biso   1.000  C
  H179     1.0000 0.63340  0.21290  0.34370  Biso   1.000  H
  C222     1.0000 0.59510  0.07850  0.34950  Biso   1.000  C
  C223     1.0000 0.58990  0.95220  0.35650  Biso   1.000  C
  H180     1.0000 0.56640  0.91830  0.35610  Biso   1.000  H
  C224     1.0000 0.61860  0.87680  0.36380  Biso   1.000  C
  C225     1.0000 0.65300  0.92360  0.36510  Biso   1.000  C
  H181     1.0000 0.67280  0.87140  0.37060  Biso   1.000  H
  C226     1.0000 0.53250  0.11170  0.34100  Biso   1.000  C
  H182     1.0000 0.52680  0.09020  0.36560  Biso   1.000  H
  H183     1.0000 0.53020  0.03530  0.32660  Biso   1.000  H
  C227     1.0000 0.50740  0.20700  0.32830  Biso   1.000  C
  H184     1.0000 0.51300  0.28740  0.33980  Biso   1.000  H
  H185     1.0000 0.51080  0.21810  0.30270  Biso   1.000  H
  C228     1.0000 0.45010  0.17600  0.31030  Biso   1.000  C
  H186     1.0000 0.46040  0.11830  0.29260  Biso   1.000  H
  H187     1.0000 0.45160  0.25990  0.29980  Biso   1.000  H
  C229     1.0000 0.41530  0.15000  0.31040  Biso   1.000  C
  H188     1.0000 0.40770  0.13320  0.28600  Biso   1.000  H
  H189     1.0000 0.40220  0.22450  0.31850  Biso   1.000  H
  C230     1.0000 0.37780  0.00270  0.31840  Biso   1.000  C
  H190     1.0000 0.38370  0.97990  0.29390  Biso   1.000  H
  H191     1.0000 0.35940  0.06900  0.31710  Biso   1.000  H
  C231     1.0000 0.36230  0.90610  0.33220  Biso   1.000  C
  H192     1.0000 0.34310  0.87710  0.31630  Biso   1.000  H
  H193     1.0000 0.35080  0.93150  0.35450  Biso   1.000  H
  C232     1.0000 0.37390  0.70970  0.36080  Biso   1.000  C
  C233     1.0000 0.34440  0.68990  0.37660  Biso   1.000  C
  H194     1.0000 0.32560  0.74850  0.37300  Biso   1.000  H
  C234     1.0000 0.33710  0.59010  0.39870  Biso   1.000  C
  C235     1.0000 0.36550  0.50470  0.40890  Biso   1.000  C
  H195     1.0000 0.36150  0.43860  0.42510  Biso   1.000  H
  C236     1.0000 0.39770  0.52510  0.39420  Biso   1.000  C
  C237     1.0000 0.40330  0.62220  0.36990  Biso   1.000  C
  H196     1.0000 0.42620  0.63180  0.35930  Biso   1.000  H
  C238     1.0000 0.30160  0.56500  0.41590  Biso   1.000  C
  C239     1.0000 0.45960  0.47980  0.39320  Biso   1.000  C
  H197     1.0000 0.46450  0.56840  0.39850  Biso   1.000  H
  H198     1.0000 0.46080  0.46820  0.36750  Biso   1.000  H
  C240     1.0000 0.48660  0.39950  0.41060  Biso   1.000  C
  H199     1.0000 0.48680  0.41500  0.43620  Biso   1.000  H
  H200     1.0000 0.48110  0.31040  0.40650  Biso   1.000  H
  C241     1.0000 0.54890  0.37540  0.41220  Biso   1.000  C
  H201     1.0000 0.54450  0.28500  0.41520  Biso   1.000  H
  H202     1.0000 0.55280  0.41290  0.43560  Biso   1.000  H
  C242     1.0000 0.58240  0.39780  0.38830  Biso   1.000  C
  H203     1.0000 0.60340  0.36160  0.40050  Biso   1.000  H
  H204     1.0000 0.57880  0.34810  0.36670  Biso   1.000  H
  C243     1.0000 0.61450  0.58200  0.40170  Biso   1.000  C
  H205     1.0000 0.63130  0.51980  0.41160  Biso   1.000  H
  H206     1.0000 0.59950  0.61360  0.42120  Biso   1.000  H
  C244     1.0000 0.63450  0.68120  0.38790  Biso   1.000  C
  H207     1.0000 0.64440  0.66040  0.36460  Biso   1.000  H
  H208     1.0000 0.65420  0.70560  0.40380  Biso   1.000  H
  O75      1.0000 0.24300  0.35390  0.98750  Biso   1.000  O
  H209     1.0000 0.22260  0.31620  0.99040  Biso   1.000  H
  H210     1.0000 0.25460  0.31930  0.97030  Biso   1.000  H
  Zn9      1.0000 0.24750  0.68180  0.95710  Biso   1.000  Zn
  O76      1.0000 0.70190  0.98500  0.23870  Biso   1.000  O
  O77      1.0000 0.40030  0.09300  0.34200  Biso   1.000  O
  O78      1.0000 0.28200  0.72900  0.41500  Biso   1.000  O
  O79      1.0000 0.28140  0.51200  0.42400  Biso   1.000  O
  O80      1.0000 0.59090  0.52040  0.39740  Biso   1.000  O
  O81      1.0000 0.61210  0.74340  0.36340  Biso   1.000  O
  H211     1.0000 0.27270  0.83900  0.00380  Biso   1.000  H
  H212     1.0000 0.23700  0.87860  0.99710  Biso   1.000  H
  C245     1.0000 0.67880  0.94400  0.25760  Biso   1.000  C
  C246     1.0000 0.56490  0.97170  0.24170  Biso   1.000  C
  C247     1.0000 0.58840  0.00940  0.21540  Biso   1.000  C
  H213     1.0000 0.57920  0.04190  0.19400  Biso   1.000  H
  C248     1.0000 0.62520  0.99950  0.22030  Biso   1.000  C
  H214     1.0000 0.64120  0.02530  0.20230  Biso   1.000  H
  C249     1.0000 0.63860  0.95190  0.25150  Biso   1.000  C
  C250     1.0000 0.61520  0.91420  0.27780  Biso   1.000  C
  H215     1.0000 0.62440  0.88170  0.29920  Biso   1.000  H
  C251     1.0000 0.57840  0.92410  0.27290  Biso   1.000  C
  H216     1.0000 0.56240  0.89830  0.29090  Biso   1.000  H
  C252     1.0000 0.44510  0.24400  0.33000  Biso   1.000  C
  H217     1.0000 0.44420  0.26050  0.30410  Biso   1.000  H
  H218     1.0000 0.45010  0.32460  0.34110  Biso   1.000  H
  C253     1.0000 0.41210  0.21200  0.33900  Biso   1.000  C
  H219     1.0000 0.39590  0.25350  0.32190  Biso   1.000  H
  H220     1.0000 0.40770  0.25290  0.36180  Biso   1.000  H
  H221     1.0000 0.35890  0.05300  0.30690  Biso   1.000  H
  H222     1.0000 0.39390  0.97210  0.29960  Biso   1.000  H
  C254     1.0000 0.29200  0.61800  0.41500  Biso   1.000  C
  H223     1.0000 0.60220  0.33970  0.39400  Biso   1.000  H
  H224     1.0000 0.57630  0.39030  0.36310  Biso   1.000  H
  C255     1.0000 0.62480  0.52800  0.38030  Biso   1.000  C
  H225     1.0000 0.62290  0.50940  0.35500  Biso   1.000  H
  H226     1.0000 0.64270  0.47160  0.39120  Biso   1.000  H
  H227     1.0000 0.62840  0.70530  0.41230  Biso   1.000  H
  H228     1.0000 0.66010  0.69930  0.38350  Biso   1.000  H
  Zn10     1.0000 0.76983  0.08696  0.81312  Biso   1.000  Zn
  Zn11     1.0000 0.26594  0.46900  0.47630  Biso   1.000  Zn
  O82      1.0000 0.81100  0.11450  0.78430  Biso   1.000  O
  O83      1.0000 0.80560  0.93400  0.76330  Biso   1.000  O
  O84      1.0000 0.22260  0.14190  0.71890  Biso   1.000  O
  O85      1.0000 0.22100  0.96060  0.69950  Biso   1.000  O
  O86      1.0000 0.80360  0.26160  0.50880  Biso   1.000  O
  O87      1.0000 0.80660  0.06660  0.49250  Biso   1.000  O
  O88      1.0000 0.21740  0.42930  0.52630  Biso   1.000  O
  O89      1.0000 0.21820  0.40060  0.47050  Biso   1.000  O
  O90      1.0000 0.77970  0.97350  0.85370  Biso   1.000  O
  O91      1.0000 0.79950  0.78830  0.86210  Biso   1.000  O
  O92      1.0000 0.93167  0.84280  0.83890  Biso   1.000  O
  O93      1.0000 0.02750  0.82330  0.83470  Biso   1.000  O
  O94      1.0000 0.09530  0.94940  0.83070  Biso   1.000  O
  O95      1.0000 0.11390  0.19530  0.83910  Biso   1.000  O
  O96      1.0000 0.22130  0.34600  0.91270  Biso   1.000  O
  O97      1.0000 0.20250  0.53600  0.93220  Biso   1.000  O
  O98      1.0000 0.07450  0.55360  0.90560  Biso   1.000  O
  O99      1.0000 0.98030  0.56850  0.89560  Biso   1.000  O
  O100     1.0000 0.90750  0.47680  0.87740  Biso   1.000  O
  O101     1.0000 0.89370  0.21700  0.88540  Biso   1.000  O
  N13      1.0000 0.97792  0.87250  0.68743  Biso   1.000  N
  H229     1.0000 0.95530  0.85020  0.68580  Biso   1.000  H
  N14      1.0000 0.03706  0.88740  0.67740  Biso   1.000  N
  N15      1.0000 0.97560  0.40540  0.54520  Biso   1.000  N
  H230     1.0000 0.95300  0.40980  0.55190  Biso   1.000  H
  N16      1.0000 0.03360  0.44490  0.54280  Biso   1.000  N
  C256     1.0000 0.82190  0.02400  0.76850  Biso   1.000  C
  C257     1.0000 0.93490  0.03330  0.74120  Biso   1.000  C
  C258     1.0000 0.91420  0.93210  0.73090  Biso   1.000  C
  H231     1.0000 0.92520  0.86360  0.71920  Biso   1.000  H
  C259     1.0000 0.87760  0.93120  0.73750  Biso   1.000  C
  H232     1.0000 0.86340  0.86200  0.73040  Biso   1.000  H
  C260     1.0000 0.86160  0.03140  0.75450  Biso   1.000  C
  C261     1.0000 0.88230  0.13260  0.76480  Biso   1.000  C
  H233     1.0000 0.87140  0.20110  0.77640  Biso   1.000  H
  C262     1.0000 0.91900  0.13350  0.75820  Biso   1.000  C
  H234     1.0000 0.93310  0.20270  0.76530  Biso   1.000  H
  C263     1.0000 0.97530  0.02890  0.73680  Biso   1.000  C
  C264     1.0000 0.99230  0.95590  0.71140  Biso   1.000  C
  C265     1.0000 0.02890  0.96450  0.70550  Biso   1.000  C
  C266     1.0000 0.05170  0.03950  0.72620  Biso   1.000  C
  C267     1.0000 0.03480  0.10920  0.75120  Biso   1.000  C
  H235     1.0000 0.04870  0.16180  0.76590  Biso   1.000  H
  C268     1.0000 0.99660  0.10470  0.75570  Biso   1.000  C
  H236     1.0000 0.98590  0.15740  0.77280  Biso   1.000  H
  C269     1.0000 0.09140  0.04370  0.72150  Biso   1.000  C
  C270     1.0000 0.11060  0.93160  0.71580  Biso   1.000  C
  H237     1.0000 0.09840  0.85420  0.71420  Biso   1.000  H
  C271     1.0000 0.14800  0.93710  0.71250  Biso   1.000  C
  H238     1.0000 0.16100  0.86250  0.70830  Biso   1.000  H
  C272     1.0000 0.16610  0.04680  0.71520  Biso   1.000  C
  C273     1.0000 0.14840  0.15610  0.72000  Biso   1.000  C
  H239     1.0000 0.16120  0.23270  0.72010  Biso   1.000  H
  C274     1.0000 0.10990  0.15510  0.72510  Biso   1.000  C
  H240     1.0000 0.09750  0.22970  0.73070  Biso   1.000  H
  C275     1.0000 0.20900  0.05400  0.70660  Biso   1.000  C
  C276     1.0000 0.00440  0.83330  0.66760  Biso   1.000  C
  C277     1.0000 0.00270  0.74760  0.63810  Biso   1.000  C
  C278     1.0000 0.97580  0.66010  0.63660  Biso   1.000  C
  H241     1.0000 0.95830  0.65910  0.65460  Biso   1.000  H
  C279     1.0000 0.97340  0.57390  0.61010  Biso   1.000  C
  H242     1.0000 0.95390  0.51670  0.60940  Biso   1.000  H
  C280     1.0000 0.00000  0.57210  0.58440  Biso   1.000  C
  C281     1.0000 0.02670  0.66140  0.58540  Biso   1.000  C
  H243     1.0000 0.04450  0.66330  0.56760  Biso   1.000  H
  C282     1.0000 0.02770  0.74860  0.61230  Biso   1.000  C
  H244     1.0000 0.04620  0.80950  0.61270  Biso   1.000  H
  C283     1.0000 0.00300  0.47420  0.55720  Biso   1.000  C
  C284     1.0000 0.82200  0.16900  0.49770  Biso   1.000  C
  C285     1.0000 0.86030  0.17960  0.49510  Biso   1.000  C
  C286     1.0000 0.88290  0.08290  0.49540  Biso   1.000  C
  H245     1.0000 0.87320  0.00120  0.49430  Biso   1.000  H
  C287     1.0000 0.91890  0.09530  0.49720  Biso   1.000  C
  H246     1.0000 0.93380  0.02360  0.49840  Biso   1.000  H
  C288     1.0000 0.93410  0.21320  0.49720  Biso   1.000  C
  C289     1.0000 0.91090  0.31340  0.49600  Biso   1.000  C
  H247     1.0000 0.92040  0.39550  0.49600  Biso   1.000  H
  C290     1.0000 0.87520  0.29750  0.49490  Biso   1.000  C
  H248     1.0000 0.86000  0.36830  0.49390  Biso   1.000  H
  C291     1.0000 0.97390  0.23500  0.49900  Biso   1.000  C
  C292     1.0000 0.99790  0.16590  0.47830  Biso   1.000  C
  H249     1.0000 0.98890  0.10020  0.46410  Biso   1.000  H
  C293     1.0000 0.03390  0.19070  0.47810  Biso   1.000  C
  H250     1.0000 0.04880  0.14280  0.46300  Biso   1.000  H
  C294     1.0000 0.04980  0.28110  0.49840  Biso   1.000  C
  C295     1.0000 0.02650  0.34950  0.51970  Biso   1.000  C
  C296     1.0000 0.98980  0.32520  0.51990  Biso   1.000  C
  C297     1.0000 0.08970  0.30680  0.49870  Biso   1.000  C
  C298     1.0000 0.10880  0.29930  0.46730  Biso   1.000  C
  H251     1.0000 0.09740  0.27950  0.44580  Biso   1.000  H
  C299     1.0000 0.14720  0.32330  0.46940  Biso   1.000  C
  H252     1.0000 0.16150  0.31320  0.44890  Biso   1.000  H
  C300     1.0000 0.16350  0.36010  0.50000  Biso   1.000  C
  C301     1.0000 0.14270  0.37230  0.52920  Biso   1.000  C
  H253     1.0000 0.15340  0.40240  0.55020  Biso   1.000  H
  C302     1.0000 0.10660  0.34240  0.52930  Biso   1.000  C
  H254     1.0000 0.09340  0.34640  0.55060  Biso   1.000  H
  C303     1.0000 0.20070  0.39590  0.49940  Biso   1.000  C
  C304     1.0000 0.80490  0.89800  0.85860  Biso   1.000  C
  C305     1.0000 0.84220  0.94970  0.85820  Biso   1.000  C
  C306     1.0000 0.87060  0.87210  0.84950  Biso   1.000  C
  H255     1.0000 0.86660  0.78710  0.84370  Biso   1.000  H
  C307     1.0000 0.90490  0.92150  0.84950  Biso   1.000  C
  C308     1.0000 0.91010  0.04780  0.85650  Biso   1.000  C
  H256     1.0000 0.93360  0.08170  0.85610  Biso   1.000  H
  C309     1.0000 0.88140  0.12320  0.86380  Biso   1.000  C
  C310     1.0000 0.84700  0.07640  0.86510  Biso   1.000  C
  H257     1.0000 0.82720  0.12860  0.87060  Biso   1.000  H
  C311     1.0000 0.96750  0.88830  0.84100  Biso   1.000  C
  H258     1.0000 0.97320  0.90980  0.86560  Biso   1.000  H
  H259     1.0000 0.96980  0.96470  0.82660  Biso   1.000  H
  C312     1.0000 0.99260  0.79300  0.82830  Biso   1.000  C
  H260     1.0000 0.98700  0.71260  0.83980  Biso   1.000  H
  H261     1.0000 0.98920  0.78190  0.80270  Biso   1.000  H
  C313     1.0000 0.04990  0.82400  0.81030  Biso   1.000  C
  H262     1.0000 0.03960  0.88170  0.79260  Biso   1.000  H
  H263     1.0000 0.04840  0.74010  0.79980  Biso   1.000  H
  C314     1.0000 0.08470  0.85000  0.81040  Biso   1.000  C
  H264     1.0000 0.09230  0.86680  0.78600  Biso   1.000  H
  H265     1.0000 0.09780  0.77550  0.81850  Biso   1.000  H
  C315     1.0000 0.12220  0.99730  0.81840  Biso   1.000  C
  H266     1.0000 0.11630  0.02010  0.79390  Biso   1.000  H
  H267     1.0000 0.14060  0.93100  0.81710  Biso   1.000  H
  C316     1.0000 0.13770  0.09390  0.83220  Biso   1.000  C
  H268     1.0000 0.15690  0.12290  0.81630  Biso   1.000  H
  H269     1.0000 0.14920  0.06850  0.85450  Biso   1.000  H
  C317     1.0000 0.12610  0.29030  0.86080  Biso   1.000  C
  C318     1.0000 0.15560  0.31010  0.87660  Biso   1.000  C
  H270     1.0000 0.17440  0.25150  0.87300  Biso   1.000  H
  C319     1.0000 0.16290  0.40990  0.89870  Biso   1.000  C
  C320     1.0000 0.13450  0.49530  0.90890  Biso   1.000  C
  H271     1.0000 0.13850  0.56140  0.92510  Biso   1.000  H
  C321     1.0000 0.10230  0.47490  0.89420  Biso   1.000  C
  C322     1.0000 0.09670  0.37780  0.86990  Biso   1.000  C
  H272     1.0000 0.07380  0.36820  0.85930  Biso   1.000  H
  C323     1.0000 0.19840  0.43500  0.91590  Biso   1.000  C
  C324     1.0000 0.04040  0.52020  0.89320  Biso   1.000  C
  H273     1.0000 0.03550  0.43160  0.89850  Biso   1.000  H
  H274     1.0000 0.03920  0.53180  0.86750  Biso   1.000  H
  C325     1.0000 0.01340  0.60050  0.91060  Biso   1.000  C
  H275     1.0000 0.01320  0.58500  0.93620  Biso   1.000  H
  H276     1.0000 0.01890  0.68960  0.90650  Biso   1.000  H
  C326     1.0000 0.95110  0.62460  0.91220  Biso   1.000  C
  H277     1.0000 0.95550  0.71500  0.91520  Biso   1.000  H
  H278     1.0000 0.94720  0.58710  0.93560  Biso   1.000  H
  C327     1.0000 0.91760  0.60220  0.88830  Biso   1.000  C
  H279     1.0000 0.89660  0.63840  0.90050  Biso   1.000  H
  H280     1.0000 0.92120  0.65190  0.86670  Biso   1.000  H
  C328     1.0000 0.88550  0.41800  0.90170  Biso   1.000  C
  H281     1.0000 0.86870  0.48020  0.91160  Biso   1.000  H
  H282     1.0000 0.90050  0.38640  0.92120  Biso   1.000  H
  C329     1.0000 0.86550  0.31880  0.88790  Biso   1.000  C
  H283     1.0000 0.85560  0.33960  0.86460  Biso   1.000  H
  H284     1.0000 0.84580  0.29440  0.90380  Biso   1.000  H
  O102     1.0000 0.25700  0.64610  0.48750  Biso   1.000  O
  H285     1.0000 0.27740  0.68380  0.49040  Biso   1.000  H
  H286     1.0000 0.24540  0.68070  0.47030  Biso   1.000  H
  Zn12     1.0000 0.25250  0.31820  0.45710  Biso   1.000  Zn
  O103     1.0000 0.79810  0.01500  0.73870  Biso   1.000  O
  O104     1.0000 0.09970  0.90700  0.84200  Biso   1.000  O
  O105     1.0000 0.21800  0.27100  0.91500  Biso   1.000  O
  O106     1.0000 0.21860  0.48800  0.92400  Biso   1.000  O
  O107     1.0000 0.90910  0.47960  0.89740  Biso   1.000  O
  O108     1.0000 0.88790  0.25660  0.86340  Biso   1.000  O
  H287     1.0000 0.22730  0.16100  0.50380  Biso   1.000  H
  H288     1.0000 0.26300  0.12140  0.49710  Biso   1.000  H
  C330     1.0000 0.82120  0.05600  0.75760  Biso   1.000  C
  C331     1.0000 0.93510  0.02830  0.74170  Biso   1.000  C
  C332     1.0000 0.91160  0.99060  0.71540  Biso   1.000  C
  H289     1.0000 0.92080  0.95810  0.69400  Biso   1.000  H
  C333     1.0000 0.87480  0.00050  0.72030  Biso   1.000  C
  H290     1.0000 0.85880  0.97470  0.70230  Biso   1.000  H
  C334     1.0000 0.86140  0.04810  0.75150  Biso   1.000  C
  C335     1.0000 0.88480  0.08580  0.77780  Biso   1.000  C
  H291     1.0000 0.87560  0.11830  0.79920  Biso   1.000  H
  C336     1.0000 0.92160  0.07590  0.77290  Biso   1.000  C
  H292     1.0000 0.93760  0.10170  0.79090  Biso   1.000  H
  C337     1.0000 0.05490  0.75600  0.83000  Biso   1.000  C
  H293     1.0000 0.05580  0.73950  0.80410  Biso   1.000  H
  H294     1.0000 0.04990  0.67540  0.84110  Biso   1.000  H
  C338     1.0000 0.08790  0.78800  0.83900  Biso   1.000  C
  H295     1.0000 0.10410  0.74650  0.82190  Biso   1.000  H
  H296     1.0000 0.09230  0.74710  0.86180  Biso   1.000  H
  H297     1.0000 0.14110  0.94700  0.80690  Biso   1.000  H
  H298     1.0000 0.10610  0.02790  0.79960  Biso   1.000  H
  C339     1.0000 0.20800  0.38200  0.91500  Biso   1.000  C
  H299     1.0000 0.89780  0.66030  0.89400  Biso   1.000  H
  H300     1.0000 0.92370  0.60970  0.86310  Biso   1.000  H
  C340     1.0000 0.87520  0.47200  0.88030  Biso   1.000  C
  H301     1.0000 0.87710  0.49060  0.85500  Biso   1.000  H
  H302     1.0000 0.85730  0.52840  0.89120  Biso   1.000  H
  H303     1.0000 0.87160  0.29470  0.91230  Biso   1.000  H
  H304     1.0000 0.83990  0.30070  0.88350  Biso   1.000  H
  Zn13     1.0000 0.73017  0.58696  0.81312  Biso   1.000  Zn
  Zn14     1.0000 0.23406  0.96900  0.47630  Biso   1.000  Zn
  O109     1.0000 0.68900  0.61450  0.78430  Biso   1.000  O
  O110     1.0000 0.69440  0.43400  0.76330  Biso   1.000  O
  O111     1.0000 0.27740  0.64190  0.71890  Biso   1.000  O
  O112     1.0000 0.27900  0.46060  0.69950  Biso   1.000  O
  O113     1.0000 0.69640  0.76160  0.50880  Biso   1.000  O
  O114     1.0000 0.69340  0.56660  0.49250  Biso   1.000  O
  O115     1.0000 0.28260  0.92930  0.52630  Biso   1.000  O
  O116     1.0000 0.28180  0.90060  0.47050  Biso   1.000  O
  O117     1.0000 0.72030  0.47350  0.85370  Biso   1.000  O
  O118     1.0000 0.70050  0.28830  0.86210  Biso   1.000  O
  O119     1.0000 0.56833  0.34280  0.83890  Biso   1.000  O
  O120     1.0000 0.47250  0.32330  0.83470  Biso   1.000  O
  O121     1.0000 0.40470  0.44940  0.83070  Biso   1.000  O
  O122     1.0000 0.38610  0.69530  0.83910  Biso   1.000  O
  O123     1.0000 0.27870  0.84600  0.91270  Biso   1.000  O
  O124     1.0000 0.29750  0.03600  0.93220  Biso   1.000  O
  O125     1.0000 0.42550  0.05360  0.90560  Biso   1.000  O
  O126     1.0000 0.51970  0.06850  0.89560  Biso   1.000  O
  O127     1.0000 0.59250  0.97680  0.87740  Biso   1.000  O
  O128     1.0000 0.60630  0.71700  0.88540  Biso   1.000  O
  N17      1.0000 0.52208  0.37250  0.68743  Biso   1.000  N
  H305     1.0000 0.54470  0.35020  0.68580  Biso   1.000  H
  N18      1.0000 0.46294  0.38740  0.67740  Biso   1.000  N
  N19      1.0000 0.52440  0.90540  0.54520  Biso   1.000  N
  H306     1.0000 0.54700  0.90980  0.55190  Biso   1.000  H
  N20      1.0000 0.46640  0.94490  0.54280  Biso   1.000  N
  C341     1.0000 0.67810  0.52400  0.76850  Biso   1.000  C
  C342     1.0000 0.56510  0.53330  0.74120  Biso   1.000  C
  C343     1.0000 0.58580  0.43210  0.73090  Biso   1.000  C
  H307     1.0000 0.57480  0.36360  0.71920  Biso   1.000  H
  C344     1.0000 0.62240  0.43120  0.73750  Biso   1.000  C
  H308     1.0000 0.63660  0.36200  0.73040  Biso   1.000  H
  C345     1.0000 0.63840  0.53140  0.75450  Biso   1.000  C
  C346     1.0000 0.61770  0.63260  0.76480  Biso   1.000  C
  H309     1.0000 0.62860  0.70110  0.77640  Biso   1.000  H
  C347     1.0000 0.58100  0.63350  0.75820  Biso   1.000  C
  H310     1.0000 0.56690  0.70270  0.76530  Biso   1.000  H
  C348     1.0000 0.52470  0.52890  0.73680  Biso   1.000  C
  C349     1.0000 0.50770  0.45590  0.71140  Biso   1.000  C
  C350     1.0000 0.47110  0.46450  0.70550  Biso   1.000  C
  C351     1.0000 0.44830  0.53950  0.72620  Biso   1.000  C
  C352     1.0000 0.46520  0.60920  0.75120  Biso   1.000  C
  H311     1.0000 0.45130  0.66180  0.76590  Biso   1.000  H
  C353     1.0000 0.50340  0.60470  0.75570  Biso   1.000  C
  H312     1.0000 0.51410  0.65740  0.77280  Biso   1.000  H
  C354     1.0000 0.40860  0.54370  0.72150  Biso   1.000  C
  C355     1.0000 0.38940  0.43160  0.71580  Biso   1.000  C
  H313     1.0000 0.40160  0.35420  0.71420  Biso   1.000  H
  C356     1.0000 0.35200  0.43710  0.71250  Biso   1.000  C
  H314     1.0000 0.33900  0.36250  0.70830  Biso   1.000  H
  C357     1.0000 0.33390  0.54680  0.71520  Biso   1.000  C
  C358     1.0000 0.35160  0.65610  0.72000  Biso   1.000  C
  H315     1.0000 0.33880  0.73270  0.72010  Biso   1.000  H
  C359     1.0000 0.39010  0.65510  0.72510  Biso   1.000  C
  H316     1.0000 0.40250  0.72970  0.73070  Biso   1.000  H
  C360     1.0000 0.29100  0.55400  0.70660  Biso   1.000  C
  C361     1.0000 0.49560  0.33330  0.66760  Biso   1.000  C
  C362     1.0000 0.49730  0.24760  0.63810  Biso   1.000  C
  C363     1.0000 0.52420  0.16010  0.63660  Biso   1.000  C
  H317     1.0000 0.54170  0.15910  0.65460  Biso   1.000  H
  C364     1.0000 0.52660  0.07390  0.61010  Biso   1.000  C
  H318     1.0000 0.54610  0.01670  0.60940  Biso   1.000  H
  C365     1.0000 0.50000  0.07210  0.58440  Biso   1.000  C
  C366     1.0000 0.47330  0.16140  0.58540  Biso   1.000  C
  H319     1.0000 0.45550  0.16330  0.56760  Biso   1.000  H
  C367     1.0000 0.47230  0.24860  0.61230  Biso   1.000  C
  H320     1.0000 0.45380  0.30950  0.61270  Biso   1.000  H
  C368     1.0000 0.49700  0.97420  0.55720  Biso   1.000  C
  C369     1.0000 0.67800  0.66900  0.49770  Biso   1.000  C
  C370     1.0000 0.63970  0.67960  0.49510  Biso   1.000  C
  C371     1.0000 0.61710  0.58290  0.49540  Biso   1.000  C
  H321     1.0000 0.62680  0.50120  0.49430  Biso   1.000  H
  C372     1.0000 0.58110  0.59530  0.49720  Biso   1.000  C
  H322     1.0000 0.56620  0.52360  0.49840  Biso   1.000  H
  C373     1.0000 0.56590  0.71320  0.49720  Biso   1.000  C
  C374     1.0000 0.58910  0.81340  0.49600  Biso   1.000  C
  H323     1.0000 0.57960  0.89550  0.49600  Biso   1.000  H
  C375     1.0000 0.62480  0.79750  0.49490  Biso   1.000  C
  H324     1.0000 0.64000  0.86830  0.49390  Biso   1.000  H
  C376     1.0000 0.52610  0.73500  0.49900  Biso   1.000  C
  C377     1.0000 0.50210  0.66590  0.47830  Biso   1.000  C
  H325     1.0000 0.51110  0.60020  0.46410  Biso   1.000  H
  C378     1.0000 0.46610  0.69070  0.47810  Biso   1.000  C
  H326     1.0000 0.45120  0.64280  0.46300  Biso   1.000  H
  C379     1.0000 0.45020  0.78110  0.49840  Biso   1.000  C
  C380     1.0000 0.47350  0.84950  0.51970  Biso   1.000  C
  C381     1.0000 0.51020  0.82520  0.51990  Biso   1.000  C
  C382     1.0000 0.41030  0.80680  0.49870  Biso   1.000  C
  C383     1.0000 0.39120  0.79930  0.46730  Biso   1.000  C
  H327     1.0000 0.40260  0.77950  0.44580  Biso   1.000  H
  C384     1.0000 0.35280  0.82330  0.46940  Biso   1.000  C
  H328     1.0000 0.33850  0.81320  0.44890  Biso   1.000  H
  C385     1.0000 0.33650  0.86010  0.50000  Biso   1.000  C
  C386     1.0000 0.35730  0.87230  0.52920  Biso   1.000  C
  H329     1.0000 0.34660  0.90240  0.55020  Biso   1.000  H
  C387     1.0000 0.39340  0.84240  0.52930  Biso   1.000  C
  H330     1.0000 0.40660  0.84640  0.55060  Biso   1.000  H
  C388     1.0000 0.29930  0.89590  0.49940  Biso   1.000  C
  C389     1.0000 0.69510  0.39800  0.85860  Biso   1.000  C
  C390     1.0000 0.65780  0.44970  0.85820  Biso   1.000  C
  C391     1.0000 0.62940  0.37210  0.84950  Biso   1.000  C
  H331     1.0000 0.63340  0.28710  0.84370  Biso   1.000  H
  C392     1.0000 0.59510  0.42150  0.84950  Biso   1.000  C
  C393     1.0000 0.58990  0.54780  0.85650  Biso   1.000  C
  H332     1.0000 0.56640  0.58170  0.85610  Biso   1.000  H
  C394     1.0000 0.61860  0.62320  0.86380  Biso   1.000  C
  C395     1.0000 0.65300  0.57640  0.86510  Biso   1.000  C
  H333     1.0000 0.67280  0.62860  0.87060  Biso   1.000  H
  C396     1.0000 0.53250  0.38830  0.84100  Biso   1.000  C
  H334     1.0000 0.52680  0.40980  0.86560  Biso   1.000  H
  H335     1.0000 0.53020  0.46470  0.82660  Biso   1.000  H
  C397     1.0000 0.50740  0.29300  0.82830  Biso   1.000  C
  H336     1.0000 0.51300  0.21260  0.83980  Biso   1.000  H
  H337     1.0000 0.51080  0.28190  0.80270  Biso   1.000  H
  C398     1.0000 0.45010  0.32400  0.81030  Biso   1.000  C
  H338     1.0000 0.46040  0.38170  0.79260  Biso   1.000  H
  H339     1.0000 0.45160  0.24010  0.79980  Biso   1.000  H
  C399     1.0000 0.41530  0.35000  0.81040  Biso   1.000  C
  H340     1.0000 0.40770  0.36680  0.78600  Biso   1.000  H
  H341     1.0000 0.40220  0.27550  0.81850  Biso   1.000  H
  C400     1.0000 0.37780  0.49730  0.81840  Biso   1.000  C
  H342     1.0000 0.38370  0.52010  0.79390  Biso   1.000  H
  H343     1.0000 0.35940  0.43100  0.81710  Biso   1.000  H
  C401     1.0000 0.36230  0.59390  0.83220  Biso   1.000  C
  H344     1.0000 0.34310  0.62290  0.81630  Biso   1.000  H
  H345     1.0000 0.35080  0.56850  0.85450  Biso   1.000  H
  C402     1.0000 0.37390  0.79030  0.86080  Biso   1.000  C
  C403     1.0000 0.34440  0.81010  0.87660  Biso   1.000  C
  H346     1.0000 0.32560  0.75150  0.87300  Biso   1.000  H
  C404     1.0000 0.33710  0.90990  0.89870  Biso   1.000  C
  C405     1.0000 0.36550  0.99530  0.90890  Biso   1.000  C
  H347     1.0000 0.36150  0.06140  0.92510  Biso   1.000  H
  C406     1.0000 0.39770  0.97490  0.89420  Biso   1.000  C
  C407     1.0000 0.40330  0.87780  0.86990  Biso   1.000  C
  H348     1.0000 0.42620  0.86820  0.85930  Biso   1.000  H
  C408     1.0000 0.30160  0.93500  0.91590  Biso   1.000  C
  C409     1.0000 0.45960  0.02020  0.89320  Biso   1.000  C
  H349     1.0000 0.46450  0.93160  0.89850  Biso   1.000  H
  H350     1.0000 0.46080  0.03180  0.86750  Biso   1.000  H
  C410     1.0000 0.48660  0.10050  0.91060  Biso   1.000  C
  H351     1.0000 0.48680  0.08500  0.93620  Biso   1.000  H
  H352     1.0000 0.48110  0.18960  0.90650  Biso   1.000  H
  C411     1.0000 0.54890  0.12460  0.91220  Biso   1.000  C
  H353     1.0000 0.54450  0.21500  0.91520  Biso   1.000  H
  H354     1.0000 0.55280  0.08710  0.93560  Biso   1.000  H
  C412     1.0000 0.58240  0.10220  0.88830  Biso   1.000  C
  H355     1.0000 0.60340  0.13840  0.90050  Biso   1.000  H
  H356     1.0000 0.57880  0.15190  0.86670  Biso   1.000  H
  C413     1.0000 0.61450  0.91800  0.90170  Biso   1.000  C
  H357     1.0000 0.63130  0.98020  0.91160  Biso   1.000  H
  H358     1.0000 0.59950  0.88640  0.92120  Biso   1.000  H
  C414     1.0000 0.63450  0.81880  0.88790  Biso   1.000  C
  H359     1.0000 0.64440  0.83960  0.86460  Biso   1.000  H
  H360     1.0000 0.65420  0.79440  0.90380  Biso   1.000  H
  O129     1.0000 0.24300  0.14610  0.48750  Biso   1.000  O
  H361     1.0000 0.22260  0.18380  0.49040  Biso   1.000  H
  H362     1.0000 0.25460  0.18070  0.47030  Biso   1.000  H
  Zn15     1.0000 0.24750  0.81820  0.45710  Biso   1.000  Zn
  O130     1.0000 0.70190  0.51500  0.73870  Biso   1.000  O
  O131     1.0000 0.40030  0.40700  0.84200  Biso   1.000  O
  O132     1.0000 0.28200  0.77100  0.91500  Biso   1.000  O
  O133     1.0000 0.28140  0.98800  0.92400  Biso   1.000  O
  O134     1.0000 0.59090  0.97960  0.89740  Biso   1.000  O
  O135     1.0000 0.61210  0.75660  0.86340  Biso   1.000  O
  H363     1.0000 0.27270  0.66100  0.50380  Biso   1.000  H
  H364     1.0000 0.23700  0.62140  0.49710  Biso   1.000  H
  C415     1.0000 0.67880  0.55600  0.75760  Biso   1.000  C
  C416     1.0000 0.56490  0.52830  0.74170  Biso   1.000  C
  C417     1.0000 0.58840  0.49060  0.71540  Biso   1.000  C
  H365     1.0000 0.57920  0.45810  0.69400  Biso   1.000  H
  C418     1.0000 0.62520  0.50050  0.72030  Biso   1.000  C
  H366     1.0000 0.64120  0.47470  0.70230  Biso   1.000  H
  C419     1.0000 0.63860  0.54810  0.75150  Biso   1.000  C
  C420     1.0000 0.61520  0.58580  0.77780  Biso   1.000  C
  H367     1.0000 0.62440  0.61830  0.79920  Biso   1.000  H
  C421     1.0000 0.57840  0.57590  0.77290  Biso   1.000  C
  H368     1.0000 0.56240  0.60170  0.79090  Biso   1.000  H
  C422     1.0000 0.44510  0.25600  0.83000  Biso   1.000  C
  H369     1.0000 0.44420  0.23950  0.80410  Biso   1.000  H
  H370     1.0000 0.45010  0.17540  0.84110  Biso   1.000  H
  C423     1.0000 0.41210  0.28800  0.83900  Biso   1.000  C
  H371     1.0000 0.39590  0.24650  0.82190  Biso   1.000  H
  H372     1.0000 0.40770  0.24710  0.86180  Biso   1.000  H
  H373     1.0000 0.35890  0.44700  0.80690  Biso   1.000  H
  H374     1.0000 0.39390  0.52790  0.79960  Biso   1.000  H
  C424     1.0000 0.29200  0.88200  0.91500  Biso   1.000  C
  H375     1.0000 0.60220  0.16030  0.89400  Biso   1.000  H
  H376     1.0000 0.57630  0.10970  0.86310  Biso   1.000  H
  C425     1.0000 0.62480  0.97200  0.88030  Biso   1.000  C
  H377     1.0000 0.62290  0.99060  0.85500  Biso   1.000  H
  H378     1.0000 0.64270  0.02840  0.89120  Biso   1.000  H
  H379     1.0000 0.62840  0.79470  0.91230  Biso   1.000  H
  H380     1.0000 0.66010  0.80070  0.88350  Biso   1.000  H
  Zn16     1.0000 0.76983  0.41304  0.31312  Biso   1.000  Zn
  Zn17     1.0000 0.26594  0.03100  0.97630  Biso   1.000  Zn
  O136     1.0000 0.81100  0.38550  0.28430  Biso   1.000  O
  O137     1.0000 0.80560  0.56600  0.26330  Biso   1.000  O
  O138     1.0000 0.22260  0.35810  0.21890  Biso   1.000  O
  O139     1.0000 0.22100  0.53940  0.19950  Biso   1.000  O
  O140     1.0000 0.80360  0.23840  0.00880  Biso   1.000  O
  O141     1.0000 0.80660  0.43340  0.99250  Biso   1.000  O
  O142     1.0000 0.21740  0.07070  0.02630  Biso   1.000  O
  O143     1.0000 0.21820  0.09940  0.97050  Biso   1.000  O
  O144     1.0000 0.77970  0.52650  0.35370  Biso   1.000  O
  O145     1.0000 0.79950  0.71170  0.36210  Biso   1.000  O
  O146     1.0000 0.93167  0.65720  0.33890  Biso   1.000  O
  O147     1.0000 0.02750  0.67670  0.33470  Biso   1.000  O
  O148     1.0000 0.09530  0.55060  0.33070  Biso   1.000  O
  O149     1.0000 0.11390  0.30470  0.33910  Biso   1.000  O
  O150     1.0000 0.22130  0.15400  0.41270  Biso   1.000  O
  O151     1.0000 0.20250  0.96400  0.43220  Biso   1.000  O
  O152     1.0000 0.07450  0.94640  0.40560  Biso   1.000  O
  O153     1.0000 0.98030  0.93150  0.39560  Biso   1.000  O
  O154     1.0000 0.90750  0.02320  0.37740  Biso   1.000  O
  O155     1.0000 0.89370  0.28300  0.38540  Biso   1.000  O
  N21      1.0000 0.97792  0.62750  0.18743  Biso   1.000  N
  H381     1.0000 0.95530  0.64980  0.18580  Biso   1.000  H
  N22      1.0000 0.03706  0.61260  0.17740  Biso   1.000  N
  N23      1.0000 0.97560  0.09460  0.04520  Biso   1.000  N
  H382     1.0000 0.95300  0.09020  0.05190  Biso   1.000  H
  N24      1.0000 0.03360  0.05510  0.04280  Biso   1.000  N
  C426     1.0000 0.82190  0.47600  0.26850  Biso   1.000  C
  C427     1.0000 0.93490  0.46670  0.24120  Biso   1.000  C
  C428     1.0000 0.91420  0.56790  0.23090  Biso   1.000  C
  H383     1.0000 0.92520  0.63640  0.21920  Biso   1.000  H
  C429     1.0000 0.87760  0.56880  0.23750  Biso   1.000  C
  H384     1.0000 0.86340  0.63800  0.23040  Biso   1.000  H
  C430     1.0000 0.86160  0.46860  0.25450  Biso   1.000  C
  C431     1.0000 0.88230  0.36740  0.26480  Biso   1.000  C
  H385     1.0000 0.87140  0.29890  0.27640  Biso   1.000  H
  C432     1.0000 0.91900  0.36650  0.25820  Biso   1.000  C
  H386     1.0000 0.93310  0.29730  0.26530  Biso   1.000  H
  C433     1.0000 0.97530  0.47110  0.23680  Biso   1.000  C
  C434     1.0000 0.99230  0.54410  0.21140  Biso   1.000  C
  C435     1.0000 0.02890  0.53550  0.20550  Biso   1.000  C
  C436     1.0000 0.05170  0.46050  0.22620  Biso   1.000  C
  C437     1.0000 0.03480  0.39080  0.25120  Biso   1.000  C
  H387     1.0000 0.04870  0.33820  0.26590  Biso   1.000  H
  C438     1.0000 0.99660  0.39530  0.25570  Biso   1.000  C
  H388     1.0000 0.98590  0.34260  0.27280  Biso   1.000  H
  C439     1.0000 0.09140  0.45630  0.22150  Biso   1.000  C
  C440     1.0000 0.11060  0.56840  0.21580  Biso   1.000  C
  H389     1.0000 0.09840  0.64580  0.21420  Biso   1.000  H
  C441     1.0000 0.14800  0.56290  0.21250  Biso   1.000  C
  H390     1.0000 0.16100  0.63750  0.20830  Biso   1.000  H
  C442     1.0000 0.16610  0.45320  0.21520  Biso   1.000  C
  C443     1.0000 0.14840  0.34390  0.22000  Biso   1.000  C
  H391     1.0000 0.16120  0.26730  0.22010  Biso   1.000  H
  C444     1.0000 0.10990  0.34490  0.22510  Biso   1.000  C
  H392     1.0000 0.09750  0.27030  0.23070  Biso   1.000  H
  C445     1.0000 0.20900  0.44600  0.20660  Biso   1.000  C
  C446     1.0000 0.00440  0.66670  0.16760  Biso   1.000  C
  C447     1.0000 0.00270  0.75240  0.13810  Biso   1.000  C
  C448     1.0000 0.97580  0.83990  0.13660  Biso   1.000  C
  H393     1.0000 0.95830  0.84090  0.15460  Biso   1.000  H
  C449     1.0000 0.97340  0.92610  0.11010  Biso   1.000  C
  H394     1.0000 0.95390  0.98330  0.10940  Biso   1.000  H
  C450     1.0000 0.00000  0.92790  0.08440  Biso   1.000  C
  C451     1.0000 0.02670  0.83860  0.08540  Biso   1.000  C
  H395     1.0000 0.04450  0.83670  0.06760  Biso   1.000  H
  C452     1.0000 0.02770  0.75140  0.11230  Biso   1.000  C
  H396     1.0000 0.04620  0.69050  0.11270  Biso   1.000  H
  C453     1.0000 0.00300  0.02580  0.05720  Biso   1.000  C
  C454     1.0000 0.82200  0.33100  0.99770  Biso   1.000  C
  C455     1.0000 0.86030  0.32040  0.99510  Biso   1.000  C
  C456     1.0000 0.88290  0.41710  0.99540  Biso   1.000  C
  H397     1.0000 0.87320  0.49880  0.99430  Biso   1.000  H
  C457     1.0000 0.91890  0.40470  0.99720  Biso   1.000  C
  H398     1.0000 0.93380  0.47640  0.99840  Biso   1.000  H
  C458     1.0000 0.93410  0.28680  0.99720  Biso   1.000  C
  C459     1.0000 0.91090  0.18660  0.99600  Biso   1.000  C
  H399     1.0000 0.92040  0.10450  0.99600  Biso   1.000  H
  C460     1.0000 0.87520  0.20250  0.99490  Biso   1.000  C
  H400     1.0000 0.86000  0.13170  0.99390  Biso   1.000  H
  C461     1.0000 0.97390  0.26500  0.99900  Biso   1.000  C
  C462     1.0000 0.99790  0.33410  0.97830  Biso   1.000  C
  H401     1.0000 0.98890  0.39980  0.96410  Biso   1.000  H
  C463     1.0000 0.03390  0.30930  0.97810  Biso   1.000  C
  H402     1.0000 0.04880  0.35720  0.96300  Biso   1.000  H
  C464     1.0000 0.04980  0.21890  0.99840  Biso   1.000  C
  C465     1.0000 0.02650  0.15050  0.01970  Biso   1.000  C
  C466     1.0000 0.98980  0.17480  0.01990  Biso   1.000  C
  C467     1.0000 0.08970  0.19320  0.99870  Biso   1.000  C
  C468     1.0000 0.10880  0.20070  0.96730  Biso   1.000  C
  H403     1.0000 0.09740  0.22050  0.94580  Biso   1.000  H
  C469     1.0000 0.14720  0.17670  0.96940  Biso   1.000  C
  H404     1.0000 0.16150  0.18680  0.94890  Biso   1.000  H
  C470     1.0000 0.16350  0.13990  0.00000  Biso   1.000  C
  C471     1.0000 0.14270  0.12770  0.02920  Biso   1.000  C
  H405     1.0000 0.15340  0.09760  0.05020  Biso   1.000  H
  C472     1.0000 0.10660  0.15760  0.02930  Biso   1.000  C
  H406     1.0000 0.09340  0.15360  0.05060  Biso   1.000  H
  C473     1.0000 0.20070  0.10410  0.99940  Biso   1.000  C
  C474     1.0000 0.80490  0.60200  0.35860  Biso   1.000  C
  C475     1.0000 0.84220  0.55030  0.35820  Biso   1.000  C
  C476     1.0000 0.87060  0.62790  0.34950  Biso   1.000  C
  H407     1.0000 0.86660  0.71290  0.34370  Biso   1.000  H
  C477     1.0000 0.90490  0.57850  0.34950  Biso   1.000  C
  C478     1.0000 0.91010  0.45220  0.35650  Biso   1.000  C
  H408     1.0000 0.93360  0.41830  0.35610  Biso   1.000  H
  C479     1.0000 0.88140  0.37680  0.36380  Biso   1.000  C
  C480     1.0000 0.84700  0.42360  0.36510  Biso   1.000  C
  H409     1.0000 0.82720  0.37140  0.37060  Biso   1.000  H
  C481     1.0000 0.96750  0.61170  0.34100  Biso   1.000  C
  H410     1.0000 0.97320  0.59020  0.36560  Biso   1.000  H
  H411     1.0000 0.96980  0.53530  0.32660  Biso   1.000  H
  C482     1.0000 0.99260  0.70700  0.32830  Biso   1.000  C
  H412     1.0000 0.98700  0.78740  0.33980  Biso   1.000  H
  H413     1.0000 0.98920  0.71810  0.30270  Biso   1.000  H
  C483     1.0000 0.04990  0.67600  0.31030  Biso   1.000  C
  H414     1.0000 0.03960  0.61830  0.29260  Biso   1.000  H
  H415     1.0000 0.04840  0.75990  0.29980  Biso   1.000  H
  C484     1.0000 0.08470  0.65000  0.31040  Biso   1.000  C
  H416     1.0000 0.09230  0.63320  0.28600  Biso   1.000  H
  H417     1.0000 0.09780  0.72450  0.31850  Biso   1.000  H
  C485     1.0000 0.12220  0.50270  0.31840  Biso   1.000  C
  H418     1.0000 0.11630  0.47990  0.29390  Biso   1.000  H
  H419     1.0000 0.14060  0.56900  0.31710  Biso   1.000  H
  C486     1.0000 0.13770  0.40610  0.33220  Biso   1.000  C
  H420     1.0000 0.15690  0.37710  0.31630  Biso   1.000  H
  H421     1.0000 0.14920  0.43150  0.35450  Biso   1.000  H
  C487     1.0000 0.12610  0.20970  0.36080  Biso   1.000  C
  C488     1.0000 0.15560  0.18990  0.37660  Biso   1.000  C
  H422     1.0000 0.17440  0.24850  0.37300  Biso   1.000  H
  C489     1.0000 0.16290  0.09010  0.39870  Biso   1.000  C
  C490     1.0000 0.13450  0.00470  0.40890  Biso   1.000  C
  H423     1.0000 0.13850  0.93860  0.42510  Biso   1.000  H
  C491     1.0000 0.10230  0.02510  0.39420  Biso   1.000  C
  C492     1.0000 0.09670  0.12220  0.36990  Biso   1.000  C
  H424     1.0000 0.07380  0.13180  0.35930  Biso   1.000  H
  C493     1.0000 0.19840  0.06500  0.41590  Biso   1.000  C
  C494     1.0000 0.04040  0.97980  0.39320  Biso   1.000  C
  H425     1.0000 0.03550  0.06840  0.39850  Biso   1.000  H
  H426     1.0000 0.03920  0.96820  0.36750  Biso   1.000  H
  C495     1.0000 0.01340  0.89950  0.41060  Biso   1.000  C
  H427     1.0000 0.01320  0.91500  0.43620  Biso   1.000  H
  H428     1.0000 0.01890  0.81040  0.40650  Biso   1.000  H
  C496     1.0000 0.95110  0.87540  0.41220  Biso   1.000  C
  H429     1.0000 0.95550  0.78500  0.41520  Biso   1.000  H
  H430     1.0000 0.94720  0.91290  0.43560  Biso   1.000  H
  C497     1.0000 0.91760  0.89780  0.38830  Biso   1.000  C
  H431     1.0000 0.89660  0.86160  0.40050  Biso   1.000  H
  H432     1.0000 0.92120  0.84810  0.36670  Biso   1.000  H
  C498     1.0000 0.88550  0.08200  0.40170  Biso   1.000  C
  H433     1.0000 0.86870  0.01980  0.41160  Biso   1.000  H
  H434     1.0000 0.90050  0.11360  0.42120  Biso   1.000  H
  C499     1.0000 0.86550  0.18120  0.38790  Biso   1.000  C
  H435     1.0000 0.85560  0.16040  0.36460  Biso   1.000  H
  H436     1.0000 0.84580  0.20560  0.40380  Biso   1.000  H
  O156     1.0000 0.25700  0.85390  0.98750  Biso   1.000  O
  H437     1.0000 0.27740  0.81620  0.99040  Biso   1.000  H
  H438     1.0000 0.24540  0.81930  0.97030  Biso   1.000  H
  Zn18     1.0000 0.25250  0.18180  0.95710  Biso   1.000  Zn
  O157     1.0000 0.79810  0.48500  0.23870  Biso   1.000  O
  O158     1.0000 0.09970  0.59300  0.34200  Biso   1.000  O
  O159     1.0000 0.21800  0.22900  0.41500  Biso   1.000  O
  O160     1.0000 0.21860  0.01200  0.42400  Biso   1.000  O
  O161     1.0000 0.90910  0.02040  0.39740  Biso   1.000  O
  O162     1.0000 0.88790  0.24340  0.36340  Biso   1.000  O
  H439     1.0000 0.22730  0.33900  0.00380  Biso   1.000  H
  H440     1.0000 0.26300  0.37860  0.99710  Biso   1.000  H
  C500     1.0000 0.82120  0.44400  0.25760  Biso   1.000  C
  C501     1.0000 0.93510  0.47170  0.24170  Biso   1.000  C
  C502     1.0000 0.91160  0.50940  0.21540  Biso   1.000  C
  H441     1.0000 0.92080  0.54190  0.19400  Biso   1.000  H
  C503     1.0000 0.87480  0.49950  0.22030  Biso   1.000  C
  H442     1.0000 0.85880  0.52530  0.20230  Biso   1.000  H
  C504     1.0000 0.86140  0.45190  0.25150  Biso   1.000  C
  C505     1.0000 0.88480  0.41420  0.27780  Biso   1.000  C
  H443     1.0000 0.87560  0.38170  0.29920  Biso   1.000  H
  C506     1.0000 0.92160  0.42410  0.27290  Biso   1.000  C
  H444     1.0000 0.93760  0.39830  0.29090  Biso   1.000  H
  C507     1.0000 0.05490  0.74400  0.33000  Biso   1.000  C
  H445     1.0000 0.05580  0.76050  0.30410  Biso   1.000  H
  H446     1.0000 0.04990  0.82460  0.34110  Biso   1.000  H
  C508     1.0000 0.08790  0.71200  0.33900  Biso   1.000  C
  H447     1.0000 0.10410  0.75350  0.32190  Biso   1.000  H
  H448     1.0000 0.09230  0.75290  0.36180  Biso   1.000  H
  H449     1.0000 0.14110  0.55300  0.30690  Biso   1.000  H
  H450     1.0000 0.10610  0.47210  0.29960  Biso   1.000  H
  C509     1.0000 0.20800  0.11800  0.41500  Biso   1.000  C
  H451     1.0000 0.89780  0.83970  0.39400  Biso   1.000  H
  H452     1.0000 0.92370  0.89030  0.36310  Biso   1.000  H
  C510     1.0000 0.87520  0.02800  0.38030  Biso   1.000  C
  H453     1.0000 0.87710  0.00940  0.35500  Biso   1.000  H
  H454     1.0000 0.85730  0.97160  0.39120  Biso   1.000  H
  H455     1.0000 0.87160  0.20530  0.41230  Biso   1.000  H
  H456     1.0000 0.83990  0.19930  0.38350  Biso   1.000  H
  Zn19     1.0000 0.26983  0.08696  0.68688  Biso   1.000  Zn
  Zn20     1.0000 0.76594  0.46900  0.02370  Biso   1.000  Zn
  O163     1.0000 0.31100  0.11450  0.71570  Biso   1.000  O
  O164     1.0000 0.30560  0.93400  0.73670  Biso   1.000  O
  O165     1.0000 0.72260  0.14190  0.78110  Biso   1.000  O
  O166     1.0000 0.72100  0.96060  0.80050  Biso   1.000  O
  O167     1.0000 0.30360  0.26160  0.99120  Biso   1.000  O
  O168     1.0000 0.30660  0.06660  0.00750  Biso   1.000  O
  O169     1.0000 0.71740  0.42930  0.97370  Biso   1.000  O
  O170     1.0000 0.71820  0.40060  0.02950  Biso   1.000  O
  O171     1.0000 0.27970  0.97350  0.64630  Biso   1.000  O
  O172     1.0000 0.29950  0.78830  0.63790  Biso   1.000  O
  O173     1.0000 0.43167  0.84280  0.66110  Biso   1.000  O
  O174     1.0000 0.52750  0.82330  0.66530  Biso   1.000  O
  O175     1.0000 0.59530  0.94940  0.66930  Biso   1.000  O
  O176     1.0000 0.61390  0.19530  0.66090  Biso   1.000  O
  O177     1.0000 0.72130  0.34600  0.58730  Biso   1.000  O
  O178     1.0000 0.70250  0.53600  0.56780  Biso   1.000  O
  O179     1.0000 0.57450  0.55360  0.59440  Biso   1.000  O
  O180     1.0000 0.48030  0.56850  0.60440  Biso   1.000  O
  O181     1.0000 0.40750  0.47680  0.62260  Biso   1.000  O
  O182     1.0000 0.39370  0.21700  0.61460  Biso   1.000  O
  N25      1.0000 0.47792  0.87250  0.81257  Biso   1.000  N
  H457     1.0000 0.45530  0.85020  0.81420  Biso   1.000  H
  N26      1.0000 0.53706  0.88740  0.82260  Biso   1.000  N
  N27      1.0000 0.47560  0.40540  0.95480  Biso   1.000  N
  H458     1.0000 0.45300  0.40980  0.94810  Biso   1.000  H
  N28      1.0000 0.53360  0.44490  0.95720  Biso   1.000  N
  C511     1.0000 0.32190  0.02400  0.73150  Biso   1.000  C
  C512     1.0000 0.43490  0.03330  0.75880  Biso   1.000  C
  C513     1.0000 0.41420  0.93210  0.76910  Biso   1.000  C
  H459     1.0000 0.42520  0.86360  0.78080  Biso   1.000  H
  C514     1.0000 0.37760  0.93120  0.76250  Biso   1.000  C
  H460     1.0000 0.36340  0.86200  0.76960  Biso   1.000  H
  C515     1.0000 0.36160  0.03140  0.74550  Biso   1.000  C
  C516     1.0000 0.38230  0.13260  0.73520  Biso   1.000  C
  H461     1.0000 0.37140  0.20110  0.72360  Biso   1.000  H
  C517     1.0000 0.41900  0.13350  0.74180  Biso   1.000  C
  H462     1.0000 0.43310  0.20270  0.73470  Biso   1.000  H
  C518     1.0000 0.47530  0.02890  0.76320  Biso   1.000  C
  C519     1.0000 0.49230  0.95590  0.78860  Biso   1.000  C
  C520     1.0000 0.52890  0.96450  0.79450  Biso   1.000  C
  C521     1.0000 0.55170  0.03950  0.77380  Biso   1.000  C
  C522     1.0000 0.53480  0.10920  0.74880  Biso   1.000  C
  H463     1.0000 0.54870  0.16180  0.73410  Biso   1.000  H
  C523     1.0000 0.49660  0.10470  0.74430  Biso   1.000  C
  H464     1.0000 0.48590  0.15740  0.72720  Biso   1.000  H
  C524     1.0000 0.59140  0.04370  0.77850  Biso   1.000  C
  C525     1.0000 0.61060  0.93160  0.78420  Biso   1.000  C
  H465     1.0000 0.59840  0.85420  0.78580  Biso   1.000  H
  C526     1.0000 0.64800  0.93710  0.78750  Biso   1.000  C
  H466     1.0000 0.66100  0.86250  0.79170  Biso   1.000  H
  C527     1.0000 0.66610  0.04680  0.78480  Biso   1.000  C
  C528     1.0000 0.64840  0.15610  0.78000  Biso   1.000  C
  H467     1.0000 0.66120  0.23270  0.77990  Biso   1.000  H
  C529     1.0000 0.60990  0.15510  0.77490  Biso   1.000  C
  H468     1.0000 0.59750  0.22970  0.76930  Biso   1.000  H
  C530     1.0000 0.70900  0.05400  0.79340  Biso   1.000  C
  C531     1.0000 0.50440  0.83330  0.83240  Biso   1.000  C
  C532     1.0000 0.50270  0.74760  0.86190  Biso   1.000  C
  C533     1.0000 0.47580  0.66010  0.86340  Biso   1.000  C
  H469     1.0000 0.45830  0.65910  0.84540  Biso   1.000  H
  C534     1.0000 0.47340  0.57390  0.88990  Biso   1.000  C
  H470     1.0000 0.45390  0.51670  0.89060  Biso   1.000  H
  C535     1.0000 0.50000  0.57210  0.91560  Biso   1.000  C
  C536     1.0000 0.52670  0.66140  0.91460  Biso   1.000  C
  H471     1.0000 0.54450  0.66330  0.93240  Biso   1.000  H
  C537     1.0000 0.52770  0.74860  0.88770  Biso   1.000  C
  H472     1.0000 0.54620  0.80950  0.88730  Biso   1.000  H
  C538     1.0000 0.50300  0.47420  0.94280  Biso   1.000  C
  C539     1.0000 0.32200  0.16900  0.00230  Biso   1.000  C
  C540     1.0000 0.36030  0.17960  0.00490  Biso   1.000  C
  C541     1.0000 0.38290  0.08290  0.00460  Biso   1.000  C
  H473     1.0000 0.37320  0.00120  0.00570  Biso   1.000  H
  C542     1.0000 0.41890  0.09530  0.00280  Biso   1.000  C
  H474     1.0000 0.43380  0.02360  0.00160  Biso   1.000  H
  C543     1.0000 0.43410  0.21320  0.00280  Biso   1.000  C
  C544     1.0000 0.41090  0.31340  0.00400  Biso   1.000  C
  H475     1.0000 0.42040  0.39550  0.00400  Biso   1.000  H
  C545     1.0000 0.37520  0.29750  0.00510  Biso   1.000  C
  H476     1.0000 0.36000  0.36830  0.00610  Biso   1.000  H
  C546     1.0000 0.47390  0.23500  0.00100  Biso   1.000  C
  C547     1.0000 0.49790  0.16590  0.02170  Biso   1.000  C
  H477     1.0000 0.48890  0.10020  0.03590  Biso   1.000  H
  C548     1.0000 0.53390  0.19070  0.02190  Biso   1.000  C
  H478     1.0000 0.54880  0.14280  0.03700  Biso   1.000  H
  C549     1.0000 0.54980  0.28110  0.00160  Biso   1.000  C
  C550     1.0000 0.52650  0.34950  0.98030  Biso   1.000  C
  C551     1.0000 0.48980  0.32520  0.98010  Biso   1.000  C
  C552     1.0000 0.58970  0.30680  0.00130  Biso   1.000  C
  C553     1.0000 0.60880  0.29930  0.03270  Biso   1.000  C
  H479     1.0000 0.59740  0.27950  0.05420  Biso   1.000  H
  C554     1.0000 0.64720  0.32330  0.03060  Biso   1.000  C
  H480     1.0000 0.66150  0.31320  0.05110  Biso   1.000  H
  C555     1.0000 0.66350  0.36010  0.00000  Biso   1.000  C
  C556     1.0000 0.64270  0.37230  0.97080  Biso   1.000  C
  H481     1.0000 0.65340  0.40240  0.94980  Biso   1.000  H
  C557     1.0000 0.60660  0.34240  0.97070  Biso   1.000  C
  H482     1.0000 0.59340  0.34640  0.94940  Biso   1.000  H
  C558     1.0000 0.70070  0.39590  0.00060  Biso   1.000  C
  C559     1.0000 0.30490  0.89800  0.64140  Biso   1.000  C
  C560     1.0000 0.34220  0.94970  0.64180  Biso   1.000  C
  C561     1.0000 0.37060  0.87210  0.65050  Biso   1.000  C
  H483     1.0000 0.36660  0.78710  0.65630  Biso   1.000  H
  C562     1.0000 0.40490  0.92150  0.65050  Biso   1.000  C
  C563     1.0000 0.41010  0.04780  0.64350  Biso   1.000  C
  H484     1.0000 0.43360  0.08170  0.64390  Biso   1.000  H
  C564     1.0000 0.38140  0.12320  0.63620  Biso   1.000  C
  C565     1.0000 0.34700  0.07640  0.63490  Biso   1.000  C
  H485     1.0000 0.32720  0.12860  0.62940  Biso   1.000  H
  C566     1.0000 0.46750  0.88830  0.65900  Biso   1.000  C
  H486     1.0000 0.47320  0.90980  0.63440  Biso   1.000  H
  H487     1.0000 0.46980  0.96470  0.67340  Biso   1.000  H
  C567     1.0000 0.49260  0.79300  0.67170  Biso   1.000  C
  H488     1.0000 0.48700  0.71260  0.66020  Biso   1.000  H
  H489     1.0000 0.48920  0.78190  0.69730  Biso   1.000  H
  C568     1.0000 0.54990  0.82400  0.68970  Biso   1.000  C
  H490     1.0000 0.53960  0.88170  0.70740  Biso   1.000  H
  H491     1.0000 0.54840  0.74010  0.70020  Biso   1.000  H
  C569     1.0000 0.58470  0.85000  0.68960  Biso   1.000  C
  H492     1.0000 0.59230  0.86680  0.71400  Biso   1.000  H
  H493     1.0000 0.59780  0.77550  0.68150  Biso   1.000  H
  C570     1.0000 0.62220  0.99730  0.68160  Biso   1.000  C
  H494     1.0000 0.61630  0.02010  0.70610  Biso   1.000  H
  H495     1.0000 0.64060  0.93100  0.68290  Biso   1.000  H
  C571     1.0000 0.63770  0.09390  0.66780  Biso   1.000  C
  H496     1.0000 0.65690  0.12290  0.68370  Biso   1.000  H
  H497     1.0000 0.64920  0.06850  0.64550  Biso   1.000  H
  C572     1.0000 0.62610  0.29030  0.63920  Biso   1.000  C
  C573     1.0000 0.65560  0.31010  0.62340  Biso   1.000  C
  H498     1.0000 0.67440  0.25150  0.62700  Biso   1.000  H
  C574     1.0000 0.66290  0.40990  0.60130  Biso   1.000  C
  C575     1.0000 0.63450  0.49530  0.59110  Biso   1.000  C
  H499     1.0000 0.63850  0.56140  0.57490  Biso   1.000  H
  C576     1.0000 0.60230  0.47490  0.60580  Biso   1.000  C
  C577     1.0000 0.59670  0.37780  0.63010  Biso   1.000  C
  H500     1.0000 0.57380  0.36820  0.64070  Biso   1.000  H
  C578     1.0000 0.69840  0.43500  0.58410  Biso   1.000  C
  C579     1.0000 0.54040  0.52020  0.60680  Biso   1.000  C
  H501     1.0000 0.53550  0.43160  0.60150  Biso   1.000  H
  H502     1.0000 0.53920  0.53180  0.63250  Biso   1.000  H
  C580     1.0000 0.51340  0.60050  0.58940  Biso   1.000  C
  H503     1.0000 0.51320  0.58500  0.56380  Biso   1.000  H
  H504     1.0000 0.51890  0.68960  0.59350  Biso   1.000  H
  C581     1.0000 0.45110  0.62460  0.58780  Biso   1.000  C
  H505     1.0000 0.45550  0.71500  0.58480  Biso   1.000  H
  H506     1.0000 0.44720  0.58710  0.56440  Biso   1.000  H
  C582     1.0000 0.41760  0.60220  0.61170  Biso   1.000  C
  H507     1.0000 0.39660  0.63840  0.59950  Biso   1.000  H
  H508     1.0000 0.42120  0.65190  0.63330  Biso   1.000  H
  C583     1.0000 0.38550  0.41800  0.59830  Biso   1.000  C
  H509     1.0000 0.36870  0.48020  0.58840  Biso   1.000  H
  H510     1.0000 0.40050  0.38640  0.57880  Biso   1.000  H
  C584     1.0000 0.36550  0.31880  0.61210  Biso   1.000  C
  H511     1.0000 0.35560  0.33960  0.63540  Biso   1.000  H
  H512     1.0000 0.34580  0.29440  0.59620  Biso   1.000  H
  O183     1.0000 0.75700  0.64610  0.01250  Biso   1.000  O
  H513     1.0000 0.77740  0.68380  0.00960  Biso   1.000  H
  H514     1.0000 0.74540  0.68070  0.02970  Biso   1.000  H
  Zn21     1.0000 0.75250  0.31820  0.04290  Biso   1.000  Zn
  O184     1.0000 0.29810  0.01500  0.76130  Biso   1.000  O
  O185     1.0000 0.59970  0.90700  0.65800  Biso   1.000  O
  O186     1.0000 0.71800  0.27100  0.58500  Biso   1.000  O
  O187     1.0000 0.71860  0.48800  0.57600  Biso   1.000  O
  O188     1.0000 0.40910  0.47960  0.60260  Biso   1.000  O
  O189     1.0000 0.38790  0.25660  0.63660  Biso   1.000  O
  H515     1.0000 0.72730  0.16100  0.99620  Biso   1.000  H
  H516     1.0000 0.76300  0.12140  0.00290  Biso   1.000  H
  C585     1.0000 0.32120  0.05600  0.74240  Biso   1.000  C
  C586     1.0000 0.43510  0.02830  0.75830  Biso   1.000  C
  C587     1.0000 0.41160  0.99060  0.78460  Biso   1.000  C
  H517     1.0000 0.42080  0.95810  0.80600  Biso   1.000  H
  C588     1.0000 0.37480  0.00050  0.77970  Biso   1.000  C
  H518     1.0000 0.35880  0.97470  0.79770  Biso   1.000  H
  C589     1.0000 0.36140  0.04810  0.74850  Biso   1.000  C
  C590     1.0000 0.38480  0.08580  0.72220  Biso   1.000  C
  H519     1.0000 0.37560  0.11830  0.70080  Biso   1.000  H
  C591     1.0000 0.42160  0.07590  0.72710  Biso   1.000  C
  H520     1.0000 0.43760  0.10170  0.70910  Biso   1.000  H
  C592     1.0000 0.55490  0.75600  0.67000  Biso   1.000  C
  H521     1.0000 0.55580  0.73950  0.69590  Biso   1.000  H
  H522     1.0000 0.54990  0.67540  0.65890  Biso   1.000  H
  C593     1.0000 0.58790  0.78800  0.66100  Biso   1.000  C
  H523     1.0000 0.60410  0.74650  0.67810  Biso   1.000  H
  H524     1.0000 0.59230  0.74710  0.63820  Biso   1.000  H
  H525     1.0000 0.64110  0.94700  0.69310  Biso   1.000  H
  H526     1.0000 0.60610  0.02790  0.70040  Biso   1.000  H
  C594     1.0000 0.70800  0.38200  0.58500  Biso   1.000  C
  H527     1.0000 0.39780  0.66030  0.60600  Biso   1.000  H
  H528     1.0000 0.42370  0.60970  0.63690  Biso   1.000  H
  C595     1.0000 0.37520  0.47200  0.61970  Biso   1.000  C
  H529     1.0000 0.37710  0.49060  0.64500  Biso   1.000  H
  H530     1.0000 0.35730  0.52840  0.60880  Biso   1.000  H
  H531     1.0000 0.37160  0.29470  0.58770  Biso   1.000  H
  H532     1.0000 0.33990  0.30070  0.61650  Biso   1.000  H
  Zn22     1.0000 0.23017  0.91304  0.18688  Biso   1.000  Zn
  Zn23     1.0000 0.73406  0.53100  0.52370  Biso   1.000  Zn
  O190     1.0000 0.18900  0.88550  0.21570  Biso   1.000  O
  O191     1.0000 0.19440  0.06600  0.23670  Biso   1.000  O
  O192     1.0000 0.77740  0.85810  0.28110  Biso   1.000  O
  O193     1.0000 0.77900  0.03940  0.30050  Biso   1.000  O
  O194     1.0000 0.19640  0.73840  0.49120  Biso   1.000  O
  O195     1.0000 0.19340  0.93340  0.50750  Biso   1.000  O
  O196     1.0000 0.78260  0.57070  0.47370  Biso   1.000  O
  O197     1.0000 0.78180  0.59940  0.52950  Biso   1.000  O
  O198     1.0000 0.22030  0.02650  0.14630  Biso   1.000  O
  O199     1.0000 0.20050  0.21170  0.13790  Biso   1.000  O
  O200     1.0000 0.06833  0.15720  0.16110  Biso   1.000  O
  O201     1.0000 0.97250  0.17670  0.16530  Biso   1.000  O
  O202     1.0000 0.90470  0.05060  0.16930  Biso   1.000  O
  O203     1.0000 0.88610  0.80470  0.16090  Biso   1.000  O
  O204     1.0000 0.77870  0.65400  0.08730  Biso   1.000  O
  O205     1.0000 0.79750  0.46400  0.06780  Biso   1.000  O
  O206     1.0000 0.92550  0.44640  0.09440  Biso   1.000  O
  O207     1.0000 0.01970  0.43150  0.10440  Biso   1.000  O
  O208     1.0000 0.09250  0.52320  0.12260  Biso   1.000  O
  O209     1.0000 0.10630  0.78300  0.11460  Biso   1.000  O
  N29      1.0000 0.02208  0.12750  0.31257  Biso   1.000  N
  H533     1.0000 0.04470  0.14980  0.31420  Biso   1.000  H
  N30      1.0000 0.96294  0.11260  0.32260  Biso   1.000  N
  N31      1.0000 0.02440  0.59460  0.45480  Biso   1.000  N
  H534     1.0000 0.04700  0.59020  0.44810  Biso   1.000  H
  N32      1.0000 0.96640  0.55510  0.45720  Biso   1.000  N
  C596     1.0000 0.17810  0.97600  0.23150  Biso   1.000  C
  C597     1.0000 0.06510  0.96670  0.25880  Biso   1.000  C
  C598     1.0000 0.08580  0.06790  0.26910  Biso   1.000  C
  H535     1.0000 0.07480  0.13640  0.28080  Biso   1.000  H
  C599     1.0000 0.12240  0.06880  0.26250  Biso   1.000  C
  H536     1.0000 0.13660  0.13800  0.26960  Biso   1.000  H
  C600     1.0000 0.13840  0.96860  0.24550  Biso   1.000  C
  C601     1.0000 0.11770  0.86740  0.23520  Biso   1.000  C
  H537     1.0000 0.12860  0.79890  0.22360  Biso   1.000  H
  C602     1.0000 0.08100  0.86650  0.24180  Biso   1.000  C
  H538     1.0000 0.06690  0.79730  0.23470  Biso   1.000  H
  C603     1.0000 0.02470  0.97110  0.26320  Biso   1.000  C
  C604     1.0000 0.00770  0.04410  0.28860  Biso   1.000  C
  C605     1.0000 0.97110  0.03550  0.29450  Biso   1.000  C
  C606     1.0000 0.94830  0.96050  0.27380  Biso   1.000  C
  C607     1.0000 0.96520  0.89080  0.24880  Biso   1.000  C
  H539     1.0000 0.95130  0.83820  0.23410  Biso   1.000  H
  C608     1.0000 0.00340  0.89530  0.24430  Biso   1.000  C
  H540     1.0000 0.01410  0.84260  0.22720  Biso   1.000  H
  C609     1.0000 0.90860  0.95630  0.27850  Biso   1.000  C
  C610     1.0000 0.88940  0.06840  0.28420  Biso   1.000  C
  H541     1.0000 0.90160  0.14580  0.28580  Biso   1.000  H
  C611     1.0000 0.85200  0.06290  0.28750  Biso   1.000  C
  H542     1.0000 0.83900  0.13750  0.29170  Biso   1.000  H
  C612     1.0000 0.83390  0.95320  0.28480  Biso   1.000  C
  C613     1.0000 0.85160  0.84390  0.28000  Biso   1.000  C
  H543     1.0000 0.83880  0.76730  0.27990  Biso   1.000  H
  C614     1.0000 0.89010  0.84490  0.27490  Biso   1.000  C
  H544     1.0000 0.90250  0.77030  0.26930  Biso   1.000  H
  C615     1.0000 0.79100  0.94600  0.29340  Biso   1.000  C
  C616     1.0000 0.99560  0.16670  0.33240  Biso   1.000  C
  C617     1.0000 0.99730  0.25240  0.36190  Biso   1.000  C
  C618     1.0000 0.02420  0.33990  0.36340  Biso   1.000  C
  H545     1.0000 0.04170  0.34090  0.34540  Biso   1.000  H
  C619     1.0000 0.02660  0.42610  0.38990  Biso   1.000  C
  H546     1.0000 0.04610  0.48330  0.39060  Biso   1.000  H
  C620     1.0000 0.00000  0.42790  0.41560  Biso   1.000  C
  C621     1.0000 0.97330  0.33860  0.41460  Biso   1.000  C
  H547     1.0000 0.95550  0.33670  0.43240  Biso   1.000  H
  C622     1.0000 0.97230  0.25140  0.38770  Biso   1.000  C
  H548     1.0000 0.95380  0.19050  0.38730  Biso   1.000  H
  C623     1.0000 0.99700  0.52580  0.44280  Biso   1.000  C
  C624     1.0000 0.17800  0.83100  0.50230  Biso   1.000  C
  C625     1.0000 0.13970  0.82040  0.50490  Biso   1.000  C
  C626     1.0000 0.11710  0.91710  0.50460  Biso   1.000  C
  H549     1.0000 0.12680  0.99880  0.50570  Biso   1.000  H
  C627     1.0000 0.08110  0.90470  0.50280  Biso   1.000  C
  H550     1.0000 0.06620  0.97640  0.50160  Biso   1.000  H
  C628     1.0000 0.06590  0.78680  0.50280  Biso   1.000  C
  C629     1.0000 0.08910  0.68660  0.50400  Biso   1.000  C
  H551     1.0000 0.07960  0.60450  0.50400  Biso   1.000  H
  C630     1.0000 0.12480  0.70250  0.50510  Biso   1.000  C
  H552     1.0000 0.14000  0.63170  0.50610  Biso   1.000  H
  C631     1.0000 0.02610  0.76500  0.50100  Biso   1.000  C
  C632     1.0000 0.00210  0.83410  0.52170  Biso   1.000  C
  H553     1.0000 0.01110  0.89980  0.53590  Biso   1.000  H
  C633     1.0000 0.96610  0.80930  0.52190  Biso   1.000  C
  H554     1.0000 0.95120  0.85720  0.53700  Biso   1.000  H
  C634     1.0000 0.95020  0.71890  0.50160  Biso   1.000  C
  C635     1.0000 0.97350  0.65050  0.48030  Biso   1.000  C
  C636     1.0000 0.01020  0.67480  0.48010  Biso   1.000  C
  C637     1.0000 0.91030  0.69320  0.50130  Biso   1.000  C
  C638     1.0000 0.89120  0.70070  0.53270  Biso   1.000  C
  H555     1.0000 0.90260  0.72050  0.55420  Biso   1.000  H
  C639     1.0000 0.85280  0.67670  0.53060  Biso   1.000  C
  H556     1.0000 0.83850  0.68680  0.55110  Biso   1.000  H
  C640     1.0000 0.83650  0.63990  0.50000  Biso   1.000  C
  C641     1.0000 0.85730  0.62770  0.47080  Biso   1.000  C
  H557     1.0000 0.84660  0.59760  0.44980  Biso   1.000  H
  C642     1.0000 0.89340  0.65760  0.47070  Biso   1.000  C
  H558     1.0000 0.90660  0.65360  0.44940  Biso   1.000  H
  C643     1.0000 0.79930  0.60410  0.50060  Biso   1.000  C
  C644     1.0000 0.19510  0.10200  0.14140  Biso   1.000  C
  C645     1.0000 0.15780  0.05030  0.14180  Biso   1.000  C
  C646     1.0000 0.12940  0.12790  0.15050  Biso   1.000  C
  H559     1.0000 0.13340  0.21290  0.15630  Biso   1.000  H
  C647     1.0000 0.09510  0.07850  0.15050  Biso   1.000  C
  C648     1.0000 0.08990  0.95220  0.14350  Biso   1.000  C
  H560     1.0000 0.06640  0.91830  0.14390  Biso   1.000  H
  C649     1.0000 0.11860  0.87680  0.13620  Biso   1.000  C
  C650     1.0000 0.15300  0.92360  0.13490  Biso   1.000  C
  H561     1.0000 0.17280  0.87140  0.12940  Biso   1.000  H
  C651     1.0000 0.03250  0.11170  0.15900  Biso   1.000  C
  H562     1.0000 0.02680  0.09020  0.13440  Biso   1.000  H
  H563     1.0000 0.03020  0.03530  0.17340  Biso   1.000  H
  C652     1.0000 0.00740  0.20700  0.17170  Biso   1.000  C
  H564     1.0000 0.01300  0.28740  0.16020  Biso   1.000  H
  H565     1.0000 0.01080  0.21810  0.19730  Biso   1.000  H
  C653     1.0000 0.95010  0.17600  0.18970  Biso   1.000  C
  H566     1.0000 0.96040  0.11830  0.20740  Biso   1.000  H
  H567     1.0000 0.95160  0.25990  0.20020  Biso   1.000  H
  C654     1.0000 0.91530  0.15000  0.18960  Biso   1.000  C
  H568     1.0000 0.90770  0.13320  0.21400  Biso   1.000  H
  H569     1.0000 0.90220  0.22450  0.18150  Biso   1.000  H
  C655     1.0000 0.87780  0.00270  0.18160  Biso   1.000  C
  H570     1.0000 0.88370  0.97990  0.20610  Biso   1.000  H
  H571     1.0000 0.85940  0.06900  0.18290  Biso   1.000  H
  C656     1.0000 0.86230  0.90610  0.16780  Biso   1.000  C
  H572     1.0000 0.84310  0.87710  0.18370  Biso   1.000  H
  H573     1.0000 0.85080  0.93150  0.14550  Biso   1.000  H
  C657     1.0000 0.87390  0.70970  0.13920  Biso   1.000  C
  C658     1.0000 0.84440  0.68990  0.12340  Biso   1.000  C
  H574     1.0000 0.82560  0.74850  0.12700  Biso   1.000  H
  C659     1.0000 0.83710  0.59010  0.10130  Biso   1.000  C
  C660     1.0000 0.86550  0.50470  0.09110  Biso   1.000  C
  H575     1.0000 0.86150  0.43860  0.07490  Biso   1.000  H
  C661     1.0000 0.89770  0.52510  0.10580  Biso   1.000  C
  C662     1.0000 0.90330  0.62220  0.13010  Biso   1.000  C
  H576     1.0000 0.92620  0.63180  0.14070  Biso   1.000  H
  C663     1.0000 0.80160  0.56500  0.08410  Biso   1.000  C
  C664     1.0000 0.95960  0.47980  0.10680  Biso   1.000  C
  H577     1.0000 0.96450  0.56840  0.10150  Biso   1.000  H
  H578     1.0000 0.96080  0.46820  0.13250  Biso   1.000  H
  C665     1.0000 0.98660  0.39950  0.08940  Biso   1.000  C
  H579     1.0000 0.98680  0.41500  0.06380  Biso   1.000  H
  H580     1.0000 0.98110  0.31040  0.09350  Biso   1.000  H
  C666     1.0000 0.04890  0.37540  0.08780  Biso   1.000  C
  H581     1.0000 0.04450  0.28500  0.08480  Biso   1.000  H
  H582     1.0000 0.05280  0.41290  0.06440  Biso   1.000  H
  C667     1.0000 0.08240  0.39780  0.11170  Biso   1.000  C
  H583     1.0000 0.10340  0.36160  0.09950  Biso   1.000  H
  H584     1.0000 0.07880  0.34810  0.13330  Biso   1.000  H
  C668     1.0000 0.11450  0.58200  0.09830  Biso   1.000  C
  H585     1.0000 0.13130  0.51980  0.08840  Biso   1.000  H
  H586     1.0000 0.09950  0.61360  0.07880  Biso   1.000  H
  C669     1.0000 0.13450  0.68120  0.11210  Biso   1.000  C
  H587     1.0000 0.14440  0.66040  0.13540  Biso   1.000  H
  H588     1.0000 0.15420  0.70560  0.09620  Biso   1.000  H
  O210     1.0000 0.74300  0.35390  0.51250  Biso   1.000  O
  H589     1.0000 0.72260  0.31620  0.50960  Biso   1.000  H
  H590     1.0000 0.75460  0.31930  0.52970  Biso   1.000  H
  Zn24     1.0000 0.74750  0.68180  0.54290  Biso   1.000  Zn
  O211     1.0000 0.20190  0.98500  0.26130  Biso   1.000  O
  O212     1.0000 0.90030  0.09300  0.15800  Biso   1.000  O
  O213     1.0000 0.78200  0.72900  0.08500  Biso   1.000  O
  O214     1.0000 0.78140  0.51200  0.07600  Biso   1.000  O
  O215     1.0000 0.09090  0.52040  0.10260  Biso   1.000  O
  O216     1.0000 0.11210  0.74340  0.13660  Biso   1.000  O
  H591     1.0000 0.77270  0.83900  0.49620  Biso   1.000  H
  H592     1.0000 0.73700  0.87860  0.50290  Biso   1.000  H
  C670     1.0000 0.17880  0.94400  0.24240  Biso   1.000  C
  C671     1.0000 0.06490  0.97170  0.25830  Biso   1.000  C
  C672     1.0000 0.08840  0.00940  0.28460  Biso   1.000  C
  H593     1.0000 0.07920  0.04190  0.30600  Biso   1.000  H
  C673     1.0000 0.12520  0.99950  0.27970  Biso   1.000  C
  H594     1.0000 0.14120  0.02530  0.29770  Biso   1.000  H
  C674     1.0000 0.13860  0.95190  0.24850  Biso   1.000  C
  C675     1.0000 0.11520  0.91420  0.22220  Biso   1.000  C
  H595     1.0000 0.12440  0.88170  0.20080  Biso   1.000  H
  C676     1.0000 0.07840  0.92410  0.22710  Biso   1.000  C
  H596     1.0000 0.06240  0.89830  0.20910  Biso   1.000  H
  C677     1.0000 0.94510  0.24400  0.17000  Biso   1.000  C
  H597     1.0000 0.94420  0.26050  0.19590  Biso   1.000  H
  H598     1.0000 0.95010  0.32460  0.15890  Biso   1.000  H
  C678     1.0000 0.91210  0.21200  0.16100  Biso   1.000  C
  H599     1.0000 0.89590  0.25350  0.17810  Biso   1.000  H
  H600     1.0000 0.90770  0.25290  0.13820  Biso   1.000  H
  H601     1.0000 0.85890  0.05300  0.19310  Biso   1.000  H
  H602     1.0000 0.89390  0.97210  0.20040  Biso   1.000  H
  C679     1.0000 0.79200  0.61800  0.08500  Biso   1.000  C
  H603     1.0000 0.10220  0.33970  0.10600  Biso   1.000  H
  H604     1.0000 0.07630  0.39030  0.13690  Biso   1.000  H
  C680     1.0000 0.12480  0.52800  0.11970  Biso   1.000  C
  H605     1.0000 0.12290  0.50940  0.14500  Biso   1.000  H
  H606     1.0000 0.14270  0.47160  0.10880  Biso   1.000  H
  H607     1.0000 0.12840  0.70530  0.08770  Biso   1.000  H
  H608     1.0000 0.16010  0.69930  0.11650  Biso   1.000  H
