data_image0
_cell_length_a       26.7863
_cell_length_b       26.7863
_cell_length_c       26.7863
_cell_angle_alpha    90
_cell_angle_beta     90
_cell_angle_gamma    90

_symmetry_space_group_name_H-M    "P 1"
_symmetry_int_tables_number       1

loop_
  _symmetry_equiv_pos_as_xyz
  'x, y, z'

loop_
  _atom_site_label
  _atom_site_occupancy
  _atom_site_fract_x
  _atom_site_fract_y
  _atom_site_fract_z
  _atom_site_thermal_displace_type
  _atom_site_B_iso_or_equiv
  _atom_site_type_symbol
  C1       1.0000 0.29400  0.35540  0.49220  Biso   1.000  C
  C2       1.0000 0.25580  0.32040  0.49190  Biso   1.000  C
  H1       1.0000 0.22200  0.32970  0.48650  Biso   1.000  H
  Cl1      1.0000 0.27610  0.41800  0.48190  Biso   1.000  Cl
  H2       1.0000 0.28520  0.38970  0.48660  Biso   1.000  H
  Cl2      1.0000 0.27830  0.40550  0.55990  Biso   1.000  Cl
  H3       1.0000 0.29590  0.38050  0.54660  Biso   1.000  H
  C3       1.0000 0.29930  0.35220  0.52490  Biso   1.000  C
  C4       1.0000 0.26300  0.31450  0.52420  Biso   1.000  C
  H4       1.0000 0.23240  0.32010  0.54120  Biso   1.000  H
  C5       1.0000 0.29400  0.85540  0.99220  Biso   1.000  C
  C6       1.0000 0.25580  0.82040  0.99190  Biso   1.000  C
  H5       1.0000 0.22200  0.82970  0.98650  Biso   1.000  H
  Cl3      1.0000 0.27610  0.91800  0.98190  Biso   1.000  Cl
  H6       1.0000 0.28520  0.88970  0.98660  Biso   1.000  H
  Cl4      1.0000 0.27830  0.90550  0.05990  Biso   1.000  Cl
  H7       1.0000 0.29590  0.88050  0.04660  Biso   1.000  H
  C7       1.0000 0.29930  0.85220  0.02490  Biso   1.000  C
  C8       1.0000 0.26300  0.81450  0.02420  Biso   1.000  C
  H8       1.0000 0.23240  0.82010  0.04120  Biso   1.000  H
  C9       1.0000 0.79400  0.35540  0.99220  Biso   1.000  C
  C10      1.0000 0.75580  0.32040  0.99190  Biso   1.000  C
  H9       1.0000 0.72200  0.32970  0.98650  Biso   1.000  H
  Cl5      1.0000 0.77610  0.41800  0.98190  Biso   1.000  Cl
  H10      1.0000 0.78520  0.38970  0.98660  Biso   1.000  H
  Cl6      1.0000 0.77830  0.40550  0.05990  Biso   1.000  Cl
  H11      1.0000 0.79590  0.38050  0.04660  Biso   1.000  H
  C11      1.0000 0.79930  0.35220  0.02490  Biso   1.000  C
  C12      1.0000 0.76300  0.31450  0.02420  Biso   1.000  C
  H12      1.0000 0.73240  0.32010  0.04120  Biso   1.000  H
  C13      1.0000 0.79400  0.85540  0.49220  Biso   1.000  C
  C14      1.0000 0.75580  0.82040  0.49190  Biso   1.000  C
  H13      1.0000 0.72200  0.82970  0.48650  Biso   1.000  H
  Cl7      1.0000 0.77610  0.91800  0.48190  Biso   1.000  Cl
  H14      1.0000 0.78520  0.88970  0.48660  Biso   1.000  H
  Cl8      1.0000 0.77830  0.90550  0.55990  Biso   1.000  Cl
  H15      1.0000 0.79590  0.88050  0.54660  Biso   1.000  H
  C15      1.0000 0.79930  0.85220  0.52490  Biso   1.000  C
  C16      1.0000 0.76300  0.81450  0.52420  Biso   1.000  C
  H16      1.0000 0.73240  0.82010  0.54120  Biso   1.000  H
  C17      1.0000 0.70600  0.64460  0.49220  Biso   1.000  C
  C18      1.0000 0.74420  0.67960  0.49190  Biso   1.000  C
  H17      1.0000 0.77800  0.67030  0.48650  Biso   1.000  H
  Cl9      1.0000 0.72390  0.58200  0.48190  Biso   1.000  Cl
  H18      1.0000 0.71480  0.61030  0.48660  Biso   1.000  H
  Cl10     1.0000 0.72170  0.59450  0.55990  Biso   1.000  Cl
  H19      1.0000 0.70410  0.61950  0.54660  Biso   1.000  H
  C19      1.0000 0.70070  0.64780  0.52490  Biso   1.000  C
  C20      1.0000 0.73700  0.68550  0.52420  Biso   1.000  C
  H20      1.0000 0.76760  0.67990  0.54120  Biso   1.000  H
  C21      1.0000 0.70600  0.14460  0.99220  Biso   1.000  C
  C22      1.0000 0.74420  0.17960  0.99190  Biso   1.000  C
  H21      1.0000 0.77800  0.17030  0.98650  Biso   1.000  H
  Cl11     1.0000 0.72390  0.08200  0.98190  Biso   1.000  Cl
  H22      1.0000 0.71480  0.11030  0.98660  Biso   1.000  H
  Cl12     1.0000 0.72170  0.09450  0.05990  Biso   1.000  Cl
  H23      1.0000 0.70410  0.11950  0.04660  Biso   1.000  H
  C23      1.0000 0.70070  0.14780  0.02490  Biso   1.000  C
  C24      1.0000 0.73700  0.18550  0.02420  Biso   1.000  C
  H24      1.0000 0.76760  0.17990  0.04120  Biso   1.000  H
  C25      1.0000 0.20600  0.64460  0.99220  Biso   1.000  C
  C26      1.0000 0.24420  0.67960  0.99190  Biso   1.000  C
  H25      1.0000 0.27800  0.67030  0.98650  Biso   1.000  H
  Cl13     1.0000 0.22390  0.58200  0.98190  Biso   1.000  Cl
  H26      1.0000 0.21480  0.61030  0.98660  Biso   1.000  H
  Cl14     1.0000 0.22170  0.59450  0.05990  Biso   1.000  Cl
  H27      1.0000 0.20410  0.61950  0.04660  Biso   1.000  H
  C27      1.0000 0.20070  0.64780  0.02490  Biso   1.000  C
  C28      1.0000 0.23700  0.68550  0.02420  Biso   1.000  C
  H28      1.0000 0.26760  0.67990  0.04120  Biso   1.000  H
  C29      1.0000 0.20600  0.14460  0.49220  Biso   1.000  C
  C30      1.0000 0.24420  0.17960  0.49190  Biso   1.000  C
  H29      1.0000 0.27800  0.17030  0.48650  Biso   1.000  H
  Cl15     1.0000 0.22390  0.08200  0.48190  Biso   1.000  Cl
  H30      1.0000 0.21480  0.11030  0.48660  Biso   1.000  H
  Cl16     1.0000 0.22170  0.09450  0.55990  Biso   1.000  Cl
  H31      1.0000 0.20410  0.11950  0.54660  Biso   1.000  H
  C31      1.0000 0.20070  0.14780  0.52490  Biso   1.000  C
  C32      1.0000 0.23700  0.18550  0.52420  Biso   1.000  C
  H32      1.0000 0.26760  0.17990  0.54120  Biso   1.000  H
  C33      1.0000 0.70600  0.35540  0.50780  Biso   1.000  C
  C34      1.0000 0.74420  0.32040  0.50810  Biso   1.000  C
  H33      1.0000 0.77800  0.32970  0.51350  Biso   1.000  H
  Cl17     1.0000 0.72390  0.41800  0.51810  Biso   1.000  Cl
  H34      1.0000 0.71480  0.38970  0.51340  Biso   1.000  H
  Cl18     1.0000 0.72170  0.40550  0.44010  Biso   1.000  Cl
  H35      1.0000 0.70410  0.38050  0.45340  Biso   1.000  H
  C35      1.0000 0.70070  0.35220  0.47510  Biso   1.000  C
  C36      1.0000 0.73700  0.31450  0.47580  Biso   1.000  C
  H36      1.0000 0.76760  0.32010  0.45880  Biso   1.000  H
  C37      1.0000 0.70600  0.85540  0.00780  Biso   1.000  C
  C38      1.0000 0.74420  0.82040  0.00810  Biso   1.000  C
  H37      1.0000 0.77800  0.82970  0.01350  Biso   1.000  H
  Cl19     1.0000 0.72390  0.91800  0.01810  Biso   1.000  Cl
  H38      1.0000 0.71480  0.88970  0.01340  Biso   1.000  H
  Cl20     1.0000 0.72170  0.90550  0.94010  Biso   1.000  Cl
  H39      1.0000 0.70410  0.88050  0.95340  Biso   1.000  H
  C39      1.0000 0.70070  0.85220  0.97510  Biso   1.000  C
  C40      1.0000 0.73700  0.81450  0.97580  Biso   1.000  C
  H40      1.0000 0.76760  0.82010  0.95880  Biso   1.000  H
  C41      1.0000 0.20600  0.35540  0.00780  Biso   1.000  C
  C42      1.0000 0.24420  0.32040  0.00810  Biso   1.000  C
  H41      1.0000 0.27800  0.32970  0.01350  Biso   1.000  H
  Cl21     1.0000 0.22390  0.41800  0.01810  Biso   1.000  Cl
  H42      1.0000 0.21480  0.38970  0.01340  Biso   1.000  H
  Cl22     1.0000 0.22170  0.40550  0.94010  Biso   1.000  Cl
  H43      1.0000 0.20410  0.38050  0.95340  Biso   1.000  H
  C43      1.0000 0.20070  0.35220  0.97510  Biso   1.000  C
  C44      1.0000 0.23700  0.31450  0.97580  Biso   1.000  C
  H44      1.0000 0.26760  0.32010  0.95880  Biso   1.000  H
  C45      1.0000 0.20600  0.85540  0.50780  Biso   1.000  C
  C46      1.0000 0.24420  0.82040  0.50810  Biso   1.000  C
  H45      1.0000 0.27800  0.82970  0.51350  Biso   1.000  H
  Cl23     1.0000 0.22390  0.91800  0.51810  Biso   1.000  Cl
  H46      1.0000 0.21480  0.88970  0.51340  Biso   1.000  H
  Cl24     1.0000 0.22170  0.90550  0.44010  Biso   1.000  Cl
  H47      1.0000 0.20410  0.88050  0.45340  Biso   1.000  H
  C47      1.0000 0.20070  0.85220  0.47510  Biso   1.000  C
  C48      1.0000 0.23700  0.81450  0.47580  Biso   1.000  C
  H48      1.0000 0.26760  0.82010  0.45880  Biso   1.000  H
  C49      1.0000 0.29400  0.64460  0.50780  Biso   1.000  C
  C50      1.0000 0.25580  0.67960  0.50810  Biso   1.000  C
  H49      1.0000 0.22200  0.67030  0.51350  Biso   1.000  H
  Cl25     1.0000 0.27610  0.58200  0.51810  Biso   1.000  Cl
  H50      1.0000 0.28520  0.61030  0.51340  Biso   1.000  H
  Cl26     1.0000 0.27830  0.59450  0.44010  Biso   1.000  Cl
  H51      1.0000 0.29590  0.61950  0.45340  Biso   1.000  H
  C51      1.0000 0.29930  0.64780  0.47510  Biso   1.000  C
  C52      1.0000 0.26300  0.68550  0.47580  Biso   1.000  C
  H52      1.0000 0.23240  0.67990  0.45880  Biso   1.000  H
  C53      1.0000 0.29400  0.14460  0.00780  Biso   1.000  C
  C54      1.0000 0.25580  0.17960  0.00810  Biso   1.000  C
  H53      1.0000 0.22200  0.17030  0.01350  Biso   1.000  H
  Cl27     1.0000 0.27610  0.08200  0.01810  Biso   1.000  Cl
  H54      1.0000 0.28520  0.11030  0.01340  Biso   1.000  H
  Cl28     1.0000 0.27830  0.09450  0.94010  Biso   1.000  Cl
  H55      1.0000 0.29590  0.11950  0.95340  Biso   1.000  H
  C55      1.0000 0.29930  0.14780  0.97510  Biso   1.000  C
  C56      1.0000 0.26300  0.18550  0.97580  Biso   1.000  C
  H56      1.0000 0.23240  0.17990  0.95880  Biso   1.000  H
  C57      1.0000 0.79400  0.64460  0.00780  Biso   1.000  C
  C58      1.0000 0.75580  0.67960  0.00810  Biso   1.000  C
  H57      1.0000 0.72200  0.67030  0.01350  Biso   1.000  H
  Cl29     1.0000 0.77610  0.58200  0.01810  Biso   1.000  Cl
  H58      1.0000 0.78520  0.61030  0.01340  Biso   1.000  H
  Cl30     1.0000 0.77830  0.59450  0.94010  Biso   1.000  Cl
  H59      1.0000 0.79590  0.61950  0.95340  Biso   1.000  H
  C59      1.0000 0.79930  0.64780  0.97510  Biso   1.000  C
  C60      1.0000 0.76300  0.68550  0.97580  Biso   1.000  C
  H60      1.0000 0.73240  0.67990  0.95880  Biso   1.000  H
  C61      1.0000 0.79400  0.14460  0.50780  Biso   1.000  C
  C62      1.0000 0.75580  0.17960  0.50810  Biso   1.000  C
  H61      1.0000 0.72200  0.17030  0.51350  Biso   1.000  H
  Cl31     1.0000 0.77610  0.08200  0.51810  Biso   1.000  Cl
  H62      1.0000 0.78520  0.11030  0.51340  Biso   1.000  H
  Cl32     1.0000 0.77830  0.09450  0.44010  Biso   1.000  Cl
  H63      1.0000 0.79590  0.11950  0.45340  Biso   1.000  H
  C63      1.0000 0.79930  0.14780  0.47510  Biso   1.000  C
  C64      1.0000 0.76300  0.18550  0.47580  Biso   1.000  C
  H64      1.0000 0.73240  0.17990  0.45880  Biso   1.000  H
  C65      1.0000 0.49220  0.29400  0.35540  Biso   1.000  C
  C66      1.0000 0.49190  0.25580  0.32040  Biso   1.000  C
  H65      1.0000 0.48650  0.22200  0.32970  Biso   1.000  H
  Cl33     1.0000 0.48190  0.27610  0.41800  Biso   1.000  Cl
  H66      1.0000 0.48660  0.28520  0.38970  Biso   1.000  H
  Cl34     1.0000 0.55990  0.27830  0.40550  Biso   1.000  Cl
  H67      1.0000 0.54660  0.29590  0.38050  Biso   1.000  H
  C67      1.0000 0.52490  0.29930  0.35220  Biso   1.000  C
  C68      1.0000 0.52420  0.26300  0.31450  Biso   1.000  C
  H68      1.0000 0.54120  0.23240  0.32010  Biso   1.000  H
  C69      1.0000 0.49220  0.79400  0.85540  Biso   1.000  C
  C70      1.0000 0.49190  0.75580  0.82040  Biso   1.000  C
  H69      1.0000 0.48650  0.72200  0.82970  Biso   1.000  H
  Cl35     1.0000 0.48190  0.77610  0.91800  Biso   1.000  Cl
  H70      1.0000 0.48660  0.78520  0.88970  Biso   1.000  H
  Cl36     1.0000 0.55990  0.77830  0.90550  Biso   1.000  Cl
  H71      1.0000 0.54660  0.79590  0.88050  Biso   1.000  H
  C71      1.0000 0.52490  0.79930  0.85220  Biso   1.000  C
  C72      1.0000 0.52420  0.76300  0.81450  Biso   1.000  C
  H72      1.0000 0.54120  0.73240  0.82010  Biso   1.000  H
  C73      1.0000 0.99220  0.29400  0.85540  Biso   1.000  C
  C74      1.0000 0.99190  0.25580  0.82040  Biso   1.000  C
  H73      1.0000 0.98650  0.22200  0.82970  Biso   1.000  H
  Cl37     1.0000 0.98190  0.27610  0.91800  Biso   1.000  Cl
  H74      1.0000 0.98660  0.28520  0.88970  Biso   1.000  H
  Cl38     1.0000 0.05990  0.27830  0.90550  Biso   1.000  Cl
  H75      1.0000 0.04660  0.29590  0.88050  Biso   1.000  H
  C75      1.0000 0.02490  0.29930  0.85220  Biso   1.000  C
  C76      1.0000 0.02420  0.26300  0.81450  Biso   1.000  C
  H76      1.0000 0.04120  0.23240  0.82010  Biso   1.000  H
  C77      1.0000 0.99220  0.79400  0.35540  Biso   1.000  C
  C78      1.0000 0.99190  0.75580  0.32040  Biso   1.000  C
  H77      1.0000 0.98650  0.72200  0.32970  Biso   1.000  H
  Cl39     1.0000 0.98190  0.77610  0.41800  Biso   1.000  Cl
  H78      1.0000 0.98660  0.78520  0.38970  Biso   1.000  H
  Cl40     1.0000 0.05990  0.77830  0.40550  Biso   1.000  Cl
  H79      1.0000 0.04660  0.79590  0.38050  Biso   1.000  H
  C79      1.0000 0.02490  0.79930  0.35220  Biso   1.000  C
  C80      1.0000 0.02420  0.76300  0.31450  Biso   1.000  C
  H80      1.0000 0.04120  0.73240  0.32010  Biso   1.000  H
  C81      1.0000 0.49220  0.70600  0.64460  Biso   1.000  C
  C82      1.0000 0.49190  0.74420  0.67960  Biso   1.000  C
  H81      1.0000 0.48650  0.77800  0.67030  Biso   1.000  H
  Cl41     1.0000 0.48190  0.72390  0.58200  Biso   1.000  Cl
  H82      1.0000 0.48660  0.71480  0.61030  Biso   1.000  H
  Cl42     1.0000 0.55990  0.72170  0.59450  Biso   1.000  Cl
  H83      1.0000 0.54660  0.70410  0.61950  Biso   1.000  H
  C83      1.0000 0.52490  0.70070  0.64780  Biso   1.000  C
  C84      1.0000 0.52420  0.73700  0.68550  Biso   1.000  C
  H84      1.0000 0.54120  0.76760  0.67990  Biso   1.000  H
  C85      1.0000 0.49220  0.20600  0.14460  Biso   1.000  C
  C86      1.0000 0.49190  0.24420  0.17960  Biso   1.000  C
  H85      1.0000 0.48650  0.27800  0.17030  Biso   1.000  H
  Cl43     1.0000 0.48190  0.22390  0.08200  Biso   1.000  Cl
  H86      1.0000 0.48660  0.21480  0.11030  Biso   1.000  H
  Cl44     1.0000 0.55990  0.22170  0.09450  Biso   1.000  Cl
  H87      1.0000 0.54660  0.20410  0.11950  Biso   1.000  H
  C87      1.0000 0.52490  0.20070  0.14780  Biso   1.000  C
  C88      1.0000 0.52420  0.23700  0.18550  Biso   1.000  C
  H88      1.0000 0.54120  0.26760  0.17990  Biso   1.000  H
  C89      1.0000 0.99220  0.70600  0.14460  Biso   1.000  C
  C90      1.0000 0.99190  0.74420  0.17960  Biso   1.000  C
  H89      1.0000 0.98650  0.77800  0.17030  Biso   1.000  H
  Cl45     1.0000 0.98190  0.72390  0.08200  Biso   1.000  Cl
  H90      1.0000 0.98660  0.71480  0.11030  Biso   1.000  H
  Cl46     1.0000 0.05990  0.72170  0.09450  Biso   1.000  Cl
  H91      1.0000 0.04660  0.70410  0.11950  Biso   1.000  H
  C91      1.0000 0.02490  0.70070  0.14780  Biso   1.000  C
  C92      1.0000 0.02420  0.73700  0.18550  Biso   1.000  C
  H92      1.0000 0.04120  0.76760  0.17990  Biso   1.000  H
  C93      1.0000 0.99220  0.20600  0.64460  Biso   1.000  C
  C94      1.0000 0.99190  0.24420  0.67960  Biso   1.000  C
  H93      1.0000 0.98650  0.27800  0.67030  Biso   1.000  H
  Cl47     1.0000 0.98190  0.22390  0.58200  Biso   1.000  Cl
  H94      1.0000 0.98660  0.21480  0.61030  Biso   1.000  H
  Cl48     1.0000 0.05990  0.22170  0.59450  Biso   1.000  Cl
  H95      1.0000 0.04660  0.20410  0.61950  Biso   1.000  H
  C95      1.0000 0.02490  0.20070  0.64780  Biso   1.000  C
  C96      1.0000 0.02420  0.23700  0.68550  Biso   1.000  C
  H96      1.0000 0.04120  0.26760  0.67990  Biso   1.000  H
  C97      1.0000 0.50780  0.70600  0.35540  Biso   1.000  C
  C98      1.0000 0.50810  0.74420  0.32040  Biso   1.000  C
  H97      1.0000 0.51350  0.77800  0.32970  Biso   1.000  H
  Cl49     1.0000 0.51810  0.72390  0.41800  Biso   1.000  Cl
  H98      1.0000 0.51340  0.71480  0.38970  Biso   1.000  H
  Cl50     1.0000 0.44010  0.72170  0.40550  Biso   1.000  Cl
  H99      1.0000 0.45340  0.70410  0.38050  Biso   1.000  H
  C99      1.0000 0.47510  0.70070  0.35220  Biso   1.000  C
  C100     1.0000 0.47580  0.73700  0.31450  Biso   1.000  C
  H100     1.0000 0.45880  0.76760  0.32010  Biso   1.000  H
  C101     1.0000 0.50780  0.20600  0.85540  Biso   1.000  C
  C102     1.0000 0.50810  0.24420  0.82040  Biso   1.000  C
  H101     1.0000 0.51350  0.27800  0.82970  Biso   1.000  H
  Cl51     1.0000 0.51810  0.22390  0.91800  Biso   1.000  Cl
  H102     1.0000 0.51340  0.21480  0.88970  Biso   1.000  H
  Cl52     1.0000 0.44010  0.22170  0.90550  Biso   1.000  Cl
  H103     1.0000 0.45340  0.20410  0.88050  Biso   1.000  H
  C103     1.0000 0.47510  0.20070  0.85220  Biso   1.000  C
  C104     1.0000 0.47580  0.23700  0.81450  Biso   1.000  C
  H104     1.0000 0.45880  0.26760  0.82010  Biso   1.000  H
  C105     1.0000 0.00780  0.70600  0.85540  Biso   1.000  C
  C106     1.0000 0.00810  0.74420  0.82040  Biso   1.000  C
  H105     1.0000 0.01350  0.77800  0.82970  Biso   1.000  H
  Cl53     1.0000 0.01810  0.72390  0.91800  Biso   1.000  Cl
  H106     1.0000 0.01340  0.71480  0.88970  Biso   1.000  H
  Cl54     1.0000 0.94010  0.72170  0.90550  Biso   1.000  Cl
  H107     1.0000 0.95340  0.70410  0.88050  Biso   1.000  H
  C107     1.0000 0.97510  0.70070  0.85220  Biso   1.000  C
  C108     1.0000 0.97580  0.73700  0.81450  Biso   1.000  C
  H108     1.0000 0.95880  0.76760  0.82010  Biso   1.000  H
  C109     1.0000 0.00780  0.20600  0.35540  Biso   1.000  C
  C110     1.0000 0.00810  0.24420  0.32040  Biso   1.000  C
  H109     1.0000 0.01350  0.27800  0.32970  Biso   1.000  H
  Cl55     1.0000 0.01810  0.22390  0.41800  Biso   1.000  Cl
  H110     1.0000 0.01340  0.21480  0.38970  Biso   1.000  H
  Cl56     1.0000 0.94010  0.22170  0.40550  Biso   1.000  Cl
  H111     1.0000 0.95340  0.20410  0.38050  Biso   1.000  H
  C111     1.0000 0.97510  0.20070  0.35220  Biso   1.000  C
  C112     1.0000 0.97580  0.23700  0.31450  Biso   1.000  C
  H112     1.0000 0.95880  0.26760  0.32010  Biso   1.000  H
  C113     1.0000 0.50780  0.29400  0.64460  Biso   1.000  C
  C114     1.0000 0.50810  0.25580  0.67960  Biso   1.000  C
  H113     1.0000 0.51350  0.22200  0.67030  Biso   1.000  H
  Cl57     1.0000 0.51810  0.27610  0.58200  Biso   1.000  Cl
  H114     1.0000 0.51340  0.28520  0.61030  Biso   1.000  H
  Cl58     1.0000 0.44010  0.27830  0.59450  Biso   1.000  Cl
  H115     1.0000 0.45340  0.29590  0.61950  Biso   1.000  H
  C115     1.0000 0.47510  0.29930  0.64780  Biso   1.000  C
  C116     1.0000 0.47580  0.26300  0.68550  Biso   1.000  C
  H116     1.0000 0.45880  0.23240  0.67990  Biso   1.000  H
  C117     1.0000 0.50780  0.79400  0.14460  Biso   1.000  C
  C118     1.0000 0.50810  0.75580  0.17960  Biso   1.000  C
  H117     1.0000 0.51350  0.72200  0.17030  Biso   1.000  H
  Cl59     1.0000 0.51810  0.77610  0.08200  Biso   1.000  Cl
  H118     1.0000 0.51340  0.78520  0.11030  Biso   1.000  H
  Cl60     1.0000 0.44010  0.77830  0.09450  Biso   1.000  Cl
  H119     1.0000 0.45340  0.79590  0.11950  Biso   1.000  H
  C119     1.0000 0.47510  0.79930  0.14780  Biso   1.000  C
  C120     1.0000 0.47580  0.76300  0.18550  Biso   1.000  C
  H120     1.0000 0.45880  0.73240  0.17990  Biso   1.000  H
  C121     1.0000 0.00780  0.29400  0.14460  Biso   1.000  C
  C122     1.0000 0.00810  0.25580  0.17960  Biso   1.000  C
  H121     1.0000 0.01350  0.22200  0.17030  Biso   1.000  H
  Cl61     1.0000 0.01810  0.27610  0.08200  Biso   1.000  Cl
  H122     1.0000 0.01340  0.28520  0.11030  Biso   1.000  H
  Cl62     1.0000 0.94010  0.27830  0.09450  Biso   1.000  Cl
  H123     1.0000 0.95340  0.29590  0.11950  Biso   1.000  H
  C123     1.0000 0.97510  0.29930  0.14780  Biso   1.000  C
  C124     1.0000 0.97580  0.26300  0.18550  Biso   1.000  C
  H124     1.0000 0.95880  0.23240  0.17990  Biso   1.000  H
  C125     1.0000 0.00780  0.79400  0.64460  Biso   1.000  C
  C126     1.0000 0.00810  0.75580  0.67960  Biso   1.000  C
  H125     1.0000 0.01350  0.72200  0.67030  Biso   1.000  H
  Cl63     1.0000 0.01810  0.77610  0.58200  Biso   1.000  Cl
  H126     1.0000 0.01340  0.78520  0.61030  Biso   1.000  H
  Cl64     1.0000 0.94010  0.77830  0.59450  Biso   1.000  Cl
  H127     1.0000 0.95340  0.79590  0.61950  Biso   1.000  H
  C127     1.0000 0.97510  0.79930  0.64780  Biso   1.000  C
  C128     1.0000 0.97580  0.76300  0.68550  Biso   1.000  C
  H128     1.0000 0.95880  0.73240  0.67990  Biso   1.000  H
  C129     1.0000 0.35540  0.49220  0.29400  Biso   1.000  C
  C130     1.0000 0.32040  0.49190  0.25580  Biso   1.000  C
  H129     1.0000 0.32970  0.48650  0.22200  Biso   1.000  H
  Cl65     1.0000 0.41800  0.48190  0.27610  Biso   1.000  Cl
  H130     1.0000 0.38970  0.48660  0.28520  Biso   1.000  H
  Cl66     1.0000 0.40550  0.55990  0.27830  Biso   1.000  Cl
  H131     1.0000 0.38050  0.54660  0.29590  Biso   1.000  H
  C131     1.0000 0.35220  0.52490  0.29930  Biso   1.000  C
  C132     1.0000 0.31450  0.52420  0.26300  Biso   1.000  C
  H132     1.0000 0.32010  0.54120  0.23240  Biso   1.000  H
  C133     1.0000 0.35540  0.99220  0.79400  Biso   1.000  C
  C134     1.0000 0.32040  0.99190  0.75580  Biso   1.000  C
  H133     1.0000 0.32970  0.98650  0.72200  Biso   1.000  H
  Cl67     1.0000 0.41800  0.98190  0.77610  Biso   1.000  Cl
  H134     1.0000 0.38970  0.98660  0.78520  Biso   1.000  H
  Cl68     1.0000 0.40550  0.05990  0.77830  Biso   1.000  Cl
  H135     1.0000 0.38050  0.04660  0.79590  Biso   1.000  H
  C135     1.0000 0.35220  0.02490  0.79930  Biso   1.000  C
  C136     1.0000 0.31450  0.02420  0.76300  Biso   1.000  C
  H136     1.0000 0.32010  0.04120  0.73240  Biso   1.000  H
  C137     1.0000 0.85540  0.49220  0.79400  Biso   1.000  C
  C138     1.0000 0.82040  0.49190  0.75580  Biso   1.000  C
  H137     1.0000 0.82970  0.48650  0.72200  Biso   1.000  H
  Cl69     1.0000 0.91800  0.48190  0.77610  Biso   1.000  Cl
  H138     1.0000 0.88970  0.48660  0.78520  Biso   1.000  H
  Cl70     1.0000 0.90550  0.55990  0.77830  Biso   1.000  Cl
  H139     1.0000 0.88050  0.54660  0.79590  Biso   1.000  H
  C139     1.0000 0.85220  0.52490  0.79930  Biso   1.000  C
  C140     1.0000 0.81450  0.52420  0.76300  Biso   1.000  C
  H140     1.0000 0.82010  0.54120  0.73240  Biso   1.000  H
  C141     1.0000 0.85540  0.99220  0.29400  Biso   1.000  C
  C142     1.0000 0.82040  0.99190  0.25580  Biso   1.000  C
  H141     1.0000 0.82970  0.98650  0.22200  Biso   1.000  H
  Cl71     1.0000 0.91800  0.98190  0.27610  Biso   1.000  Cl
  H142     1.0000 0.88970  0.98660  0.28520  Biso   1.000  H
  Cl72     1.0000 0.90550  0.05990  0.27830  Biso   1.000  Cl
  H143     1.0000 0.88050  0.04660  0.29590  Biso   1.000  H
  C143     1.0000 0.85220  0.02490  0.29930  Biso   1.000  C
  C144     1.0000 0.81450  0.02420  0.26300  Biso   1.000  C
  H144     1.0000 0.82010  0.04120  0.23240  Biso   1.000  H
  C145     1.0000 0.64460  0.49220  0.70600  Biso   1.000  C
  C146     1.0000 0.67960  0.49190  0.74420  Biso   1.000  C
  H145     1.0000 0.67030  0.48650  0.77800  Biso   1.000  H
  Cl73     1.0000 0.58200  0.48190  0.72390  Biso   1.000  Cl
  H146     1.0000 0.61030  0.48660  0.71480  Biso   1.000  H
  Cl74     1.0000 0.59450  0.55990  0.72170  Biso   1.000  Cl
  H147     1.0000 0.61950  0.54660  0.70410  Biso   1.000  H
  C147     1.0000 0.64780  0.52490  0.70070  Biso   1.000  C
  C148     1.0000 0.68550  0.52420  0.73700  Biso   1.000  C
  H148     1.0000 0.67990  0.54120  0.76760  Biso   1.000  H
  C149     1.0000 0.64460  0.99220  0.20600  Biso   1.000  C
  C150     1.0000 0.67960  0.99190  0.24420  Biso   1.000  C
  H149     1.0000 0.67030  0.98650  0.27800  Biso   1.000  H
  Cl75     1.0000 0.58200  0.98190  0.22390  Biso   1.000  Cl
  H150     1.0000 0.61030  0.98660  0.21480  Biso   1.000  H
  Cl76     1.0000 0.59450  0.05990  0.22170  Biso   1.000  Cl
  H151     1.0000 0.61950  0.04660  0.20410  Biso   1.000  H
  C151     1.0000 0.64780  0.02490  0.20070  Biso   1.000  C
  C152     1.0000 0.68550  0.02420  0.23700  Biso   1.000  C
  H152     1.0000 0.67990  0.04120  0.26760  Biso   1.000  H
  C153     1.0000 0.14460  0.49220  0.20600  Biso   1.000  C
  C154     1.0000 0.17960  0.49190  0.24420  Biso   1.000  C
  H153     1.0000 0.17030  0.48650  0.27800  Biso   1.000  H
  Cl77     1.0000 0.08200  0.48190  0.22390  Biso   1.000  Cl
  H154     1.0000 0.11030  0.48660  0.21480  Biso   1.000  H
  Cl78     1.0000 0.09450  0.55990  0.22170  Biso   1.000  Cl
  H155     1.0000 0.11950  0.54660  0.20410  Biso   1.000  H
  C155     1.0000 0.14780  0.52490  0.20070  Biso   1.000  C
  C156     1.0000 0.18550  0.52420  0.23700  Biso   1.000  C
  H156     1.0000 0.17990  0.54120  0.26760  Biso   1.000  H
  C157     1.0000 0.14460  0.99220  0.70600  Biso   1.000  C
  C158     1.0000 0.17960  0.99190  0.74420  Biso   1.000  C
  H157     1.0000 0.17030  0.98650  0.77800  Biso   1.000  H
  Cl79     1.0000 0.08200  0.98190  0.72390  Biso   1.000  Cl
  H158     1.0000 0.11030  0.98660  0.71480  Biso   1.000  H
  Cl80     1.0000 0.09450  0.05990  0.72170  Biso   1.000  Cl
  H159     1.0000 0.11950  0.04660  0.70410  Biso   1.000  H
  C159     1.0000 0.14780  0.02490  0.70070  Biso   1.000  C
  C160     1.0000 0.18550  0.02420  0.73700  Biso   1.000  C
  H160     1.0000 0.17990  0.04120  0.76760  Biso   1.000  H
  C161     1.0000 0.35540  0.50780  0.70600  Biso   1.000  C
  C162     1.0000 0.32040  0.50810  0.74420  Biso   1.000  C
  H161     1.0000 0.32970  0.51350  0.77800  Biso   1.000  H
  Cl81     1.0000 0.41800  0.51810  0.72390  Biso   1.000  Cl
  H162     1.0000 0.38970  0.51340  0.71480  Biso   1.000  H
  Cl82     1.0000 0.40550  0.44010  0.72170  Biso   1.000  Cl
  H163     1.0000 0.38050  0.45340  0.70410  Biso   1.000  H
  C163     1.0000 0.35220  0.47510  0.70070  Biso   1.000  C
  C164     1.0000 0.31450  0.47580  0.73700  Biso   1.000  C
  H164     1.0000 0.32010  0.45880  0.76760  Biso   1.000  H
  C165     1.0000 0.35540  0.00780  0.20600  Biso   1.000  C
  C166     1.0000 0.32040  0.00810  0.24420  Biso   1.000  C
  H165     1.0000 0.32970  0.01350  0.27800  Biso   1.000  H
  Cl83     1.0000 0.41800  0.01810  0.22390  Biso   1.000  Cl
  H166     1.0000 0.38970  0.01340  0.21480  Biso   1.000  H
  Cl84     1.0000 0.40550  0.94010  0.22170  Biso   1.000  Cl
  H167     1.0000 0.38050  0.95340  0.20410  Biso   1.000  H
  C167     1.0000 0.35220  0.97510  0.20070  Biso   1.000  C
  C168     1.0000 0.31450  0.97580  0.23700  Biso   1.000  C
  H168     1.0000 0.32010  0.95880  0.26760  Biso   1.000  H
  C169     1.0000 0.85540  0.50780  0.20600  Biso   1.000  C
  C170     1.0000 0.82040  0.50810  0.24420  Biso   1.000  C
  H169     1.0000 0.82970  0.51350  0.27800  Biso   1.000  H
  Cl85     1.0000 0.91800  0.51810  0.22390  Biso   1.000  Cl
  H170     1.0000 0.88970  0.51340  0.21480  Biso   1.000  H
  Cl86     1.0000 0.90550  0.44010  0.22170  Biso   1.000  Cl
  H171     1.0000 0.88050  0.45340  0.20410  Biso   1.000  H
  C171     1.0000 0.85220  0.47510  0.20070  Biso   1.000  C
  C172     1.0000 0.81450  0.47580  0.23700  Biso   1.000  C
  H172     1.0000 0.82010  0.45880  0.26760  Biso   1.000  H
  C173     1.0000 0.85540  0.00780  0.70600  Biso   1.000  C
  C174     1.0000 0.82040  0.00810  0.74420  Biso   1.000  C
  H173     1.0000 0.82970  0.01350  0.77800  Biso   1.000  H
  Cl87     1.0000 0.91800  0.01810  0.72390  Biso   1.000  Cl
  H174     1.0000 0.88970  0.01340  0.71480  Biso   1.000  H
  Cl88     1.0000 0.90550  0.94010  0.72170  Biso   1.000  Cl
  H175     1.0000 0.88050  0.95340  0.70410  Biso   1.000  H
  C175     1.0000 0.85220  0.97510  0.70070  Biso   1.000  C
  C176     1.0000 0.81450  0.97580  0.73700  Biso   1.000  C
  H176     1.0000 0.82010  0.95880  0.76760  Biso   1.000  H
  C177     1.0000 0.64460  0.50780  0.29400  Biso   1.000  C
  C178     1.0000 0.67960  0.50810  0.25580  Biso   1.000  C
  H177     1.0000 0.67030  0.51350  0.22200  Biso   1.000  H
  Cl89     1.0000 0.58200  0.51810  0.27610  Biso   1.000  Cl
  H178     1.0000 0.61030  0.51340  0.28520  Biso   1.000  H
  Cl90     1.0000 0.59450  0.44010  0.27830  Biso   1.000  Cl
  H179     1.0000 0.61950  0.45340  0.29590  Biso   1.000  H
  C179     1.0000 0.64780  0.47510  0.29930  Biso   1.000  C
  C180     1.0000 0.68550  0.47580  0.26300  Biso   1.000  C
  H180     1.0000 0.67990  0.45880  0.23240  Biso   1.000  H
  C181     1.0000 0.64460  0.00780  0.79400  Biso   1.000  C
  C182     1.0000 0.67960  0.00810  0.75580  Biso   1.000  C
  H181     1.0000 0.67030  0.01350  0.72200  Biso   1.000  H
  Cl91     1.0000 0.58200  0.01810  0.77610  Biso   1.000  Cl
  H182     1.0000 0.61030  0.01340  0.78520  Biso   1.000  H
  Cl92     1.0000 0.59450  0.94010  0.77830  Biso   1.000  Cl
  H183     1.0000 0.61950  0.95340  0.79590  Biso   1.000  H
  C183     1.0000 0.64780  0.97510  0.79930  Biso   1.000  C
  C184     1.0000 0.68550  0.97580  0.76300  Biso   1.000  C
  H184     1.0000 0.67990  0.95880  0.73240  Biso   1.000  H
  C185     1.0000 0.14460  0.50780  0.79400  Biso   1.000  C
  C186     1.0000 0.17960  0.50810  0.75580  Biso   1.000  C
  H185     1.0000 0.17030  0.51350  0.72200  Biso   1.000  H
  Cl93     1.0000 0.08200  0.51810  0.77610  Biso   1.000  Cl
  H186     1.0000 0.11030  0.51340  0.78520  Biso   1.000  H
  Cl94     1.0000 0.09450  0.44010  0.77830  Biso   1.000  Cl
  H187     1.0000 0.11950  0.45340  0.79590  Biso   1.000  H
  C187     1.0000 0.14780  0.47510  0.79930  Biso   1.000  C
  C188     1.0000 0.18550  0.47580  0.76300  Biso   1.000  C
  H188     1.0000 0.17990  0.45880  0.73240  Biso   1.000  H
  C189     1.0000 0.14460  0.00780  0.29400  Biso   1.000  C
  C190     1.0000 0.17960  0.00810  0.25580  Biso   1.000  C
  H189     1.0000 0.17030  0.01350  0.22200  Biso   1.000  H
  Cl95     1.0000 0.08200  0.01810  0.27610  Biso   1.000  Cl
  H190     1.0000 0.11030  0.01340  0.28520  Biso   1.000  H
  Cl96     1.0000 0.09450  0.94010  0.27830  Biso   1.000  Cl
  H191     1.0000 0.11950  0.95340  0.29590  Biso   1.000  H
  C191     1.0000 0.14780  0.97510  0.29930  Biso   1.000  C
  C192     1.0000 0.18550  0.97580  0.26300  Biso   1.000  C
  H192     1.0000 0.17990  0.95880  0.23240  Biso   1.000  H
  C193     1.0000 0.35540  0.29400  0.50780  Biso   1.000  C
  C194     1.0000 0.32040  0.25580  0.50810  Biso   1.000  C
  H193     1.0000 0.32970  0.22200  0.51350  Biso   1.000  H
  Cl97     1.0000 0.41800  0.27610  0.51810  Biso   1.000  Cl
  H194     1.0000 0.38970  0.28520  0.51340  Biso   1.000  H
  Cl98     1.0000 0.40550  0.27830  0.44010  Biso   1.000  Cl
  H195     1.0000 0.38050  0.29590  0.45340  Biso   1.000  H
  C195     1.0000 0.35220  0.29930  0.47510  Biso   1.000  C
  C196     1.0000 0.31450  0.26300  0.47580  Biso   1.000  C
  H196     1.0000 0.32010  0.23240  0.45880  Biso   1.000  H
  C197     1.0000 0.35540  0.79400  0.00780  Biso   1.000  C
  C198     1.0000 0.32040  0.75580  0.00810  Biso   1.000  C
  H197     1.0000 0.32970  0.72200  0.01350  Biso   1.000  H
  Cl99     1.0000 0.41800  0.77610  0.01810  Biso   1.000  Cl
  H198     1.0000 0.38970  0.78520  0.01340  Biso   1.000  H
  Cl100    1.0000 0.40550  0.77830  0.94010  Biso   1.000  Cl
  H199     1.0000 0.38050  0.79590  0.95340  Biso   1.000  H
  C199     1.0000 0.35220  0.79930  0.97510  Biso   1.000  C
  C200     1.0000 0.31450  0.76300  0.97580  Biso   1.000  C
  H200     1.0000 0.32010  0.73240  0.95880  Biso   1.000  H
  C201     1.0000 0.85540  0.29400  0.00780  Biso   1.000  C
  C202     1.0000 0.82040  0.25580  0.00810  Biso   1.000  C
  H201     1.0000 0.82970  0.22200  0.01350  Biso   1.000  H
  Cl101    1.0000 0.91800  0.27610  0.01810  Biso   1.000  Cl
  H202     1.0000 0.88970  0.28520  0.01340  Biso   1.000  H
  Cl102    1.0000 0.90550  0.27830  0.94010  Biso   1.000  Cl
  H203     1.0000 0.88050  0.29590  0.95340  Biso   1.000  H
  C203     1.0000 0.85220  0.29930  0.97510  Biso   1.000  C
  C204     1.0000 0.81450  0.26300  0.97580  Biso   1.000  C
  H204     1.0000 0.82010  0.23240  0.95880  Biso   1.000  H
  C205     1.0000 0.85540  0.79400  0.50780  Biso   1.000  C
  C206     1.0000 0.82040  0.75580  0.50810  Biso   1.000  C
  H205     1.0000 0.82970  0.72200  0.51350  Biso   1.000  H
  Cl103    1.0000 0.91800  0.77610  0.51810  Biso   1.000  Cl
  H206     1.0000 0.88970  0.78520  0.51340  Biso   1.000  H
  Cl104    1.0000 0.90550  0.77830  0.44010  Biso   1.000  Cl
  H207     1.0000 0.88050  0.79590  0.45340  Biso   1.000  H
  C207     1.0000 0.85220  0.79930  0.47510  Biso   1.000  C
  C208     1.0000 0.81450  0.76300  0.47580  Biso   1.000  C
  H208     1.0000 0.82010  0.73240  0.45880  Biso   1.000  H
  C209     1.0000 0.64460  0.70600  0.50780  Biso   1.000  C
  C210     1.0000 0.67960  0.74420  0.50810  Biso   1.000  C
  H209     1.0000 0.67030  0.77800  0.51350  Biso   1.000  H
  Cl105    1.0000 0.58200  0.72390  0.51810  Biso   1.000  Cl
  H210     1.0000 0.61030  0.71480  0.51340  Biso   1.000  H
  Cl106    1.0000 0.59450  0.72170  0.44010  Biso   1.000  Cl
  H211     1.0000 0.61950  0.70410  0.45340  Biso   1.000  H
  C211     1.0000 0.64780  0.70070  0.47510  Biso   1.000  C
  C212     1.0000 0.68550  0.73700  0.47580  Biso   1.000  C
  H212     1.0000 0.67990  0.76760  0.45880  Biso   1.000  H
  C213     1.0000 0.64460  0.20600  0.00780  Biso   1.000  C
  C214     1.0000 0.67960  0.24420  0.00810  Biso   1.000  C
  H213     1.0000 0.67030  0.27800  0.01350  Biso   1.000  H
  Cl107    1.0000 0.58200  0.22390  0.01810  Biso   1.000  Cl
  H214     1.0000 0.61030  0.21480  0.01340  Biso   1.000  H
  Cl108    1.0000 0.59450  0.22170  0.94010  Biso   1.000  Cl
  H215     1.0000 0.61950  0.20410  0.95340  Biso   1.000  H
  C215     1.0000 0.64780  0.20070  0.97510  Biso   1.000  C
  C216     1.0000 0.68550  0.23700  0.97580  Biso   1.000  C
  H216     1.0000 0.67990  0.26760  0.95880  Biso   1.000  H
  C217     1.0000 0.14460  0.70600  0.00780  Biso   1.000  C
  C218     1.0000 0.17960  0.74420  0.00810  Biso   1.000  C
  H217     1.0000 0.17030  0.77800  0.01350  Biso   1.000  H
  Cl109    1.0000 0.08200  0.72390  0.01810  Biso   1.000  Cl
  H218     1.0000 0.11030  0.71480  0.01340  Biso   1.000  H
  Cl110    1.0000 0.09450  0.72170  0.94010  Biso   1.000  Cl
  H219     1.0000 0.11950  0.70410  0.95340  Biso   1.000  H
  C219     1.0000 0.14780  0.70070  0.97510  Biso   1.000  C
  C220     1.0000 0.18550  0.73700  0.97580  Biso   1.000  C
  H220     1.0000 0.17990  0.76760  0.95880  Biso   1.000  H
  C221     1.0000 0.14460  0.20600  0.50780  Biso   1.000  C
  C222     1.0000 0.17960  0.24420  0.50810  Biso   1.000  C
  H221     1.0000 0.17030  0.27800  0.51350  Biso   1.000  H
  Cl111    1.0000 0.08200  0.22390  0.51810  Biso   1.000  Cl
  H222     1.0000 0.11030  0.21480  0.51340  Biso   1.000  H
  Cl112    1.0000 0.09450  0.22170  0.44010  Biso   1.000  Cl
  H223     1.0000 0.11950  0.20410  0.45340  Biso   1.000  H
  C223     1.0000 0.14780  0.20070  0.47510  Biso   1.000  C
  C224     1.0000 0.18550  0.23700  0.47580  Biso   1.000  C
  H224     1.0000 0.17990  0.26760  0.45880  Biso   1.000  H
  C225     1.0000 0.35540  0.70600  0.49220  Biso   1.000  C
  C226     1.0000 0.32040  0.74420  0.49190  Biso   1.000  C
  H225     1.0000 0.32970  0.77800  0.48650  Biso   1.000  H
  Cl113    1.0000 0.41800  0.72390  0.48190  Biso   1.000  Cl
  H226     1.0000 0.38970  0.71480  0.48660  Biso   1.000  H
  Cl114    1.0000 0.40550  0.72170  0.55990  Biso   1.000  Cl
  H227     1.0000 0.38050  0.70410  0.54660  Biso   1.000  H
  C227     1.0000 0.35220  0.70070  0.52490  Biso   1.000  C
  C228     1.0000 0.31450  0.73700  0.52420  Biso   1.000  C
  H228     1.0000 0.32010  0.76760  0.54120  Biso   1.000  H
  C229     1.0000 0.35540  0.20600  0.99220  Biso   1.000  C
  C230     1.0000 0.32040  0.24420  0.99190  Biso   1.000  C
  H229     1.0000 0.32970  0.27800  0.98650  Biso   1.000  H
  Cl115    1.0000 0.41800  0.22390  0.98190  Biso   1.000  Cl
  H230     1.0000 0.38970  0.21480  0.98660  Biso   1.000  H
  Cl116    1.0000 0.40550  0.22170  0.05990  Biso   1.000  Cl
  H231     1.0000 0.38050  0.20410  0.04660  Biso   1.000  H
  C231     1.0000 0.35220  0.20070  0.02490  Biso   1.000  C
  C232     1.0000 0.31450  0.23700  0.02420  Biso   1.000  C
  H232     1.0000 0.32010  0.26760  0.04120  Biso   1.000  H
  C233     1.0000 0.85540  0.70600  0.99220  Biso   1.000  C
  C234     1.0000 0.82040  0.74420  0.99190  Biso   1.000  C
  H233     1.0000 0.82970  0.77800  0.98650  Biso   1.000  H
  Cl117    1.0000 0.91800  0.72390  0.98190  Biso   1.000  Cl
  H234     1.0000 0.88970  0.71480  0.98660  Biso   1.000  H
  Cl118    1.0000 0.90550  0.72170  0.05990  Biso   1.000  Cl
  H235     1.0000 0.88050  0.70410  0.04660  Biso   1.000  H
  C235     1.0000 0.85220  0.70070  0.02490  Biso   1.000  C
  C236     1.0000 0.81450  0.73700  0.02420  Biso   1.000  C
  H236     1.0000 0.82010  0.76760  0.04120  Biso   1.000  H
  C237     1.0000 0.85540  0.20600  0.49220  Biso   1.000  C
  C238     1.0000 0.82040  0.24420  0.49190  Biso   1.000  C
  H237     1.0000 0.82970  0.27800  0.48650  Biso   1.000  H
  Cl119    1.0000 0.91800  0.22390  0.48190  Biso   1.000  Cl
  H238     1.0000 0.88970  0.21480  0.48660  Biso   1.000  H
  Cl120    1.0000 0.90550  0.22170  0.55990  Biso   1.000  Cl
  H239     1.0000 0.88050  0.20410  0.54660  Biso   1.000  H
  C239     1.0000 0.85220  0.20070  0.52490  Biso   1.000  C
  C240     1.0000 0.81450  0.23700  0.52420  Biso   1.000  C
  H240     1.0000 0.82010  0.26760  0.54120  Biso   1.000  H
  C241     1.0000 0.64460  0.29400  0.49220  Biso   1.000  C
  C242     1.0000 0.67960  0.25580  0.49190  Biso   1.000  C
  H241     1.0000 0.67030  0.22200  0.48650  Biso   1.000  H
  Cl121    1.0000 0.58200  0.27610  0.48190  Biso   1.000  Cl
  H242     1.0000 0.61030  0.28520  0.48660  Biso   1.000  H
  Cl122    1.0000 0.59450  0.27830  0.55990  Biso   1.000  Cl
  H243     1.0000 0.61950  0.29590  0.54660  Biso   1.000  H
  C243     1.0000 0.64780  0.29930  0.52490  Biso   1.000  C
  C244     1.0000 0.68550  0.26300  0.52420  Biso   1.000  C
  H244     1.0000 0.67990  0.23240  0.54120  Biso   1.000  H
  C245     1.0000 0.64460  0.79400  0.99220  Biso   1.000  C
  C246     1.0000 0.67960  0.75580  0.99190  Biso   1.000  C
  H245     1.0000 0.67030  0.72200  0.98650  Biso   1.000  H
  Cl123    1.0000 0.58200  0.77610  0.98190  Biso   1.000  Cl
  H246     1.0000 0.61030  0.78520  0.98660  Biso   1.000  H
  Cl124    1.0000 0.59450  0.77830  0.05990  Biso   1.000  Cl
  H247     1.0000 0.61950  0.79590  0.04660  Biso   1.000  H
  C247     1.0000 0.64780  0.79930  0.02490  Biso   1.000  C
  C248     1.0000 0.68550  0.76300  0.02420  Biso   1.000  C
  H248     1.0000 0.67990  0.73240  0.04120  Biso   1.000  H
  C249     1.0000 0.14460  0.29400  0.99220  Biso   1.000  C
  C250     1.0000 0.17960  0.25580  0.99190  Biso   1.000  C
  H249     1.0000 0.17030  0.22200  0.98650  Biso   1.000  H
  Cl125    1.0000 0.08200  0.27610  0.98190  Biso   1.000  Cl
  H250     1.0000 0.11030  0.28520  0.98660  Biso   1.000  H
  Cl126    1.0000 0.09450  0.27830  0.05990  Biso   1.000  Cl
  H251     1.0000 0.11950  0.29590  0.04660  Biso   1.000  H
  C251     1.0000 0.14780  0.29930  0.02490  Biso   1.000  C
  C252     1.0000 0.18550  0.26300  0.02420  Biso   1.000  C
  H252     1.0000 0.17990  0.23240  0.04120  Biso   1.000  H
  C253     1.0000 0.14460  0.79400  0.49220  Biso   1.000  C
  C254     1.0000 0.17960  0.75580  0.49190  Biso   1.000  C
  H253     1.0000 0.17030  0.72200  0.48650  Biso   1.000  H
  Cl127    1.0000 0.08200  0.77610  0.48190  Biso   1.000  Cl
  H254     1.0000 0.11030  0.78520  0.48660  Biso   1.000  H
  Cl128    1.0000 0.09450  0.77830  0.55990  Biso   1.000  Cl
  H255     1.0000 0.11950  0.79590  0.54660  Biso   1.000  H
  C255     1.0000 0.14780  0.79930  0.52490  Biso   1.000  C
  C256     1.0000 0.18550  0.76300  0.52420  Biso   1.000  C
  H256     1.0000 0.17990  0.73240  0.54120  Biso   1.000  H
  C257     1.0000 0.29400  0.49220  0.64460  Biso   1.000  C
  C258     1.0000 0.25580  0.49190  0.67960  Biso   1.000  C
  H257     1.0000 0.22200  0.48650  0.67030  Biso   1.000  H
  Cl129    1.0000 0.27610  0.48190  0.58200  Biso   1.000  Cl
  H258     1.0000 0.28520  0.48660  0.61030  Biso   1.000  H
  Cl130    1.0000 0.27830  0.55990  0.59450  Biso   1.000  Cl
  H259     1.0000 0.29590  0.54660  0.61950  Biso   1.000  H
  C259     1.0000 0.29930  0.52490  0.64780  Biso   1.000  C
  C260     1.0000 0.26300  0.52420  0.68550  Biso   1.000  C
  H260     1.0000 0.23240  0.54120  0.67990  Biso   1.000  H
  C261     1.0000 0.29400  0.99220  0.14460  Biso   1.000  C
  C262     1.0000 0.25580  0.99190  0.17960  Biso   1.000  C
  H261     1.0000 0.22200  0.98650  0.17030  Biso   1.000  H
  Cl131    1.0000 0.27610  0.98190  0.08200  Biso   1.000  Cl
  H262     1.0000 0.28520  0.98660  0.11030  Biso   1.000  H
  Cl132    1.0000 0.27830  0.05990  0.09450  Biso   1.000  Cl
  H263     1.0000 0.29590  0.04660  0.11950  Biso   1.000  H
  C263     1.0000 0.29930  0.02490  0.14780  Biso   1.000  C
  C264     1.0000 0.26300  0.02420  0.18550  Biso   1.000  C
  H264     1.0000 0.23240  0.04120  0.17990  Biso   1.000  H
  C265     1.0000 0.79400  0.49220  0.14460  Biso   1.000  C
  C266     1.0000 0.75580  0.49190  0.17960  Biso   1.000  C
  H265     1.0000 0.72200  0.48650  0.17030  Biso   1.000  H
  Cl133    1.0000 0.77610  0.48190  0.08200  Biso   1.000  Cl
  H266     1.0000 0.78520  0.48660  0.11030  Biso   1.000  H
  Cl134    1.0000 0.77830  0.55990  0.09450  Biso   1.000  Cl
  H267     1.0000 0.79590  0.54660  0.11950  Biso   1.000  H
  C267     1.0000 0.79930  0.52490  0.14780  Biso   1.000  C
  C268     1.0000 0.76300  0.52420  0.18550  Biso   1.000  C
  H268     1.0000 0.73240  0.54120  0.17990  Biso   1.000  H
  C269     1.0000 0.79400  0.99220  0.64460  Biso   1.000  C
  C270     1.0000 0.75580  0.99190  0.67960  Biso   1.000  C
  H269     1.0000 0.72200  0.98650  0.67030  Biso   1.000  H
  Cl135    1.0000 0.77610  0.98190  0.58200  Biso   1.000  Cl
  H270     1.0000 0.78520  0.98660  0.61030  Biso   1.000  H
  Cl136    1.0000 0.77830  0.05990  0.59450  Biso   1.000  Cl
  H271     1.0000 0.79590  0.04660  0.61950  Biso   1.000  H
  C271     1.0000 0.79930  0.02490  0.64780  Biso   1.000  C
  C272     1.0000 0.76300  0.02420  0.68550  Biso   1.000  C
  H272     1.0000 0.73240  0.04120  0.67990  Biso   1.000  H
  C273     1.0000 0.70600  0.49220  0.35540  Biso   1.000  C
  C274     1.0000 0.74420  0.49190  0.32040  Biso   1.000  C
  H273     1.0000 0.77800  0.48650  0.32970  Biso   1.000  H
  Cl137    1.0000 0.72390  0.48190  0.41800  Biso   1.000  Cl
  H274     1.0000 0.71480  0.48660  0.38970  Biso   1.000  H
  Cl138    1.0000 0.72170  0.55990  0.40550  Biso   1.000  Cl
  H275     1.0000 0.70410  0.54660  0.38050  Biso   1.000  H
  C275     1.0000 0.70070  0.52490  0.35220  Biso   1.000  C
  C276     1.0000 0.73700  0.52420  0.31450  Biso   1.000  C
  H276     1.0000 0.76760  0.54120  0.32010  Biso   1.000  H
  C277     1.0000 0.70600  0.99220  0.85540  Biso   1.000  C
  C278     1.0000 0.74420  0.99190  0.82040  Biso   1.000  C
  H277     1.0000 0.77800  0.98650  0.82970  Biso   1.000  H
  Cl139    1.0000 0.72390  0.98190  0.91800  Biso   1.000  Cl
  H278     1.0000 0.71480  0.98660  0.88970  Biso   1.000  H
  Cl140    1.0000 0.72170  0.05990  0.90550  Biso   1.000  Cl
  H279     1.0000 0.70410  0.04660  0.88050  Biso   1.000  H
  C279     1.0000 0.70070  0.02490  0.85220  Biso   1.000  C
  C280     1.0000 0.73700  0.02420  0.81450  Biso   1.000  C
  H280     1.0000 0.76760  0.04120  0.82010  Biso   1.000  H
  C281     1.0000 0.20600  0.49220  0.85540  Biso   1.000  C
  C282     1.0000 0.24420  0.49190  0.82040  Biso   1.000  C
  H281     1.0000 0.27800  0.48650  0.82970  Biso   1.000  H
  Cl141    1.0000 0.22390  0.48190  0.91800  Biso   1.000  Cl
  H282     1.0000 0.21480  0.48660  0.88970  Biso   1.000  H
  Cl142    1.0000 0.22170  0.55990  0.90550  Biso   1.000  Cl
  H283     1.0000 0.20410  0.54660  0.88050  Biso   1.000  H
  C283     1.0000 0.20070  0.52490  0.85220  Biso   1.000  C
  C284     1.0000 0.23700  0.52420  0.81450  Biso   1.000  C
  H284     1.0000 0.26760  0.54120  0.82010  Biso   1.000  H
  C285     1.0000 0.20600  0.99220  0.35540  Biso   1.000  C
  C286     1.0000 0.24420  0.99190  0.32040  Biso   1.000  C
  H285     1.0000 0.27800  0.98650  0.32970  Biso   1.000  H
  Cl143    1.0000 0.22390  0.98190  0.41800  Biso   1.000  Cl
  H286     1.0000 0.21480  0.98660  0.38970  Biso   1.000  H
  Cl144    1.0000 0.22170  0.05990  0.40550  Biso   1.000  Cl
  H287     1.0000 0.20410  0.04660  0.38050  Biso   1.000  H
  C287     1.0000 0.20070  0.02490  0.35220  Biso   1.000  C
  C288     1.0000 0.23700  0.02420  0.31450  Biso   1.000  C
  H288     1.0000 0.26760  0.04120  0.32010  Biso   1.000  H
  C289     1.0000 0.70600  0.50780  0.64460  Biso   1.000  C
  C290     1.0000 0.74420  0.50810  0.67960  Biso   1.000  C
  H289     1.0000 0.77800  0.51350  0.67030  Biso   1.000  H
  Cl145    1.0000 0.72390  0.51810  0.58200  Biso   1.000  Cl
  H290     1.0000 0.71480  0.51340  0.61030  Biso   1.000  H
  Cl146    1.0000 0.72170  0.44010  0.59450  Biso   1.000  Cl
  H291     1.0000 0.70410  0.45340  0.61950  Biso   1.000  H
  C291     1.0000 0.70070  0.47510  0.64780  Biso   1.000  C
  C292     1.0000 0.73700  0.47580  0.68550  Biso   1.000  C
  H292     1.0000 0.76760  0.45880  0.67990  Biso   1.000  H
  C293     1.0000 0.70600  0.00780  0.14460  Biso   1.000  C
  C294     1.0000 0.74420  0.00810  0.17960  Biso   1.000  C
  H293     1.0000 0.77800  0.01350  0.17030  Biso   1.000  H
  Cl147    1.0000 0.72390  0.01810  0.08200  Biso   1.000  Cl
  H294     1.0000 0.71480  0.01340  0.11030  Biso   1.000  H
  Cl148    1.0000 0.72170  0.94010  0.09450  Biso   1.000  Cl
  H295     1.0000 0.70410  0.95340  0.11950  Biso   1.000  H
  C295     1.0000 0.70070  0.97510  0.14780  Biso   1.000  C
  C296     1.0000 0.73700  0.97580  0.18550  Biso   1.000  C
  H296     1.0000 0.76760  0.95880  0.17990  Biso   1.000  H
  C297     1.0000 0.20600  0.50780  0.14460  Biso   1.000  C
  C298     1.0000 0.24420  0.50810  0.17960  Biso   1.000  C
  H297     1.0000 0.27800  0.51350  0.17030  Biso   1.000  H
  Cl149    1.0000 0.22390  0.51810  0.08200  Biso   1.000  Cl
  H298     1.0000 0.21480  0.51340  0.11030  Biso   1.000  H
  Cl150    1.0000 0.22170  0.44010  0.09450  Biso   1.000  Cl
  H299     1.0000 0.20410  0.45340  0.11950  Biso   1.000  H
  C299     1.0000 0.20070  0.47510  0.14780  Biso   1.000  C
  C300     1.0000 0.23700  0.47580  0.18550  Biso   1.000  C
  H300     1.0000 0.26760  0.45880  0.17990  Biso   1.000  H
  C301     1.0000 0.20600  0.00780  0.64460  Biso   1.000  C
  C302     1.0000 0.24420  0.00810  0.67960  Biso   1.000  C
  H301     1.0000 0.27800  0.01350  0.67030  Biso   1.000  H
  Cl151    1.0000 0.22390  0.01810  0.58200  Biso   1.000  Cl
  H302     1.0000 0.21480  0.01340  0.61030  Biso   1.000  H
  Cl152    1.0000 0.22170  0.94010  0.59450  Biso   1.000  Cl
  H303     1.0000 0.20410  0.95340  0.61950  Biso   1.000  H
  C303     1.0000 0.20070  0.97510  0.64780  Biso   1.000  C
  C304     1.0000 0.23700  0.97580  0.68550  Biso   1.000  C
  H304     1.0000 0.26760  0.95880  0.67990  Biso   1.000  H
  C305     1.0000 0.29400  0.50780  0.35540  Biso   1.000  C
  C306     1.0000 0.25580  0.50810  0.32040  Biso   1.000  C
  H305     1.0000 0.22200  0.51350  0.32970  Biso   1.000  H
  Cl153    1.0000 0.27610  0.51810  0.41800  Biso   1.000  Cl
  H306     1.0000 0.28520  0.51340  0.38970  Biso   1.000  H
  Cl154    1.0000 0.27830  0.44010  0.40550  Biso   1.000  Cl
  H307     1.0000 0.29590  0.45340  0.38050  Biso   1.000  H
  C307     1.0000 0.29930  0.47510  0.35220  Biso   1.000  C
  C308     1.0000 0.26300  0.47580  0.31450  Biso   1.000  C
  H308     1.0000 0.23240  0.45880  0.32010  Biso   1.000  H
  C309     1.0000 0.29400  0.00780  0.85540  Biso   1.000  C
  C310     1.0000 0.25580  0.00810  0.82040  Biso   1.000  C
  H309     1.0000 0.22200  0.01350  0.82970  Biso   1.000  H
  Cl155    1.0000 0.27610  0.01810  0.91800  Biso   1.000  Cl
  H310     1.0000 0.28520  0.01340  0.88970  Biso   1.000  H
  Cl156    1.0000 0.27830  0.94010  0.90550  Biso   1.000  Cl
  H311     1.0000 0.29590  0.95340  0.88050  Biso   1.000  H
  C311     1.0000 0.29930  0.97510  0.85220  Biso   1.000  C
  C312     1.0000 0.26300  0.97580  0.81450  Biso   1.000  C
  H312     1.0000 0.23240  0.95880  0.82010  Biso   1.000  H
  C313     1.0000 0.79400  0.50780  0.85540  Biso   1.000  C
  C314     1.0000 0.75580  0.50810  0.82040  Biso   1.000  C
  H313     1.0000 0.72200  0.51350  0.82970  Biso   1.000  H
  Cl157    1.0000 0.77610  0.51810  0.91800  Biso   1.000  Cl
  H314     1.0000 0.78520  0.51340  0.88970  Biso   1.000  H
  Cl158    1.0000 0.77830  0.44010  0.90550  Biso   1.000  Cl
  H315     1.0000 0.79590  0.45340  0.88050  Biso   1.000  H
  C315     1.0000 0.79930  0.47510  0.85220  Biso   1.000  C
  C316     1.0000 0.76300  0.47580  0.81450  Biso   1.000  C
  H316     1.0000 0.73240  0.45880  0.82010  Biso   1.000  H
  C317     1.0000 0.79400  0.00780  0.35540  Biso   1.000  C
  C318     1.0000 0.75580  0.00810  0.32040  Biso   1.000  C
  H317     1.0000 0.72200  0.01350  0.32970  Biso   1.000  H
  Cl159    1.0000 0.77610  0.01810  0.41800  Biso   1.000  Cl
  H318     1.0000 0.78520  0.01340  0.38970  Biso   1.000  H
  Cl160    1.0000 0.77830  0.94010  0.40550  Biso   1.000  Cl
  H319     1.0000 0.79590  0.95340  0.38050  Biso   1.000  H
  C319     1.0000 0.79930  0.97510  0.35220  Biso   1.000  C
  C320     1.0000 0.76300  0.97580  0.31450  Biso   1.000  C
  H320     1.0000 0.73240  0.95880  0.32010  Biso   1.000  H
  C321     1.0000 0.49220  0.35540  0.70600  Biso   1.000  C
  C322     1.0000 0.49190  0.32040  0.74420  Biso   1.000  C
  H321     1.0000 0.48650  0.32970  0.77800  Biso   1.000  H
  Cl161    1.0000 0.48190  0.41800  0.72390  Biso   1.000  Cl
  H322     1.0000 0.48660  0.38970  0.71480  Biso   1.000  H
  Cl162    1.0000 0.55990  0.40550  0.72170  Biso   1.000  Cl
  H323     1.0000 0.54660  0.38050  0.70410  Biso   1.000  H
  C323     1.0000 0.52490  0.35220  0.70070  Biso   1.000  C
  C324     1.0000 0.52420  0.31450  0.73700  Biso   1.000  C
  H324     1.0000 0.54120  0.32010  0.76760  Biso   1.000  H
  C325     1.0000 0.49220  0.85540  0.20600  Biso   1.000  C
  C326     1.0000 0.49190  0.82040  0.24420  Biso   1.000  C
  H325     1.0000 0.48650  0.82970  0.27800  Biso   1.000  H
  Cl163    1.0000 0.48190  0.91800  0.22390  Biso   1.000  Cl
  H326     1.0000 0.48660  0.88970  0.21480  Biso   1.000  H
  Cl164    1.0000 0.55990  0.90550  0.22170  Biso   1.000  Cl
  H327     1.0000 0.54660  0.88050  0.20410  Biso   1.000  H
  C327     1.0000 0.52490  0.85220  0.20070  Biso   1.000  C
  C328     1.0000 0.52420  0.81450  0.23700  Biso   1.000  C
  H328     1.0000 0.54120  0.82010  0.26760  Biso   1.000  H
  C329     1.0000 0.99220  0.35540  0.20600  Biso   1.000  C
  C330     1.0000 0.99190  0.32040  0.24420  Biso   1.000  C
  H329     1.0000 0.98650  0.32970  0.27800  Biso   1.000  H
  Cl165    1.0000 0.98190  0.41800  0.22390  Biso   1.000  Cl
  H330     1.0000 0.98660  0.38970  0.21480  Biso   1.000  H
  Cl166    1.0000 0.05990  0.40550  0.22170  Biso   1.000  Cl
  H331     1.0000 0.04660  0.38050  0.20410  Biso   1.000  H
  C331     1.0000 0.02490  0.35220  0.20070  Biso   1.000  C
  C332     1.0000 0.02420  0.31450  0.23700  Biso   1.000  C
  H332     1.0000 0.04120  0.32010  0.26760  Biso   1.000  H
  C333     1.0000 0.99220  0.85540  0.70600  Biso   1.000  C
  C334     1.0000 0.99190  0.82040  0.74420  Biso   1.000  C
  H333     1.0000 0.98650  0.82970  0.77800  Biso   1.000  H
  Cl167    1.0000 0.98190  0.91800  0.72390  Biso   1.000  Cl
  H334     1.0000 0.98660  0.88970  0.71480  Biso   1.000  H
  Cl168    1.0000 0.05990  0.90550  0.72170  Biso   1.000  Cl
  H335     1.0000 0.04660  0.88050  0.70410  Biso   1.000  H
  C335     1.0000 0.02490  0.85220  0.70070  Biso   1.000  C
  C336     1.0000 0.02420  0.81450  0.73700  Biso   1.000  C
  H336     1.0000 0.04120  0.82010  0.76760  Biso   1.000  H
  C337     1.0000 0.49220  0.64460  0.29400  Biso   1.000  C
  C338     1.0000 0.49190  0.67960  0.25580  Biso   1.000  C
  H337     1.0000 0.48650  0.67030  0.22200  Biso   1.000  H
  Cl169    1.0000 0.48190  0.58200  0.27610  Biso   1.000  Cl
  H338     1.0000 0.48660  0.61030  0.28520  Biso   1.000  H
  Cl170    1.0000 0.55990  0.59450  0.27830  Biso   1.000  Cl
  H339     1.0000 0.54660  0.61950  0.29590  Biso   1.000  H
  C339     1.0000 0.52490  0.64780  0.29930  Biso   1.000  C
  C340     1.0000 0.52420  0.68550  0.26300  Biso   1.000  C
  H340     1.0000 0.54120  0.67990  0.23240  Biso   1.000  H
  C341     1.0000 0.49220  0.14460  0.79400  Biso   1.000  C
  C342     1.0000 0.49190  0.17960  0.75580  Biso   1.000  C
  H341     1.0000 0.48650  0.17030  0.72200  Biso   1.000  H
  Cl171    1.0000 0.48190  0.08200  0.77610  Biso   1.000  Cl
  H342     1.0000 0.48660  0.11030  0.78520  Biso   1.000  H
  Cl172    1.0000 0.55990  0.09450  0.77830  Biso   1.000  Cl
  H343     1.0000 0.54660  0.11950  0.79590  Biso   1.000  H
  C343     1.0000 0.52490  0.14780  0.79930  Biso   1.000  C
  C344     1.0000 0.52420  0.18550  0.76300  Biso   1.000  C
  H344     1.0000 0.54120  0.17990  0.73240  Biso   1.000  H
  C345     1.0000 0.99220  0.64460  0.79400  Biso   1.000  C
  C346     1.0000 0.99190  0.67960  0.75580  Biso   1.000  C
  H345     1.0000 0.98650  0.67030  0.72200  Biso   1.000  H
  Cl173    1.0000 0.98190  0.58200  0.77610  Biso   1.000  Cl
  H346     1.0000 0.98660  0.61030  0.78520  Biso   1.000  H
  Cl174    1.0000 0.05990  0.59450  0.77830  Biso   1.000  Cl
  H347     1.0000 0.04660  0.61950  0.79590  Biso   1.000  H
  C347     1.0000 0.02490  0.64780  0.79930  Biso   1.000  C
  C348     1.0000 0.02420  0.68550  0.76300  Biso   1.000  C
  H348     1.0000 0.04120  0.67990  0.73240  Biso   1.000  H
  C349     1.0000 0.99220  0.14460  0.29400  Biso   1.000  C
  C350     1.0000 0.99190  0.17960  0.25580  Biso   1.000  C
  H349     1.0000 0.98650  0.17030  0.22200  Biso   1.000  H
  Cl175    1.0000 0.98190  0.08200  0.27610  Biso   1.000  Cl
  H350     1.0000 0.98660  0.11030  0.28520  Biso   1.000  H
  Cl176    1.0000 0.05990  0.09450  0.27830  Biso   1.000  Cl
  H351     1.0000 0.04660  0.11950  0.29590  Biso   1.000  H
  C351     1.0000 0.02490  0.14780  0.29930  Biso   1.000  C
  C352     1.0000 0.02420  0.18550  0.26300  Biso   1.000  C
  H352     1.0000 0.04120  0.17990  0.23240  Biso   1.000  H
  C353     1.0000 0.50780  0.35540  0.29400  Biso   1.000  C
  C354     1.0000 0.50810  0.32040  0.25580  Biso   1.000  C
  H353     1.0000 0.51350  0.32970  0.22200  Biso   1.000  H
  Cl177    1.0000 0.51810  0.41800  0.27610  Biso   1.000  Cl
  H354     1.0000 0.51340  0.38970  0.28520  Biso   1.000  H
  Cl178    1.0000 0.44010  0.40550  0.27830  Biso   1.000  Cl
  H355     1.0000 0.45340  0.38050  0.29590  Biso   1.000  H
  C355     1.0000 0.47510  0.35220  0.29930  Biso   1.000  C
  C356     1.0000 0.47580  0.31450  0.26300  Biso   1.000  C
  H356     1.0000 0.45880  0.32010  0.23240  Biso   1.000  H
  C357     1.0000 0.50780  0.85540  0.79400  Biso   1.000  C
  C358     1.0000 0.50810  0.82040  0.75580  Biso   1.000  C
  H357     1.0000 0.51350  0.82970  0.72200  Biso   1.000  H
  Cl179    1.0000 0.51810  0.91800  0.77610  Biso   1.000  Cl
  H358     1.0000 0.51340  0.88970  0.78520  Biso   1.000  H
  Cl180    1.0000 0.44010  0.90550  0.77830  Biso   1.000  Cl
  H359     1.0000 0.45340  0.88050  0.79590  Biso   1.000  H
  C359     1.0000 0.47510  0.85220  0.79930  Biso   1.000  C
  C360     1.0000 0.47580  0.81450  0.76300  Biso   1.000  C
  H360     1.0000 0.45880  0.82010  0.73240  Biso   1.000  H
  C361     1.0000 0.00780  0.35540  0.79400  Biso   1.000  C
  C362     1.0000 0.00810  0.32040  0.75580  Biso   1.000  C
  H361     1.0000 0.01350  0.32970  0.72200  Biso   1.000  H
  Cl181    1.0000 0.01810  0.41800  0.77610  Biso   1.000  Cl
  H362     1.0000 0.01340  0.38970  0.78520  Biso   1.000  H
  Cl182    1.0000 0.94010  0.40550  0.77830  Biso   1.000  Cl
  H363     1.0000 0.95340  0.38050  0.79590  Biso   1.000  H
  C363     1.0000 0.97510  0.35220  0.79930  Biso   1.000  C
  C364     1.0000 0.97580  0.31450  0.76300  Biso   1.000  C
  H364     1.0000 0.95880  0.32010  0.73240  Biso   1.000  H
  C365     1.0000 0.00780  0.85540  0.29400  Biso   1.000  C
  C366     1.0000 0.00810  0.82040  0.25580  Biso   1.000  C
  H365     1.0000 0.01350  0.82970  0.22200  Biso   1.000  H
  Cl183    1.0000 0.01810  0.91800  0.27610  Biso   1.000  Cl
  H366     1.0000 0.01340  0.88970  0.28520  Biso   1.000  H
  Cl184    1.0000 0.94010  0.90550  0.27830  Biso   1.000  Cl
  H367     1.0000 0.95340  0.88050  0.29590  Biso   1.000  H
  C367     1.0000 0.97510  0.85220  0.29930  Biso   1.000  C
  C368     1.0000 0.97580  0.81450  0.26300  Biso   1.000  C
  H368     1.0000 0.95880  0.82010  0.23240  Biso   1.000  H
  C369     1.0000 0.50780  0.64460  0.70600  Biso   1.000  C
  C370     1.0000 0.50810  0.67960  0.74420  Biso   1.000  C
  H369     1.0000 0.51350  0.67030  0.77800  Biso   1.000  H
  Cl185    1.0000 0.51810  0.58200  0.72390  Biso   1.000  Cl
  H370     1.0000 0.51340  0.61030  0.71480  Biso   1.000  H
  Cl186    1.0000 0.44010  0.59450  0.72170  Biso   1.000  Cl
  H371     1.0000 0.45340  0.61950  0.70410  Biso   1.000  H
  C371     1.0000 0.47510  0.64780  0.70070  Biso   1.000  C
  C372     1.0000 0.47580  0.68550  0.73700  Biso   1.000  C
  H372     1.0000 0.45880  0.67990  0.76760  Biso   1.000  H
  C373     1.0000 0.50780  0.14460  0.20600  Biso   1.000  C
  C374     1.0000 0.50810  0.17960  0.24420  Biso   1.000  C
  H373     1.0000 0.51350  0.17030  0.27800  Biso   1.000  H
  Cl187    1.0000 0.51810  0.08200  0.22390  Biso   1.000  Cl
  H374     1.0000 0.51340  0.11030  0.21480  Biso   1.000  H
  Cl188    1.0000 0.44010  0.09450  0.22170  Biso   1.000  Cl
  H375     1.0000 0.45340  0.11950  0.20410  Biso   1.000  H
  C375     1.0000 0.47510  0.14780  0.20070  Biso   1.000  C
  C376     1.0000 0.47580  0.18550  0.23700  Biso   1.000  C
  H376     1.0000 0.45880  0.17990  0.26760  Biso   1.000  H
  C377     1.0000 0.00780  0.64460  0.20600  Biso   1.000  C
  C378     1.0000 0.00810  0.67960  0.24420  Biso   1.000  C
  H377     1.0000 0.01350  0.67030  0.27800  Biso   1.000  H
  Cl189    1.0000 0.01810  0.58200  0.22390  Biso   1.000  Cl
  H378     1.0000 0.01340  0.61030  0.21480  Biso   1.000  H
  Cl190    1.0000 0.94010  0.59450  0.22170  Biso   1.000  Cl
  H379     1.0000 0.95340  0.61950  0.20410  Biso   1.000  H
  C379     1.0000 0.97510  0.64780  0.20070  Biso   1.000  C
  C380     1.0000 0.97580  0.68550  0.23700  Biso   1.000  C
  H380     1.0000 0.95880  0.67990  0.26760  Biso   1.000  H
  C381     1.0000 0.00780  0.14460  0.70600  Biso   1.000  C
  C382     1.0000 0.00810  0.17960  0.74420  Biso   1.000  C
  H381     1.0000 0.01350  0.17030  0.77800  Biso   1.000  H
  Cl191    1.0000 0.01810  0.08200  0.72390  Biso   1.000  Cl
  H382     1.0000 0.01340  0.11030  0.71480  Biso   1.000  H
  Cl192    1.0000 0.94010  0.09450  0.72170  Biso   1.000  Cl
  H383     1.0000 0.95340  0.11950  0.70410  Biso   1.000  H
  C383     1.0000 0.97510  0.14780  0.70070  Biso   1.000  C
  C384     1.0000 0.97580  0.18550  0.73700  Biso   1.000  C
  H384     1.0000 0.95880  0.17990  0.76760  Biso   1.000  H
  C385     1.0000 0.70600  0.64460  0.50780  Biso   1.000  C
  C386     1.0000 0.74420  0.67960  0.50810  Biso   1.000  C
  H385     1.0000 0.77800  0.67030  0.51350  Biso   1.000  H
  Cl193    1.0000 0.72390  0.58200  0.51810  Biso   1.000  Cl
  H386     1.0000 0.71480  0.61030  0.51340  Biso   1.000  H
  Cl194    1.0000 0.72170  0.59450  0.44010  Biso   1.000  Cl
  H387     1.0000 0.70410  0.61950  0.45340  Biso   1.000  H
  C387     1.0000 0.70070  0.64780  0.47510  Biso   1.000  C
  C388     1.0000 0.73700  0.68550  0.47580  Biso   1.000  C
  H388     1.0000 0.76760  0.67990  0.45880  Biso   1.000  H
  C389     1.0000 0.70600  0.14460  0.00780  Biso   1.000  C
  C390     1.0000 0.74420  0.17960  0.00810  Biso   1.000  C
  H389     1.0000 0.77800  0.17030  0.01350  Biso   1.000  H
  Cl195    1.0000 0.72390  0.08200  0.01810  Biso   1.000  Cl
  H390     1.0000 0.71480  0.11030  0.01340  Biso   1.000  H
  Cl196    1.0000 0.72170  0.09450  0.94010  Biso   1.000  Cl
  H391     1.0000 0.70410  0.11950  0.95340  Biso   1.000  H
  C391     1.0000 0.70070  0.14780  0.97510  Biso   1.000  C
  C392     1.0000 0.73700  0.18550  0.97580  Biso   1.000  C
  H392     1.0000 0.76760  0.17990  0.95880  Biso   1.000  H
  C393     1.0000 0.20600  0.64460  0.00780  Biso   1.000  C
  C394     1.0000 0.24420  0.67960  0.00810  Biso   1.000  C
  H393     1.0000 0.27800  0.67030  0.01350  Biso   1.000  H
  Cl197    1.0000 0.22390  0.58200  0.01810  Biso   1.000  Cl
  H394     1.0000 0.21480  0.61030  0.01340  Biso   1.000  H
  Cl198    1.0000 0.22170  0.59450  0.94010  Biso   1.000  Cl
  H395     1.0000 0.20410  0.61950  0.95340  Biso   1.000  H
  C395     1.0000 0.20070  0.64780  0.97510  Biso   1.000  C
  C396     1.0000 0.23700  0.68550  0.97580  Biso   1.000  C
  H396     1.0000 0.26760  0.67990  0.95880  Biso   1.000  H
  C397     1.0000 0.20600  0.14460  0.50780  Biso   1.000  C
  C398     1.0000 0.24420  0.17960  0.50810  Biso   1.000  C
  H397     1.0000 0.27800  0.17030  0.51350  Biso   1.000  H
  Cl199    1.0000 0.22390  0.08200  0.51810  Biso   1.000  Cl
  H398     1.0000 0.21480  0.11030  0.51340  Biso   1.000  H
  Cl200    1.0000 0.22170  0.09450  0.44010  Biso   1.000  Cl
  H399     1.0000 0.20410  0.11950  0.45340  Biso   1.000  H
  C399     1.0000 0.20070  0.14780  0.47510  Biso   1.000  C
  C400     1.0000 0.23700  0.18550  0.47580  Biso   1.000  C
  H400     1.0000 0.26760  0.17990  0.45880  Biso   1.000  H
  C401     1.0000 0.29400  0.35540  0.50780  Biso   1.000  C
  C402     1.0000 0.25580  0.32040  0.50810  Biso   1.000  C
  H401     1.0000 0.22200  0.32970  0.51350  Biso   1.000  H
  Cl201    1.0000 0.27610  0.41800  0.51810  Biso   1.000  Cl
  H402     1.0000 0.28520  0.38970  0.51340  Biso   1.000  H
  Cl202    1.0000 0.27830  0.40550  0.44010  Biso   1.000  Cl
  H403     1.0000 0.29590  0.38050  0.45340  Biso   1.000  H
  C403     1.0000 0.29930  0.35220  0.47510  Biso   1.000  C
  C404     1.0000 0.26300  0.31450  0.47580  Biso   1.000  C
  H404     1.0000 0.23240  0.32010  0.45880  Biso   1.000  H
  C405     1.0000 0.29400  0.85540  0.00780  Biso   1.000  C
  C406     1.0000 0.25580  0.82040  0.00810  Biso   1.000  C
  H405     1.0000 0.22200  0.82970  0.01350  Biso   1.000  H
  Cl203    1.0000 0.27610  0.91800  0.01810  Biso   1.000  Cl
  H406     1.0000 0.28520  0.88970  0.01340  Biso   1.000  H
  Cl204    1.0000 0.27830  0.90550  0.94010  Biso   1.000  Cl
  H407     1.0000 0.29590  0.88050  0.95340  Biso   1.000  H
  C407     1.0000 0.29930  0.85220  0.97510  Biso   1.000  C
  C408     1.0000 0.26300  0.81450  0.97580  Biso   1.000  C
  H408     1.0000 0.23240  0.82010  0.95880  Biso   1.000  H
  C409     1.0000 0.79400  0.35540  0.00780  Biso   1.000  C
  C410     1.0000 0.75580  0.32040  0.00810  Biso   1.000  C
  H409     1.0000 0.72200  0.32970  0.01350  Biso   1.000  H
  Cl205    1.0000 0.77610  0.41800  0.01810  Biso   1.000  Cl
  H410     1.0000 0.78520  0.38970  0.01340  Biso   1.000  H
  Cl206    1.0000 0.77830  0.40550  0.94010  Biso   1.000  Cl
  H411     1.0000 0.79590  0.38050  0.95340  Biso   1.000  H
  C411     1.0000 0.79930  0.35220  0.97510  Biso   1.000  C
  C412     1.0000 0.76300  0.31450  0.97580  Biso   1.000  C
  H412     1.0000 0.73240  0.32010  0.95880  Biso   1.000  H
  C413     1.0000 0.79400  0.85540  0.50780  Biso   1.000  C
  C414     1.0000 0.75580  0.82040  0.50810  Biso   1.000  C
  H413     1.0000 0.72200  0.82970  0.51350  Biso   1.000  H
  Cl207    1.0000 0.77610  0.91800  0.51810  Biso   1.000  Cl
  H414     1.0000 0.78520  0.88970  0.51340  Biso   1.000  H
  Cl208    1.0000 0.77830  0.90550  0.44010  Biso   1.000  Cl
  H415     1.0000 0.79590  0.88050  0.45340  Biso   1.000  H
  C415     1.0000 0.79930  0.85220  0.47510  Biso   1.000  C
  C416     1.0000 0.76300  0.81450  0.47580  Biso   1.000  C
  H416     1.0000 0.73240  0.82010  0.45880  Biso   1.000  H
  C417     1.0000 0.29400  0.64460  0.49220  Biso   1.000  C
  C418     1.0000 0.25580  0.67960  0.49190  Biso   1.000  C
  H417     1.0000 0.22200  0.67030  0.48650  Biso   1.000  H
  Cl209    1.0000 0.27610  0.58200  0.48190  Biso   1.000  Cl
  H418     1.0000 0.28520  0.61030  0.48660  Biso   1.000  H
  Cl210    1.0000 0.27830  0.59450  0.55990  Biso   1.000  Cl
  H419     1.0000 0.29590  0.61950  0.54660  Biso   1.000  H
  C419     1.0000 0.29930  0.64780  0.52490  Biso   1.000  C
  C420     1.0000 0.26300  0.68550  0.52420  Biso   1.000  C
  H420     1.0000 0.23240  0.67990  0.54120  Biso   1.000  H
  C421     1.0000 0.29400  0.14460  0.99220  Biso   1.000  C
  C422     1.0000 0.25580  0.17960  0.99190  Biso   1.000  C
  H421     1.0000 0.22200  0.17030  0.98650  Biso   1.000  H
  Cl211    1.0000 0.27610  0.08200  0.98190  Biso   1.000  Cl
  H422     1.0000 0.28520  0.11030  0.98660  Biso   1.000  H
  Cl212    1.0000 0.27830  0.09450  0.05990  Biso   1.000  Cl
  H423     1.0000 0.29590  0.11950  0.04660  Biso   1.000  H
  C423     1.0000 0.29930  0.14780  0.02490  Biso   1.000  C
  C424     1.0000 0.26300  0.18550  0.02420  Biso   1.000  C
  H424     1.0000 0.23240  0.17990  0.04120  Biso   1.000  H
  C425     1.0000 0.79400  0.64460  0.99220  Biso   1.000  C
  C426     1.0000 0.75580  0.67960  0.99190  Biso   1.000  C
  H425     1.0000 0.72200  0.67030  0.98650  Biso   1.000  H
  Cl213    1.0000 0.77610  0.58200  0.98190  Biso   1.000  Cl
  H426     1.0000 0.78520  0.61030  0.98660  Biso   1.000  H
  Cl214    1.0000 0.77830  0.59450  0.05990  Biso   1.000  Cl
  H427     1.0000 0.79590  0.61950  0.04660  Biso   1.000  H
  C427     1.0000 0.79930  0.64780  0.02490  Biso   1.000  C
  C428     1.0000 0.76300  0.68550  0.02420  Biso   1.000  C
  H428     1.0000 0.73240  0.67990  0.04120  Biso   1.000  H
  C429     1.0000 0.79400  0.14460  0.49220  Biso   1.000  C
  C430     1.0000 0.75580  0.17960  0.49190  Biso   1.000  C
  H429     1.0000 0.72200  0.17030  0.48650  Biso   1.000  H
  Cl215    1.0000 0.77610  0.08200  0.48190  Biso   1.000  Cl
  H430     1.0000 0.78520  0.11030  0.48660  Biso   1.000  H
  Cl216    1.0000 0.77830  0.09450  0.55990  Biso   1.000  Cl
  H431     1.0000 0.79590  0.11950  0.54660  Biso   1.000  H
  C431     1.0000 0.79930  0.14780  0.52490  Biso   1.000  C
  C432     1.0000 0.76300  0.18550  0.52420  Biso   1.000  C
  H432     1.0000 0.73240  0.17990  0.54120  Biso   1.000  H
  C433     1.0000 0.70600  0.35540  0.49220  Biso   1.000  C
  C434     1.0000 0.74420  0.32040  0.49190  Biso   1.000  C
  H433     1.0000 0.77800  0.32970  0.48650  Biso   1.000  H
  Cl217    1.0000 0.72390  0.41800  0.48190  Biso   1.000  Cl
  H434     1.0000 0.71480  0.38970  0.48660  Biso   1.000  H
  Cl218    1.0000 0.72170  0.40550  0.55990  Biso   1.000  Cl
  H435     1.0000 0.70410  0.38050  0.54660  Biso   1.000  H
  C435     1.0000 0.70070  0.35220  0.52490  Biso   1.000  C
  C436     1.0000 0.73700  0.31450  0.52420  Biso   1.000  C
  H436     1.0000 0.76760  0.32010  0.54120  Biso   1.000  H
  C437     1.0000 0.70600  0.85540  0.99220  Biso   1.000  C
  C438     1.0000 0.74420  0.82040  0.99190  Biso   1.000  C
  H437     1.0000 0.77800  0.82970  0.98650  Biso   1.000  H
  Cl219    1.0000 0.72390  0.91800  0.98190  Biso   1.000  Cl
  H438     1.0000 0.71480  0.88970  0.98660  Biso   1.000  H
  Cl220    1.0000 0.72170  0.90550  0.05990  Biso   1.000  Cl
  H439     1.0000 0.70410  0.88050  0.04660  Biso   1.000  H
  C439     1.0000 0.70070  0.85220  0.02490  Biso   1.000  C
  C440     1.0000 0.73700  0.81450  0.02420  Biso   1.000  C
  H440     1.0000 0.76760  0.82010  0.04120  Biso   1.000  H
  C441     1.0000 0.20600  0.35540  0.99220  Biso   1.000  C
  C442     1.0000 0.24420  0.32040  0.99190  Biso   1.000  C
  H441     1.0000 0.27800  0.32970  0.98650  Biso   1.000  H
  Cl221    1.0000 0.22390  0.41800  0.98190  Biso   1.000  Cl
  H442     1.0000 0.21480  0.38970  0.98660  Biso   1.000  H
  Cl222    1.0000 0.22170  0.40550  0.05990  Biso   1.000  Cl
  H443     1.0000 0.20410  0.38050  0.04660  Biso   1.000  H
  C443     1.0000 0.20070  0.35220  0.02490  Biso   1.000  C
  C444     1.0000 0.23700  0.31450  0.02420  Biso   1.000  C
  H444     1.0000 0.26760  0.32010  0.04120  Biso   1.000  H
  C445     1.0000 0.20600  0.85540  0.49220  Biso   1.000  C
  C446     1.0000 0.24420  0.82040  0.49190  Biso   1.000  C
  H445     1.0000 0.27800  0.82970  0.48650  Biso   1.000  H
  Cl223    1.0000 0.22390  0.91800  0.48190  Biso   1.000  Cl
  H446     1.0000 0.21480  0.88970  0.48660  Biso   1.000  H
  Cl224    1.0000 0.22170  0.90550  0.55990  Biso   1.000  Cl
  H447     1.0000 0.20410  0.88050  0.54660  Biso   1.000  H
  C447     1.0000 0.20070  0.85220  0.52490  Biso   1.000  C
  C448     1.0000 0.23700  0.81450  0.52420  Biso   1.000  C
  H448     1.0000 0.26760  0.82010  0.54120  Biso   1.000  H
  C449     1.0000 0.50780  0.70600  0.64460  Biso   1.000  C
  C450     1.0000 0.50810  0.74420  0.67960  Biso   1.000  C
  H449     1.0000 0.51350  0.77800  0.67030  Biso   1.000  H
  Cl225    1.0000 0.51810  0.72390  0.58200  Biso   1.000  Cl
  H450     1.0000 0.51340  0.71480  0.61030  Biso   1.000  H
  Cl226    1.0000 0.44010  0.72170  0.59450  Biso   1.000  Cl
  H451     1.0000 0.45340  0.70410  0.61950  Biso   1.000  H
  C451     1.0000 0.47510  0.70070  0.64780  Biso   1.000  C
  C452     1.0000 0.47580  0.73700  0.68550  Biso   1.000  C
  H452     1.0000 0.45880  0.76760  0.67990  Biso   1.000  H
  C453     1.0000 0.50780  0.20600  0.14460  Biso   1.000  C
  C454     1.0000 0.50810  0.24420  0.17960  Biso   1.000  C
  H453     1.0000 0.51350  0.27800  0.17030  Biso   1.000  H
  Cl227    1.0000 0.51810  0.22390  0.08200  Biso   1.000  Cl
  H454     1.0000 0.51340  0.21480  0.11030  Biso   1.000  H
  Cl228    1.0000 0.44010  0.22170  0.09450  Biso   1.000  Cl
  H455     1.0000 0.45340  0.20410  0.11950  Biso   1.000  H
  C455     1.0000 0.47510  0.20070  0.14780  Biso   1.000  C
  C456     1.0000 0.47580  0.23700  0.18550  Biso   1.000  C
  H456     1.0000 0.45880  0.26760  0.17990  Biso   1.000  H
  C457     1.0000 0.00780  0.70600  0.14460  Biso   1.000  C
  C458     1.0000 0.00810  0.74420  0.17960  Biso   1.000  C
  H457     1.0000 0.01350  0.77800  0.17030  Biso   1.000  H
  Cl229    1.0000 0.01810  0.72390  0.08200  Biso   1.000  Cl
  H458     1.0000 0.01340  0.71480  0.11030  Biso   1.000  H
  Cl230    1.0000 0.94010  0.72170  0.09450  Biso   1.000  Cl
  H459     1.0000 0.95340  0.70410  0.11950  Biso   1.000  H
  C459     1.0000 0.97510  0.70070  0.14780  Biso   1.000  C
  C460     1.0000 0.97580  0.73700  0.18550  Biso   1.000  C
  H460     1.0000 0.95880  0.76760  0.17990  Biso   1.000  H
  C461     1.0000 0.00780  0.20600  0.64460  Biso   1.000  C
  C462     1.0000 0.00810  0.24420  0.67960  Biso   1.000  C
  H461     1.0000 0.01350  0.27800  0.67030  Biso   1.000  H
  Cl231    1.0000 0.01810  0.22390  0.58200  Biso   1.000  Cl
  H462     1.0000 0.01340  0.21480  0.61030  Biso   1.000  H
  Cl232    1.0000 0.94010  0.22170  0.59450  Biso   1.000  Cl
  H463     1.0000 0.95340  0.20410  0.61950  Biso   1.000  H
  C463     1.0000 0.97510  0.20070  0.64780  Biso   1.000  C
  C464     1.0000 0.97580  0.23700  0.68550  Biso   1.000  C
  H464     1.0000 0.95880  0.26760  0.67990  Biso   1.000  H
  C465     1.0000 0.50780  0.29400  0.35540  Biso   1.000  C
  C466     1.0000 0.50810  0.25580  0.32040  Biso   1.000  C
  H465     1.0000 0.51350  0.22200  0.32970  Biso   1.000  H
  Cl233    1.0000 0.51810  0.27610  0.41800  Biso   1.000  Cl
  H466     1.0000 0.51340  0.28520  0.38970  Biso   1.000  H
  Cl234    1.0000 0.44010  0.27830  0.40550  Biso   1.000  Cl
  H467     1.0000 0.45340  0.29590  0.38050  Biso   1.000  H
  C467     1.0000 0.47510  0.29930  0.35220  Biso   1.000  C
  C468     1.0000 0.47580  0.26300  0.31450  Biso   1.000  C
  H468     1.0000 0.45880  0.23240  0.32010  Biso   1.000  H
  C469     1.0000 0.50780  0.79400  0.85540  Biso   1.000  C
  C470     1.0000 0.50810  0.75580  0.82040  Biso   1.000  C
  H469     1.0000 0.51350  0.72200  0.82970  Biso   1.000  H
  Cl235    1.0000 0.51810  0.77610  0.91800  Biso   1.000  Cl
  H470     1.0000 0.51340  0.78520  0.88970  Biso   1.000  H
  Cl236    1.0000 0.44010  0.77830  0.90550  Biso   1.000  Cl
  H471     1.0000 0.45340  0.79590  0.88050  Biso   1.000  H
  C471     1.0000 0.47510  0.79930  0.85220  Biso   1.000  C
  C472     1.0000 0.47580  0.76300  0.81450  Biso   1.000  C
  H472     1.0000 0.45880  0.73240  0.82010  Biso   1.000  H
  C473     1.0000 0.00780  0.29400  0.85540  Biso   1.000  C
  C474     1.0000 0.00810  0.25580  0.82040  Biso   1.000  C
  H473     1.0000 0.01350  0.22200  0.82970  Biso   1.000  H
  Cl237    1.0000 0.01810  0.27610  0.91800  Biso   1.000  Cl
  H474     1.0000 0.01340  0.28520  0.88970  Biso   1.000  H
  Cl238    1.0000 0.94010  0.27830  0.90550  Biso   1.000  Cl
  H475     1.0000 0.95340  0.29590  0.88050  Biso   1.000  H
  C475     1.0000 0.97510  0.29930  0.85220  Biso   1.000  C
  C476     1.0000 0.97580  0.26300  0.81450  Biso   1.000  C
  H476     1.0000 0.95880  0.23240  0.82010  Biso   1.000  H
  C477     1.0000 0.00780  0.79400  0.35540  Biso   1.000  C
  C478     1.0000 0.00810  0.75580  0.32040  Biso   1.000  C
  H477     1.0000 0.01350  0.72200  0.32970  Biso   1.000  H
  Cl239    1.0000 0.01810  0.77610  0.41800  Biso   1.000  Cl
  H478     1.0000 0.01340  0.78520  0.38970  Biso   1.000  H
  Cl240    1.0000 0.94010  0.77830  0.40550  Biso   1.000  Cl
  H479     1.0000 0.95340  0.79590  0.38050  Biso   1.000  H
  C479     1.0000 0.97510  0.79930  0.35220  Biso   1.000  C
  C480     1.0000 0.97580  0.76300  0.31450  Biso   1.000  C
  H480     1.0000 0.95880  0.73240  0.32010  Biso   1.000  H
  C481     1.0000 0.49220  0.29400  0.64460  Biso   1.000  C
  C482     1.0000 0.49190  0.25580  0.67960  Biso   1.000  C
  H481     1.0000 0.48650  0.22200  0.67030  Biso   1.000  H
  Cl241    1.0000 0.48190  0.27610  0.58200  Biso   1.000  Cl
  H482     1.0000 0.48660  0.28520  0.61030  Biso   1.000  H
  Cl242    1.0000 0.55990  0.27830  0.59450  Biso   1.000  Cl
  H483     1.0000 0.54660  0.29590  0.61950  Biso   1.000  H
  C483     1.0000 0.52490  0.29930  0.64780  Biso   1.000  C
  C484     1.0000 0.52420  0.26300  0.68550  Biso   1.000  C
  H484     1.0000 0.54120  0.23240  0.67990  Biso   1.000  H
  C485     1.0000 0.49220  0.79400  0.14460  Biso   1.000  C
  C486     1.0000 0.49190  0.75580  0.17960  Biso   1.000  C
  H485     1.0000 0.48650  0.72200  0.17030  Biso   1.000  H
  Cl243    1.0000 0.48190  0.77610  0.08200  Biso   1.000  Cl
  H486     1.0000 0.48660  0.78520  0.11030  Biso   1.000  H
  Cl244    1.0000 0.55990  0.77830  0.09450  Biso   1.000  Cl
  H487     1.0000 0.54660  0.79590  0.11950  Biso   1.000  H
  C487     1.0000 0.52490  0.79930  0.14780  Biso   1.000  C
  C488     1.0000 0.52420  0.76300  0.18550  Biso   1.000  C
  H488     1.0000 0.54120  0.73240  0.17990  Biso   1.000  H
  C489     1.0000 0.99220  0.29400  0.14460  Biso   1.000  C
  C490     1.0000 0.99190  0.25580  0.17960  Biso   1.000  C
  H489     1.0000 0.98650  0.22200  0.17030  Biso   1.000  H
  Cl245    1.0000 0.98190  0.27610  0.08200  Biso   1.000  Cl
  H490     1.0000 0.98660  0.28520  0.11030  Biso   1.000  H
  Cl246    1.0000 0.05990  0.27830  0.09450  Biso   1.000  Cl
  H491     1.0000 0.04660  0.29590  0.11950  Biso   1.000  H
  C491     1.0000 0.02490  0.29930  0.14780  Biso   1.000  C
  C492     1.0000 0.02420  0.26300  0.18550  Biso   1.000  C
  H492     1.0000 0.04120  0.23240  0.17990  Biso   1.000  H
  C493     1.0000 0.99220  0.79400  0.64460  Biso   1.000  C
  C494     1.0000 0.99190  0.75580  0.67960  Biso   1.000  C
  H493     1.0000 0.98650  0.72200  0.67030  Biso   1.000  H
  Cl247    1.0000 0.98190  0.77610  0.58200  Biso   1.000  Cl
  H494     1.0000 0.98660  0.78520  0.61030  Biso   1.000  H
  Cl248    1.0000 0.05990  0.77830  0.59450  Biso   1.000  Cl
  H495     1.0000 0.04660  0.79590  0.61950  Biso   1.000  H
  C495     1.0000 0.02490  0.79930  0.64780  Biso   1.000  C
  C496     1.0000 0.02420  0.76300  0.68550  Biso   1.000  C
  H496     1.0000 0.04120  0.73240  0.67990  Biso   1.000  H
  C497     1.0000 0.49220  0.70600  0.35540  Biso   1.000  C
  C498     1.0000 0.49190  0.74420  0.32040  Biso   1.000  C
  H497     1.0000 0.48650  0.77800  0.32970  Biso   1.000  H
  Cl249    1.0000 0.48190  0.72390  0.41800  Biso   1.000  Cl
  H498     1.0000 0.48660  0.71480  0.38970  Biso   1.000  H
  Cl250    1.0000 0.55990  0.72170  0.40550  Biso   1.000  Cl
  H499     1.0000 0.54660  0.70410  0.38050  Biso   1.000  H
  C499     1.0000 0.52490  0.70070  0.35220  Biso   1.000  C
  C500     1.0000 0.52420  0.73700  0.31450  Biso   1.000  C
  H500     1.0000 0.54120  0.76760  0.32010  Biso   1.000  H
  C501     1.0000 0.49220  0.20600  0.85540  Biso   1.000  C
  C502     1.0000 0.49190  0.24420  0.82040  Biso   1.000  C
  H501     1.0000 0.48650  0.27800  0.82970  Biso   1.000  H
  Cl251    1.0000 0.48190  0.22390  0.91800  Biso   1.000  Cl
  H502     1.0000 0.48660  0.21480  0.88970  Biso   1.000  H
  Cl252    1.0000 0.55990  0.22170  0.90550  Biso   1.000  Cl
  H503     1.0000 0.54660  0.20410  0.88050  Biso   1.000  H
  C503     1.0000 0.52490  0.20070  0.85220  Biso   1.000  C
  C504     1.0000 0.52420  0.23700  0.81450  Biso   1.000  C
  H504     1.0000 0.54120  0.26760  0.82010  Biso   1.000  H
  C505     1.0000 0.99220  0.70600  0.85540  Biso   1.000  C
  C506     1.0000 0.99190  0.74420  0.82040  Biso   1.000  C
  H505     1.0000 0.98650  0.77800  0.82970  Biso   1.000  H
  Cl253    1.0000 0.98190  0.72390  0.91800  Biso   1.000  Cl
  H506     1.0000 0.98660  0.71480  0.88970  Biso   1.000  H
  Cl254    1.0000 0.05990  0.72170  0.90550  Biso   1.000  Cl
  H507     1.0000 0.04660  0.70410  0.88050  Biso   1.000  H
  C507     1.0000 0.02490  0.70070  0.85220  Biso   1.000  C
  C508     1.0000 0.02420  0.73700  0.81450  Biso   1.000  C
  H508     1.0000 0.04120  0.76760  0.82010  Biso   1.000  H
  C509     1.0000 0.99220  0.20600  0.35540  Biso   1.000  C
  C510     1.0000 0.99190  0.24420  0.32040  Biso   1.000  C
  H509     1.0000 0.98650  0.27800  0.32970  Biso   1.000  H
  Cl255    1.0000 0.98190  0.22390  0.41800  Biso   1.000  Cl
  H510     1.0000 0.98660  0.21480  0.38970  Biso   1.000  H
  Cl256    1.0000 0.05990  0.22170  0.40550  Biso   1.000  Cl
  H511     1.0000 0.04660  0.20410  0.38050  Biso   1.000  H
  C511     1.0000 0.02490  0.20070  0.35220  Biso   1.000  C
  C512     1.0000 0.02420  0.23700  0.31450  Biso   1.000  C
  H512     1.0000 0.04120  0.26760  0.32010  Biso   1.000  H
  C513     1.0000 0.64460  0.50780  0.70600  Biso   1.000  C
  C514     1.0000 0.67960  0.50810  0.74420  Biso   1.000  C
  H513     1.0000 0.67030  0.51350  0.77800  Biso   1.000  H
  Cl257    1.0000 0.58200  0.51810  0.72390  Biso   1.000  Cl
  H514     1.0000 0.61030  0.51340  0.71480  Biso   1.000  H
  Cl258    1.0000 0.59450  0.44010  0.72170  Biso   1.000  Cl
  H515     1.0000 0.61950  0.45340  0.70410  Biso   1.000  H
  C515     1.0000 0.64780  0.47510  0.70070  Biso   1.000  C
  C516     1.0000 0.68550  0.47580  0.73700  Biso   1.000  C
  H516     1.0000 0.67990  0.45880  0.76760  Biso   1.000  H
  C517     1.0000 0.64460  0.00780  0.20600  Biso   1.000  C
  C518     1.0000 0.67960  0.00810  0.24420  Biso   1.000  C
  H517     1.0000 0.67030  0.01350  0.27800  Biso   1.000  H
  Cl259    1.0000 0.58200  0.01810  0.22390  Biso   1.000  Cl
  H518     1.0000 0.61030  0.01340  0.21480  Biso   1.000  H
  Cl260    1.0000 0.59450  0.94010  0.22170  Biso   1.000  Cl
  H519     1.0000 0.61950  0.95340  0.20410  Biso   1.000  H
  C519     1.0000 0.64780  0.97510  0.20070  Biso   1.000  C
  C520     1.0000 0.68550  0.97580  0.23700  Biso   1.000  C
  H520     1.0000 0.67990  0.95880  0.26760  Biso   1.000  H
  C521     1.0000 0.14460  0.50780  0.20600  Biso   1.000  C
  C522     1.0000 0.17960  0.50810  0.24420  Biso   1.000  C
  H521     1.0000 0.17030  0.51350  0.27800  Biso   1.000  H
  Cl261    1.0000 0.08200  0.51810  0.22390  Biso   1.000  Cl
  H522     1.0000 0.11030  0.51340  0.21480  Biso   1.000  H
  Cl262    1.0000 0.09450  0.44010  0.22170  Biso   1.000  Cl
  H523     1.0000 0.11950  0.45340  0.20410  Biso   1.000  H
  C523     1.0000 0.14780  0.47510  0.20070  Biso   1.000  C
  C524     1.0000 0.18550  0.47580  0.23700  Biso   1.000  C
  H524     1.0000 0.17990  0.45880  0.26760  Biso   1.000  H
  C525     1.0000 0.14460  0.00780  0.70600  Biso   1.000  C
  C526     1.0000 0.17960  0.00810  0.74420  Biso   1.000  C
  H525     1.0000 0.17030  0.01350  0.77800  Biso   1.000  H
  Cl263    1.0000 0.08200  0.01810  0.72390  Biso   1.000  Cl
  H526     1.0000 0.11030  0.01340  0.71480  Biso   1.000  H
  Cl264    1.0000 0.09450  0.94010  0.72170  Biso   1.000  Cl
  H527     1.0000 0.11950  0.95340  0.70410  Biso   1.000  H
  C527     1.0000 0.14780  0.97510  0.70070  Biso   1.000  C
  C528     1.0000 0.18550  0.97580  0.73700  Biso   1.000  C
  H528     1.0000 0.17990  0.95880  0.76760  Biso   1.000  H
  C529     1.0000 0.35540  0.50780  0.29400  Biso   1.000  C
  C530     1.0000 0.32040  0.50810  0.25580  Biso   1.000  C
  H529     1.0000 0.32970  0.51350  0.22200  Biso   1.000  H
  Cl265    1.0000 0.41800  0.51810  0.27610  Biso   1.000  Cl
  H530     1.0000 0.38970  0.51340  0.28520  Biso   1.000  H
  Cl266    1.0000 0.40550  0.44010  0.27830  Biso   1.000  Cl
  H531     1.0000 0.38050  0.45340  0.29590  Biso   1.000  H
  C531     1.0000 0.35220  0.47510  0.29930  Biso   1.000  C
  C532     1.0000 0.31450  0.47580  0.26300  Biso   1.000  C
  H532     1.0000 0.32010  0.45880  0.23240  Biso   1.000  H
  C533     1.0000 0.35540  0.00780  0.79400  Biso   1.000  C
  C534     1.0000 0.32040  0.00810  0.75580  Biso   1.000  C
  H533     1.0000 0.32970  0.01350  0.72200  Biso   1.000  H
  Cl267    1.0000 0.41800  0.01810  0.77610  Biso   1.000  Cl
  H534     1.0000 0.38970  0.01340  0.78520  Biso   1.000  H
  Cl268    1.0000 0.40550  0.94010  0.77830  Biso   1.000  Cl
  H535     1.0000 0.38050  0.95340  0.79590  Biso   1.000  H
  C535     1.0000 0.35220  0.97510  0.79930  Biso   1.000  C
  C536     1.0000 0.31450  0.97580  0.76300  Biso   1.000  C
  H536     1.0000 0.32010  0.95880  0.73240  Biso   1.000  H
  C537     1.0000 0.85540  0.50780  0.79400  Biso   1.000  C
  C538     1.0000 0.82040  0.50810  0.75580  Biso   1.000  C
  H537     1.0000 0.82970  0.51350  0.72200  Biso   1.000  H
  Cl269    1.0000 0.91800  0.51810  0.77610  Biso   1.000  Cl
  H538     1.0000 0.88970  0.51340  0.78520  Biso   1.000  H
  Cl270    1.0000 0.90550  0.44010  0.77830  Biso   1.000  Cl
  H539     1.0000 0.88050  0.45340  0.79590  Biso   1.000  H
  C539     1.0000 0.85220  0.47510  0.79930  Biso   1.000  C
  C540     1.0000 0.81450  0.47580  0.76300  Biso   1.000  C
  H540     1.0000 0.82010  0.45880  0.73240  Biso   1.000  H
  C541     1.0000 0.85540  0.00780  0.29400  Biso   1.000  C
  C542     1.0000 0.82040  0.00810  0.25580  Biso   1.000  C
  H541     1.0000 0.82970  0.01350  0.22200  Biso   1.000  H
  Cl271    1.0000 0.91800  0.01810  0.27610  Biso   1.000  Cl
  H542     1.0000 0.88970  0.01340  0.28520  Biso   1.000  H
  Cl272    1.0000 0.90550  0.94010  0.27830  Biso   1.000  Cl
  H543     1.0000 0.88050  0.95340  0.29590  Biso   1.000  H
  C543     1.0000 0.85220  0.97510  0.29930  Biso   1.000  C
  C544     1.0000 0.81450  0.97580  0.26300  Biso   1.000  C
  H544     1.0000 0.82010  0.95880  0.23240  Biso   1.000  H
  C545     1.0000 0.64460  0.49220  0.29400  Biso   1.000  C
  C546     1.0000 0.67960  0.49190  0.25580  Biso   1.000  C
  H545     1.0000 0.67030  0.48650  0.22200  Biso   1.000  H
  Cl273    1.0000 0.58200  0.48190  0.27610  Biso   1.000  Cl
  H546     1.0000 0.61030  0.48660  0.28520  Biso   1.000  H
  Cl274    1.0000 0.59450  0.55990  0.27830  Biso   1.000  Cl
  H547     1.0000 0.61950  0.54660  0.29590  Biso   1.000  H
  C547     1.0000 0.64780  0.52490  0.29930  Biso   1.000  C
  C548     1.0000 0.68550  0.52420  0.26300  Biso   1.000  C
  H548     1.0000 0.67990  0.54120  0.23240  Biso   1.000  H
  C549     1.0000 0.64460  0.99220  0.79400  Biso   1.000  C
  C550     1.0000 0.67960  0.99190  0.75580  Biso   1.000  C
  H549     1.0000 0.67030  0.98650  0.72200  Biso   1.000  H
  Cl275    1.0000 0.58200  0.98190  0.77610  Biso   1.000  Cl
  H550     1.0000 0.61030  0.98660  0.78520  Biso   1.000  H
  Cl276    1.0000 0.59450  0.05990  0.77830  Biso   1.000  Cl
  H551     1.0000 0.61950  0.04660  0.79590  Biso   1.000  H
  C551     1.0000 0.64780  0.02490  0.79930  Biso   1.000  C
  C552     1.0000 0.68550  0.02420  0.76300  Biso   1.000  C
  H552     1.0000 0.67990  0.04120  0.73240  Biso   1.000  H
  C553     1.0000 0.14460  0.49220  0.79400  Biso   1.000  C
  C554     1.0000 0.17960  0.49190  0.75580  Biso   1.000  C
  H553     1.0000 0.17030  0.48650  0.72200  Biso   1.000  H
  Cl277    1.0000 0.08200  0.48190  0.77610  Biso   1.000  Cl
  H554     1.0000 0.11030  0.48660  0.78520  Biso   1.000  H
  Cl278    1.0000 0.09450  0.55990  0.77830  Biso   1.000  Cl
  H555     1.0000 0.11950  0.54660  0.79590  Biso   1.000  H
  C555     1.0000 0.14780  0.52490  0.79930  Biso   1.000  C
  C556     1.0000 0.18550  0.52420  0.76300  Biso   1.000  C
  H556     1.0000 0.17990  0.54120  0.73240  Biso   1.000  H
  C557     1.0000 0.14460  0.99220  0.29400  Biso   1.000  C
  C558     1.0000 0.17960  0.99190  0.25580  Biso   1.000  C
  H557     1.0000 0.17030  0.98650  0.22200  Biso   1.000  H
  Cl279    1.0000 0.08200  0.98190  0.27610  Biso   1.000  Cl
  H558     1.0000 0.11030  0.98660  0.28520  Biso   1.000  H
  Cl280    1.0000 0.09450  0.05990  0.27830  Biso   1.000  Cl
  H559     1.0000 0.11950  0.04660  0.29590  Biso   1.000  H
  C559     1.0000 0.14780  0.02490  0.29930  Biso   1.000  C
  C560     1.0000 0.18550  0.02420  0.26300  Biso   1.000  C
  H560     1.0000 0.17990  0.04120  0.23240  Biso   1.000  H
  C561     1.0000 0.35540  0.49220  0.70600  Biso   1.000  C
  C562     1.0000 0.32040  0.49190  0.74420  Biso   1.000  C
  H561     1.0000 0.32970  0.48650  0.77800  Biso   1.000  H
  Cl281    1.0000 0.41800  0.48190  0.72390  Biso   1.000  Cl
  H562     1.0000 0.38970  0.48660  0.71480  Biso   1.000  H
  Cl282    1.0000 0.40550  0.55990  0.72170  Biso   1.000  Cl
  H563     1.0000 0.38050  0.54660  0.70410  Biso   1.000  H
  C563     1.0000 0.35220  0.52490  0.70070  Biso   1.000  C
  C564     1.0000 0.31450  0.52420  0.73700  Biso   1.000  C
  H564     1.0000 0.32010  0.54120  0.76760  Biso   1.000  H
  C565     1.0000 0.35540  0.99220  0.20600  Biso   1.000  C
  C566     1.0000 0.32040  0.99190  0.24420  Biso   1.000  C
  H565     1.0000 0.32970  0.98650  0.27800  Biso   1.000  H
  Cl283    1.0000 0.41800  0.98190  0.22390  Biso   1.000  Cl
  H566     1.0000 0.38970  0.98660  0.21480  Biso   1.000  H
  Cl284    1.0000 0.40550  0.05990  0.22170  Biso   1.000  Cl
  H567     1.0000 0.38050  0.04660  0.20410  Biso   1.000  H
  C567     1.0000 0.35220  0.02490  0.20070  Biso   1.000  C
  C568     1.0000 0.31450  0.02420  0.23700  Biso   1.000  C
  H568     1.0000 0.32010  0.04120  0.26760  Biso   1.000  H
  C569     1.0000 0.85540  0.49220  0.20600  Biso   1.000  C
  C570     1.0000 0.82040  0.49190  0.24420  Biso   1.000  C
  H569     1.0000 0.82970  0.48650  0.27800  Biso   1.000  H
  Cl285    1.0000 0.91800  0.48190  0.22390  Biso   1.000  Cl
  H570     1.0000 0.88970  0.48660  0.21480  Biso   1.000  H
  Cl286    1.0000 0.90550  0.55990  0.22170  Biso   1.000  Cl
  H571     1.0000 0.88050  0.54660  0.20410  Biso   1.000  H
  C571     1.0000 0.85220  0.52490  0.20070  Biso   1.000  C
  C572     1.0000 0.81450  0.52420  0.23700  Biso   1.000  C
  H572     1.0000 0.82010  0.54120  0.26760  Biso   1.000  H
  C573     1.0000 0.85540  0.99220  0.70600  Biso   1.000  C
  C574     1.0000 0.82040  0.99190  0.74420  Biso   1.000  C
  H573     1.0000 0.82970  0.98650  0.77800  Biso   1.000  H
  Cl287    1.0000 0.91800  0.98190  0.72390  Biso   1.000  Cl
  H574     1.0000 0.88970  0.98660  0.71480  Biso   1.000  H
  Cl288    1.0000 0.90550  0.05990  0.72170  Biso   1.000  Cl
  H575     1.0000 0.88050  0.04660  0.70410  Biso   1.000  H
  C575     1.0000 0.85220  0.02490  0.70070  Biso   1.000  C
  C576     1.0000 0.81450  0.02420  0.73700  Biso   1.000  C
  H576     1.0000 0.82010  0.04120  0.76760  Biso   1.000  H
  C577     1.0000 0.64460  0.70600  0.49220  Biso   1.000  C
  C578     1.0000 0.67960  0.74420  0.49190  Biso   1.000  C
  H577     1.0000 0.67030  0.77800  0.48650  Biso   1.000  H
  Cl289    1.0000 0.58200  0.72390  0.48190  Biso   1.000  Cl
  H578     1.0000 0.61030  0.71480  0.48660  Biso   1.000  H
  Cl290    1.0000 0.59450  0.72170  0.55990  Biso   1.000  Cl
  H579     1.0000 0.61950  0.70410  0.54660  Biso   1.000  H
  C579     1.0000 0.64780  0.70070  0.52490  Biso   1.000  C
  C580     1.0000 0.68550  0.73700  0.52420  Biso   1.000  C
  H580     1.0000 0.67990  0.76760  0.54120  Biso   1.000  H
  C581     1.0000 0.64460  0.20600  0.99220  Biso   1.000  C
  C582     1.0000 0.67960  0.24420  0.99190  Biso   1.000  C
  H581     1.0000 0.67030  0.27800  0.98650  Biso   1.000  H
  Cl291    1.0000 0.58200  0.22390  0.98190  Biso   1.000  Cl
  H582     1.0000 0.61030  0.21480  0.98660  Biso   1.000  H
  Cl292    1.0000 0.59450  0.22170  0.05990  Biso   1.000  Cl
  H583     1.0000 0.61950  0.20410  0.04660  Biso   1.000  H
  C583     1.0000 0.64780  0.20070  0.02490  Biso   1.000  C
  C584     1.0000 0.68550  0.23700  0.02420  Biso   1.000  C
  H584     1.0000 0.67990  0.26760  0.04120  Biso   1.000  H
  C585     1.0000 0.14460  0.70600  0.99220  Biso   1.000  C
  C586     1.0000 0.17960  0.74420  0.99190  Biso   1.000  C
  H585     1.0000 0.17030  0.77800  0.98650  Biso   1.000  H
  Cl293    1.0000 0.08200  0.72390  0.98190  Biso   1.000  Cl
  H586     1.0000 0.11030  0.71480  0.98660  Biso   1.000  H
  Cl294    1.0000 0.09450  0.72170  0.05990  Biso   1.000  Cl
  H587     1.0000 0.11950  0.70410  0.04660  Biso   1.000  H
  C587     1.0000 0.14780  0.70070  0.02490  Biso   1.000  C
  C588     1.0000 0.18550  0.73700  0.02420  Biso   1.000  C
  H588     1.0000 0.17990  0.76760  0.04120  Biso   1.000  H
  C589     1.0000 0.14460  0.20600  0.49220  Biso   1.000  C
  C590     1.0000 0.17960  0.24420  0.49190  Biso   1.000  C
  H589     1.0000 0.17030  0.27800  0.48650  Biso   1.000  H
  Cl295    1.0000 0.08200  0.22390  0.48190  Biso   1.000  Cl
  H590     1.0000 0.11030  0.21480  0.48660  Biso   1.000  H
  Cl296    1.0000 0.09450  0.22170  0.55990  Biso   1.000  Cl
  H591     1.0000 0.11950  0.20410  0.54660  Biso   1.000  H
  C591     1.0000 0.14780  0.20070  0.52490  Biso   1.000  C
  C592     1.0000 0.18550  0.23700  0.52420  Biso   1.000  C
  H592     1.0000 0.17990  0.26760  0.54120  Biso   1.000  H
  C593     1.0000 0.35540  0.29400  0.49220  Biso   1.000  C
  C594     1.0000 0.32040  0.25580  0.49190  Biso   1.000  C
  H593     1.0000 0.32970  0.22200  0.48650  Biso   1.000  H
  Cl297    1.0000 0.41800  0.27610  0.48190  Biso   1.000  Cl
  H594     1.0000 0.38970  0.28520  0.48660  Biso   1.000  H
  Cl298    1.0000 0.40550  0.27830  0.55990  Biso   1.000  Cl
  H595     1.0000 0.38050  0.29590  0.54660  Biso   1.000  H
  C595     1.0000 0.35220  0.29930  0.52490  Biso   1.000  C
  C596     1.0000 0.31450  0.26300  0.52420  Biso   1.000  C
  H596     1.0000 0.32010  0.23240  0.54120  Biso   1.000  H
  C597     1.0000 0.35540  0.79400  0.99220  Biso   1.000  C
  C598     1.0000 0.32040  0.75580  0.99190  Biso   1.000  C
  H597     1.0000 0.32970  0.72200  0.98650  Biso   1.000  H
  Cl299    1.0000 0.41800  0.77610  0.98190  Biso   1.000  Cl
  H598     1.0000 0.38970  0.78520  0.98660  Biso   1.000  H
  Cl300    1.0000 0.40550  0.77830  0.05990  Biso   1.000  Cl
  H599     1.0000 0.38050  0.79590  0.04660  Biso   1.000  H
  C599     1.0000 0.35220  0.79930  0.02490  Biso   1.000  C
  C600     1.0000 0.31450  0.76300  0.02420  Biso   1.000  C
  H600     1.0000 0.32010  0.73240  0.04120  Biso   1.000  H
  C601     1.0000 0.85540  0.29400  0.99220  Biso   1.000  C
  C602     1.0000 0.82040  0.25580  0.99190  Biso   1.000  C
  H601     1.0000 0.82970  0.22200  0.98650  Biso   1.000  H
  Cl301    1.0000 0.91800  0.27610  0.98190  Biso   1.000  Cl
  H602     1.0000 0.88970  0.28520  0.98660  Biso   1.000  H
  Cl302    1.0000 0.90550  0.27830  0.05990  Biso   1.000  Cl
  H603     1.0000 0.88050  0.29590  0.04660  Biso   1.000  H
  C603     1.0000 0.85220  0.29930  0.02490  Biso   1.000  C
  C604     1.0000 0.81450  0.26300  0.02420  Biso   1.000  C
  H604     1.0000 0.82010  0.23240  0.04120  Biso   1.000  H
  C605     1.0000 0.85540  0.79400  0.49220  Biso   1.000  C
  C606     1.0000 0.82040  0.75580  0.49190  Biso   1.000  C
  H605     1.0000 0.82970  0.72200  0.48650  Biso   1.000  H
  Cl303    1.0000 0.91800  0.77610  0.48190  Biso   1.000  Cl
  H606     1.0000 0.88970  0.78520  0.48660  Biso   1.000  H
  Cl304    1.0000 0.90550  0.77830  0.55990  Biso   1.000  Cl
  H607     1.0000 0.88050  0.79590  0.54660  Biso   1.000  H
  C607     1.0000 0.85220  0.79930  0.52490  Biso   1.000  C
  C608     1.0000 0.81450  0.76300  0.52420  Biso   1.000  C
  H608     1.0000 0.82010  0.73240  0.54120  Biso   1.000  H
  C609     1.0000 0.64460  0.29400  0.50780  Biso   1.000  C
  C610     1.0000 0.67960  0.25580  0.50810  Biso   1.000  C
  H609     1.0000 0.67030  0.22200  0.51350  Biso   1.000  H
  Cl305    1.0000 0.58200  0.27610  0.51810  Biso   1.000  Cl
  H610     1.0000 0.61030  0.28520  0.51340  Biso   1.000  H
  Cl306    1.0000 0.59450  0.27830  0.44010  Biso   1.000  Cl
  H611     1.0000 0.61950  0.29590  0.45340  Biso   1.000  H
  C611     1.0000 0.64780  0.29930  0.47510  Biso   1.000  C
  C612     1.0000 0.68550  0.26300  0.47580  Biso   1.000  C
  H612     1.0000 0.67990  0.23240  0.45880  Biso   1.000  H
  C613     1.0000 0.64460  0.79400  0.00780  Biso   1.000  C
  C614     1.0000 0.67960  0.75580  0.00810  Biso   1.000  C
  H613     1.0000 0.67030  0.72200  0.01350  Biso   1.000  H
  Cl307    1.0000 0.58200  0.77610  0.01810  Biso   1.000  Cl
  H614     1.0000 0.61030  0.78520  0.01340  Biso   1.000  H
  Cl308    1.0000 0.59450  0.77830  0.94010  Biso   1.000  Cl
  H615     1.0000 0.61950  0.79590  0.95340  Biso   1.000  H
  C615     1.0000 0.64780  0.79930  0.97510  Biso   1.000  C
  C616     1.0000 0.68550  0.76300  0.97580  Biso   1.000  C
  H616     1.0000 0.67990  0.73240  0.95880  Biso   1.000  H
  C617     1.0000 0.14460  0.29400  0.00780  Biso   1.000  C
  C618     1.0000 0.17960  0.25580  0.00810  Biso   1.000  C
  H617     1.0000 0.17030  0.22200  0.01350  Biso   1.000  H
  Cl309    1.0000 0.08200  0.27610  0.01810  Biso   1.000  Cl
  H618     1.0000 0.11030  0.28520  0.01340  Biso   1.000  H
  Cl310    1.0000 0.09450  0.27830  0.94010  Biso   1.000  Cl
  H619     1.0000 0.11950  0.29590  0.95340  Biso   1.000  H
  C619     1.0000 0.14780  0.29930  0.97510  Biso   1.000  C
  C620     1.0000 0.18550  0.26300  0.97580  Biso   1.000  C
  H620     1.0000 0.17990  0.23240  0.95880  Biso   1.000  H
  C621     1.0000 0.14460  0.79400  0.50780  Biso   1.000  C
  C622     1.0000 0.17960  0.75580  0.50810  Biso   1.000  C
  H621     1.0000 0.17030  0.72200  0.51350  Biso   1.000  H
  Cl311    1.0000 0.08200  0.77610  0.51810  Biso   1.000  Cl
  H622     1.0000 0.11030  0.78520  0.51340  Biso   1.000  H
  Cl312    1.0000 0.09450  0.77830  0.44010  Biso   1.000  Cl
  H623     1.0000 0.11950  0.79590  0.45340  Biso   1.000  H
  C623     1.0000 0.14780  0.79930  0.47510  Biso   1.000  C
  C624     1.0000 0.18550  0.76300  0.47580  Biso   1.000  C
  H624     1.0000 0.17990  0.73240  0.45880  Biso   1.000  H
  C625     1.0000 0.35540  0.70600  0.50780  Biso   1.000  C
  C626     1.0000 0.32040  0.74420  0.50810  Biso   1.000  C
  H625     1.0000 0.32970  0.77800  0.51350  Biso   1.000  H
  Cl313    1.0000 0.41800  0.72390  0.51810  Biso   1.000  Cl
  H626     1.0000 0.38970  0.71480  0.51340  Biso   1.000  H
  Cl314    1.0000 0.40550  0.72170  0.44010  Biso   1.000  Cl
  H627     1.0000 0.38050  0.70410  0.45340  Biso   1.000  H
  C627     1.0000 0.35220  0.70070  0.47510  Biso   1.000  C
  C628     1.0000 0.31450  0.73700  0.47580  Biso   1.000  C
  H628     1.0000 0.32010  0.76760  0.45880  Biso   1.000  H
  C629     1.0000 0.35540  0.20600  0.00780  Biso   1.000  C
  C630     1.0000 0.32040  0.24420  0.00810  Biso   1.000  C
  H629     1.0000 0.32970  0.27800  0.01350  Biso   1.000  H
  Cl315    1.0000 0.41800  0.22390  0.01810  Biso   1.000  Cl
  H630     1.0000 0.38970  0.21480  0.01340  Biso   1.000  H
  Cl316    1.0000 0.40550  0.22170  0.94010  Biso   1.000  Cl
  H631     1.0000 0.38050  0.20410  0.95340  Biso   1.000  H
  C631     1.0000 0.35220  0.20070  0.97510  Biso   1.000  C
  C632     1.0000 0.31450  0.23700  0.97580  Biso   1.000  C
  H632     1.0000 0.32010  0.26760  0.95880  Biso   1.000  H
  C633     1.0000 0.85540  0.70600  0.00780  Biso   1.000  C
  C634     1.0000 0.82040  0.74420  0.00810  Biso   1.000  C
  H633     1.0000 0.82970  0.77800  0.01350  Biso   1.000  H
  Cl317    1.0000 0.91800  0.72390  0.01810  Biso   1.000  Cl
  H634     1.0000 0.88970  0.71480  0.01340  Biso   1.000  H
  Cl318    1.0000 0.90550  0.72170  0.94010  Biso   1.000  Cl
  H635     1.0000 0.88050  0.70410  0.95340  Biso   1.000  H
  C635     1.0000 0.85220  0.70070  0.97510  Biso   1.000  C
  C636     1.0000 0.81450  0.73700  0.97580  Biso   1.000  C
  H636     1.0000 0.82010  0.76760  0.95880  Biso   1.000  H
  C637     1.0000 0.85540  0.20600  0.50780  Biso   1.000  C
  C638     1.0000 0.82040  0.24420  0.50810  Biso   1.000  C
  H637     1.0000 0.82970  0.27800  0.51350  Biso   1.000  H
  Cl319    1.0000 0.91800  0.22390  0.51810  Biso   1.000  Cl
  H638     1.0000 0.88970  0.21480  0.51340  Biso   1.000  H
  Cl320    1.0000 0.90550  0.22170  0.44010  Biso   1.000  Cl
  H639     1.0000 0.88050  0.20410  0.45340  Biso   1.000  H
  C639     1.0000 0.85220  0.20070  0.47510  Biso   1.000  C
  C640     1.0000 0.81450  0.23700  0.47580  Biso   1.000  C
  H640     1.0000 0.82010  0.26760  0.45880  Biso   1.000  H
  C641     1.0000 0.70600  0.50780  0.35540  Biso   1.000  C
  C642     1.0000 0.74420  0.50810  0.32040  Biso   1.000  C
  H641     1.0000 0.77800  0.51350  0.32970  Biso   1.000  H
  Cl321    1.0000 0.72390  0.51810  0.41800  Biso   1.000  Cl
  H642     1.0000 0.71480  0.51340  0.38970  Biso   1.000  H
  Cl322    1.0000 0.72170  0.44010  0.40550  Biso   1.000  Cl
  H643     1.0000 0.70410  0.45340  0.38050  Biso   1.000  H
  C643     1.0000 0.70070  0.47510  0.35220  Biso   1.000  C
  C644     1.0000 0.73700  0.47580  0.31450  Biso   1.000  C
  H644     1.0000 0.76760  0.45880  0.32010  Biso   1.000  H
  C645     1.0000 0.70600  0.00780  0.85540  Biso   1.000  C
  C646     1.0000 0.74420  0.00810  0.82040  Biso   1.000  C
  H645     1.0000 0.77800  0.01350  0.82970  Biso   1.000  H
  Cl323    1.0000 0.72390  0.01810  0.91800  Biso   1.000  Cl
  H646     1.0000 0.71480  0.01340  0.88970  Biso   1.000  H
  Cl324    1.0000 0.72170  0.94010  0.90550  Biso   1.000  Cl
  H647     1.0000 0.70410  0.95340  0.88050  Biso   1.000  H
  C647     1.0000 0.70070  0.97510  0.85220  Biso   1.000  C
  C648     1.0000 0.73700  0.97580  0.81450  Biso   1.000  C
  H648     1.0000 0.76760  0.95880  0.82010  Biso   1.000  H
  C649     1.0000 0.20600  0.50780  0.85540  Biso   1.000  C
  C650     1.0000 0.24420  0.50810  0.82040  Biso   1.000  C
  H649     1.0000 0.27800  0.51350  0.82970  Biso   1.000  H
  Cl325    1.0000 0.22390  0.51810  0.91800  Biso   1.000  Cl
  H650     1.0000 0.21480  0.51340  0.88970  Biso   1.000  H
  Cl326    1.0000 0.22170  0.44010  0.90550  Biso   1.000  Cl
  H651     1.0000 0.20410  0.45340  0.88050  Biso   1.000  H
  C651     1.0000 0.20070  0.47510  0.85220  Biso   1.000  C
  C652     1.0000 0.23700  0.47580  0.81450  Biso   1.000  C
  H652     1.0000 0.26760  0.45880  0.82010  Biso   1.000  H
  C653     1.0000 0.20600  0.00780  0.35540  Biso   1.000  C
  C654     1.0000 0.24420  0.00810  0.32040  Biso   1.000  C
  H653     1.0000 0.27800  0.01350  0.32970  Biso   1.000  H
  Cl327    1.0000 0.22390  0.01810  0.41800  Biso   1.000  Cl
  H654     1.0000 0.21480  0.01340  0.38970  Biso   1.000  H
  Cl328    1.0000 0.22170  0.94010  0.40550  Biso   1.000  Cl
  H655     1.0000 0.20410  0.95340  0.38050  Biso   1.000  H
  C655     1.0000 0.20070  0.97510  0.35220  Biso   1.000  C
  C656     1.0000 0.23700  0.97580  0.31450  Biso   1.000  C
  H656     1.0000 0.26760  0.95880  0.32010  Biso   1.000  H
  C657     1.0000 0.29400  0.50780  0.64460  Biso   1.000  C
  C658     1.0000 0.25580  0.50810  0.67960  Biso   1.000  C
  H657     1.0000 0.22200  0.51350  0.67030  Biso   1.000  H
  Cl329    1.0000 0.27610  0.51810  0.58200  Biso   1.000  Cl
  H658     1.0000 0.28520  0.51340  0.61030  Biso   1.000  H
  Cl330    1.0000 0.27830  0.44010  0.59450  Biso   1.000  Cl
  H659     1.0000 0.29590  0.45340  0.61950  Biso   1.000  H
  C659     1.0000 0.29930  0.47510  0.64780  Biso   1.000  C
  C660     1.0000 0.26300  0.47580  0.68550  Biso   1.000  C
  H660     1.0000 0.23240  0.45880  0.67990  Biso   1.000  H
  C661     1.0000 0.29400  0.00780  0.14460  Biso   1.000  C
  C662     1.0000 0.25580  0.00810  0.17960  Biso   1.000  C
  H661     1.0000 0.22200  0.01350  0.17030  Biso   1.000  H
  Cl331    1.0000 0.27610  0.01810  0.08200  Biso   1.000  Cl
  H662     1.0000 0.28520  0.01340  0.11030  Biso   1.000  H
  Cl332    1.0000 0.27830  0.94010  0.09450  Biso   1.000  Cl
  H663     1.0000 0.29590  0.95340  0.11950  Biso   1.000  H
  C663     1.0000 0.29930  0.97510  0.14780  Biso   1.000  C
  C664     1.0000 0.26300  0.97580  0.18550  Biso   1.000  C
  H664     1.0000 0.23240  0.95880  0.17990  Biso   1.000  H
  C665     1.0000 0.79400  0.50780  0.14460  Biso   1.000  C
  C666     1.0000 0.75580  0.50810  0.17960  Biso   1.000  C
  H665     1.0000 0.72200  0.51350  0.17030  Biso   1.000  H
  Cl333    1.0000 0.77610  0.51810  0.08200  Biso   1.000  Cl
  H666     1.0000 0.78520  0.51340  0.11030  Biso   1.000  H
  Cl334    1.0000 0.77830  0.44010  0.09450  Biso   1.000  Cl
  H667     1.0000 0.79590  0.45340  0.11950  Biso   1.000  H
  C667     1.0000 0.79930  0.47510  0.14780  Biso   1.000  C
  C668     1.0000 0.76300  0.47580  0.18550  Biso   1.000  C
  H668     1.0000 0.73240  0.45880  0.17990  Biso   1.000  H
  C669     1.0000 0.79400  0.00780  0.64460  Biso   1.000  C
  C670     1.0000 0.75580  0.00810  0.67960  Biso   1.000  C
  H669     1.0000 0.72200  0.01350  0.67030  Biso   1.000  H
  Cl335    1.0000 0.77610  0.01810  0.58200  Biso   1.000  Cl
  H670     1.0000 0.78520  0.01340  0.61030  Biso   1.000  H
  Cl336    1.0000 0.77830  0.94010  0.59450  Biso   1.000  Cl
  H671     1.0000 0.79590  0.95340  0.61950  Biso   1.000  H
  C671     1.0000 0.79930  0.97510  0.64780  Biso   1.000  C
  C672     1.0000 0.76300  0.97580  0.68550  Biso   1.000  C
  H672     1.0000 0.73240  0.95880  0.67990  Biso   1.000  H
  C673     1.0000 0.29400  0.49220  0.35540  Biso   1.000  C
  C674     1.0000 0.25580  0.49190  0.32040  Biso   1.000  C
  H673     1.0000 0.22200  0.48650  0.32970  Biso   1.000  H
  Cl337    1.0000 0.27610  0.48190  0.41800  Biso   1.000  Cl
  H674     1.0000 0.28520  0.48660  0.38970  Biso   1.000  H
  Cl338    1.0000 0.27830  0.55990  0.40550  Biso   1.000  Cl
  H675     1.0000 0.29590  0.54660  0.38050  Biso   1.000  H
  C675     1.0000 0.29930  0.52490  0.35220  Biso   1.000  C
  C676     1.0000 0.26300  0.52420  0.31450  Biso   1.000  C
  H676     1.0000 0.23240  0.54120  0.32010  Biso   1.000  H
  C677     1.0000 0.29400  0.99220  0.85540  Biso   1.000  C
  C678     1.0000 0.25580  0.99190  0.82040  Biso   1.000  C
  H677     1.0000 0.22200  0.98650  0.82970  Biso   1.000  H
  Cl339    1.0000 0.27610  0.98190  0.91800  Biso   1.000  Cl
  H678     1.0000 0.28520  0.98660  0.88970  Biso   1.000  H
  Cl340    1.0000 0.27830  0.05990  0.90550  Biso   1.000  Cl
  H679     1.0000 0.29590  0.04660  0.88050  Biso   1.000  H
  C679     1.0000 0.29930  0.02490  0.85220  Biso   1.000  C
  C680     1.0000 0.26300  0.02420  0.81450  Biso   1.000  C
  H680     1.0000 0.23240  0.04120  0.82010  Biso   1.000  H
  C681     1.0000 0.79400  0.49220  0.85540  Biso   1.000  C
  C682     1.0000 0.75580  0.49190  0.82040  Biso   1.000  C
  H681     1.0000 0.72200  0.48650  0.82970  Biso   1.000  H
  Cl341    1.0000 0.77610  0.48190  0.91800  Biso   1.000  Cl
  H682     1.0000 0.78520  0.48660  0.88970  Biso   1.000  H
  Cl342    1.0000 0.77830  0.55990  0.90550  Biso   1.000  Cl
  H683     1.0000 0.79590  0.54660  0.88050  Biso   1.000  H
  C683     1.0000 0.79930  0.52490  0.85220  Biso   1.000  C
  C684     1.0000 0.76300  0.52420  0.81450  Biso   1.000  C
  H684     1.0000 0.73240  0.54120  0.82010  Biso   1.000  H
  C685     1.0000 0.79400  0.99220  0.35540  Biso   1.000  C
  C686     1.0000 0.75580  0.99190  0.32040  Biso   1.000  C
  H685     1.0000 0.72200  0.98650  0.32970  Biso   1.000  H
  Cl343    1.0000 0.77610  0.98190  0.41800  Biso   1.000  Cl
  H686     1.0000 0.78520  0.98660  0.38970  Biso   1.000  H
  Cl344    1.0000 0.77830  0.05990  0.40550  Biso   1.000  Cl
  H687     1.0000 0.79590  0.04660  0.38050  Biso   1.000  H
  C687     1.0000 0.79930  0.02490  0.35220  Biso   1.000  C
  C688     1.0000 0.76300  0.02420  0.31450  Biso   1.000  C
  H688     1.0000 0.73240  0.04120  0.32010  Biso   1.000  H
  C689     1.0000 0.70600  0.49220  0.64460  Biso   1.000  C
  C690     1.0000 0.74420  0.49190  0.67960  Biso   1.000  C
  H689     1.0000 0.77800  0.48650  0.67030  Biso   1.000  H
  Cl345    1.0000 0.72390  0.48190  0.58200  Biso   1.000  Cl
  H690     1.0000 0.71480  0.48660  0.61030  Biso   1.000  H
  Cl346    1.0000 0.72170  0.55990  0.59450  Biso   1.000  Cl
  H691     1.0000 0.70410  0.54660  0.61950  Biso   1.000  H
  C691     1.0000 0.70070  0.52490  0.64780  Biso   1.000  C
  C692     1.0000 0.73700  0.52420  0.68550  Biso   1.000  C
  H692     1.0000 0.76760  0.54120  0.67990  Biso   1.000  H
  C693     1.0000 0.70600  0.99220  0.14460  Biso   1.000  C
  C694     1.0000 0.74420  0.99190  0.17960  Biso   1.000  C
  H693     1.0000 0.77800  0.98650  0.17030  Biso   1.000  H
  Cl347    1.0000 0.72390  0.98190  0.08200  Biso   1.000  Cl
  H694     1.0000 0.71480  0.98660  0.11030  Biso   1.000  H
  Cl348    1.0000 0.72170  0.05990  0.09450  Biso   1.000  Cl
  H695     1.0000 0.70410  0.04660  0.11950  Biso   1.000  H
  C695     1.0000 0.70070  0.02490  0.14780  Biso   1.000  C
  C696     1.0000 0.73700  0.02420  0.18550  Biso   1.000  C
  H696     1.0000 0.76760  0.04120  0.17990  Biso   1.000  H
  C697     1.0000 0.20600  0.49220  0.14460  Biso   1.000  C
  C698     1.0000 0.24420  0.49190  0.17960  Biso   1.000  C
  H697     1.0000 0.27800  0.48650  0.17030  Biso   1.000  H
  Cl349    1.0000 0.22390  0.48190  0.08200  Biso   1.000  Cl
  H698     1.0000 0.21480  0.48660  0.11030  Biso   1.000  H
  Cl350    1.0000 0.22170  0.55990  0.09450  Biso   1.000  Cl
  H699     1.0000 0.20410  0.54660  0.11950  Biso   1.000  H
  C699     1.0000 0.20070  0.52490  0.14780  Biso   1.000  C
  C700     1.0000 0.23700  0.52420  0.18550  Biso   1.000  C
  H700     1.0000 0.26760  0.54120  0.17990  Biso   1.000  H
  C701     1.0000 0.20600  0.99220  0.64460  Biso   1.000  C
  C702     1.0000 0.24420  0.99190  0.67960  Biso   1.000  C
  H701     1.0000 0.27800  0.98650  0.67030  Biso   1.000  H
  Cl351    1.0000 0.22390  0.98190  0.58200  Biso   1.000  Cl
  H702     1.0000 0.21480  0.98660  0.61030  Biso   1.000  H
  Cl352    1.0000 0.22170  0.05990  0.59450  Biso   1.000  Cl
  H703     1.0000 0.20410  0.04660  0.61950  Biso   1.000  H
  C703     1.0000 0.20070  0.02490  0.64780  Biso   1.000  C
  C704     1.0000 0.23700  0.02420  0.68550  Biso   1.000  C
  H704     1.0000 0.26760  0.04120  0.67990  Biso   1.000  H
  C705     1.0000 0.50780  0.64460  0.29400  Biso   1.000  C
  C706     1.0000 0.50810  0.67960  0.25580  Biso   1.000  C
  H705     1.0000 0.51350  0.67030  0.22200  Biso   1.000  H
  Cl353    1.0000 0.51810  0.58200  0.27610  Biso   1.000  Cl
  H706     1.0000 0.51340  0.61030  0.28520  Biso   1.000  H
  Cl354    1.0000 0.44010  0.59450  0.27830  Biso   1.000  Cl
  H707     1.0000 0.45340  0.61950  0.29590  Biso   1.000  H
  C707     1.0000 0.47510  0.64780  0.29930  Biso   1.000  C
  C708     1.0000 0.47580  0.68550  0.26300  Biso   1.000  C
  H708     1.0000 0.45880  0.67990  0.23240  Biso   1.000  H
  C709     1.0000 0.50780  0.14460  0.79400  Biso   1.000  C
  C710     1.0000 0.50810  0.17960  0.75580  Biso   1.000  C
  H709     1.0000 0.51350  0.17030  0.72200  Biso   1.000  H
  Cl355    1.0000 0.51810  0.08200  0.77610  Biso   1.000  Cl
  H710     1.0000 0.51340  0.11030  0.78520  Biso   1.000  H
  Cl356    1.0000 0.44010  0.09450  0.77830  Biso   1.000  Cl
  H711     1.0000 0.45340  0.11950  0.79590  Biso   1.000  H
  C711     1.0000 0.47510  0.14780  0.79930  Biso   1.000  C
  C712     1.0000 0.47580  0.18550  0.76300  Biso   1.000  C
  H712     1.0000 0.45880  0.17990  0.73240  Biso   1.000  H
  C713     1.0000 0.00780  0.64460  0.79400  Biso   1.000  C
  C714     1.0000 0.00810  0.67960  0.75580  Biso   1.000  C
  H713     1.0000 0.01350  0.67030  0.72200  Biso   1.000  H
  Cl357    1.0000 0.01810  0.58200  0.77610  Biso   1.000  Cl
  H714     1.0000 0.01340  0.61030  0.78520  Biso   1.000  H
  Cl358    1.0000 0.94010  0.59450  0.77830  Biso   1.000  Cl
  H715     1.0000 0.95340  0.61950  0.79590  Biso   1.000  H
  C715     1.0000 0.97510  0.64780  0.79930  Biso   1.000  C
  C716     1.0000 0.97580  0.68550  0.76300  Biso   1.000  C
  H716     1.0000 0.95880  0.67990  0.73240  Biso   1.000  H
  C717     1.0000 0.00780  0.14460  0.29400  Biso   1.000  C
  C718     1.0000 0.00810  0.17960  0.25580  Biso   1.000  C
  H717     1.0000 0.01350  0.17030  0.22200  Biso   1.000  H
  Cl359    1.0000 0.01810  0.08200  0.27610  Biso   1.000  Cl
  H718     1.0000 0.01340  0.11030  0.28520  Biso   1.000  H
  Cl360    1.0000 0.94010  0.09450  0.27830  Biso   1.000  Cl
  H719     1.0000 0.95340  0.11950  0.29590  Biso   1.000  H
  C719     1.0000 0.97510  0.14780  0.29930  Biso   1.000  C
  C720     1.0000 0.97580  0.18550  0.26300  Biso   1.000  C
  H720     1.0000 0.95880  0.17990  0.23240  Biso   1.000  H
  C721     1.0000 0.50780  0.35540  0.70600  Biso   1.000  C
  C722     1.0000 0.50810  0.32040  0.74420  Biso   1.000  C
  H721     1.0000 0.51350  0.32970  0.77800  Biso   1.000  H
  Cl361    1.0000 0.51810  0.41800  0.72390  Biso   1.000  Cl
  H722     1.0000 0.51340  0.38970  0.71480  Biso   1.000  H
  Cl362    1.0000 0.44010  0.40550  0.72170  Biso   1.000  Cl
  H723     1.0000 0.45340  0.38050  0.70410  Biso   1.000  H
  C723     1.0000 0.47510  0.35220  0.70070  Biso   1.000  C
  C724     1.0000 0.47580  0.31450  0.73700  Biso   1.000  C
  H724     1.0000 0.45880  0.32010  0.76760  Biso   1.000  H
  C725     1.0000 0.50780  0.85540  0.20600  Biso   1.000  C
  C726     1.0000 0.50810  0.82040  0.24420  Biso   1.000  C
  H725     1.0000 0.51350  0.82970  0.27800  Biso   1.000  H
  Cl363    1.0000 0.51810  0.91800  0.22390  Biso   1.000  Cl
  H726     1.0000 0.51340  0.88970  0.21480  Biso   1.000  H
  Cl364    1.0000 0.44010  0.90550  0.22170  Biso   1.000  Cl
  H727     1.0000 0.45340  0.88050  0.20410  Biso   1.000  H
  C727     1.0000 0.47510  0.85220  0.20070  Biso   1.000  C
  C728     1.0000 0.47580  0.81450  0.23700  Biso   1.000  C
  H728     1.0000 0.45880  0.82010  0.26760  Biso   1.000  H
  C729     1.0000 0.00780  0.35540  0.20600  Biso   1.000  C
  C730     1.0000 0.00810  0.32040  0.24420  Biso   1.000  C
  H729     1.0000 0.01350  0.32970  0.27800  Biso   1.000  H
  Cl365    1.0000 0.01810  0.41800  0.22390  Biso   1.000  Cl
  H730     1.0000 0.01340  0.38970  0.21480  Biso   1.000  H
  Cl366    1.0000 0.94010  0.40550  0.22170  Biso   1.000  Cl
  H731     1.0000 0.95340  0.38050  0.20410  Biso   1.000  H
  C731     1.0000 0.97510  0.35220  0.20070  Biso   1.000  C
  C732     1.0000 0.97580  0.31450  0.23700  Biso   1.000  C
  H732     1.0000 0.95880  0.32010  0.26760  Biso   1.000  H
  C733     1.0000 0.00780  0.85540  0.70600  Biso   1.000  C
  C734     1.0000 0.00810  0.82040  0.74420  Biso   1.000  C
  H733     1.0000 0.01350  0.82970  0.77800  Biso   1.000  H
  Cl367    1.0000 0.01810  0.91800  0.72390  Biso   1.000  Cl
  H734     1.0000 0.01340  0.88970  0.71480  Biso   1.000  H
  Cl368    1.0000 0.94010  0.90550  0.72170  Biso   1.000  Cl
  H735     1.0000 0.95340  0.88050  0.70410  Biso   1.000  H
  C735     1.0000 0.97510  0.85220  0.70070  Biso   1.000  C
  C736     1.0000 0.97580  0.81450  0.73700  Biso   1.000  C
  H736     1.0000 0.95880  0.82010  0.76760  Biso   1.000  H
  C737     1.0000 0.49220  0.64460  0.70600  Biso   1.000  C
  C738     1.0000 0.49190  0.67960  0.74420  Biso   1.000  C
  H737     1.0000 0.48650  0.67030  0.77800  Biso   1.000  H
  Cl369    1.0000 0.48190  0.58200  0.72390  Biso   1.000  Cl
  H738     1.0000 0.48660  0.61030  0.71480  Biso   1.000  H
  Cl370    1.0000 0.55990  0.59450  0.72170  Biso   1.000  Cl
  H739     1.0000 0.54660  0.61950  0.70410  Biso   1.000  H
  C739     1.0000 0.52490  0.64780  0.70070  Biso   1.000  C
  C740     1.0000 0.52420  0.68550  0.73700  Biso   1.000  C
  H740     1.0000 0.54120  0.67990  0.76760  Biso   1.000  H
  C741     1.0000 0.49220  0.14460  0.20600  Biso   1.000  C
  C742     1.0000 0.49190  0.17960  0.24420  Biso   1.000  C
  H741     1.0000 0.48650  0.17030  0.27800  Biso   1.000  H
  Cl371    1.0000 0.48190  0.08200  0.22390  Biso   1.000  Cl
  H742     1.0000 0.48660  0.11030  0.21480  Biso   1.000  H
  Cl372    1.0000 0.55990  0.09450  0.22170  Biso   1.000  Cl
  H743     1.0000 0.54660  0.11950  0.20410  Biso   1.000  H
  C743     1.0000 0.52490  0.14780  0.20070  Biso   1.000  C
  C744     1.0000 0.52420  0.18550  0.23700  Biso   1.000  C
  H744     1.0000 0.54120  0.17990  0.26760  Biso   1.000  H
  C745     1.0000 0.99220  0.64460  0.20600  Biso   1.000  C
  C746     1.0000 0.99190  0.67960  0.24420  Biso   1.000  C
  H745     1.0000 0.98650  0.67030  0.27800  Biso   1.000  H
  Cl373    1.0000 0.98190  0.58200  0.22390  Biso   1.000  Cl
  H746     1.0000 0.98660  0.61030  0.21480  Biso   1.000  H
  Cl374    1.0000 0.05990  0.59450  0.22170  Biso   1.000  Cl
  H747     1.0000 0.04660  0.61950  0.20410  Biso   1.000  H
  C747     1.0000 0.02490  0.64780  0.20070  Biso   1.000  C
  C748     1.0000 0.02420  0.68550  0.23700  Biso   1.000  C
  H748     1.0000 0.04120  0.67990  0.26760  Biso   1.000  H
  C749     1.0000 0.99220  0.14460  0.70600  Biso   1.000  C
  C750     1.0000 0.99190  0.17960  0.74420  Biso   1.000  C
  H749     1.0000 0.98650  0.17030  0.77800  Biso   1.000  H
  Cl375    1.0000 0.98190  0.08200  0.72390  Biso   1.000  Cl
  H750     1.0000 0.98660  0.11030  0.71480  Biso   1.000  H
  Cl376    1.0000 0.05990  0.09450  0.72170  Biso   1.000  Cl
  H751     1.0000 0.04660  0.11950  0.70410  Biso   1.000  H
  C751     1.0000 0.02490  0.14780  0.70070  Biso   1.000  C
  C752     1.0000 0.02420  0.18550  0.73700  Biso   1.000  C
  H752     1.0000 0.04120  0.17990  0.76760  Biso   1.000  H
  C753     1.0000 0.49220  0.35540  0.29400  Biso   1.000  C
  C754     1.0000 0.49190  0.32040  0.25580  Biso   1.000  C
  H753     1.0000 0.48650  0.32970  0.22200  Biso   1.000  H
  Cl377    1.0000 0.48190  0.41800  0.27610  Biso   1.000  Cl
  H754     1.0000 0.48660  0.38970  0.28520  Biso   1.000  H
  Cl378    1.0000 0.55990  0.40550  0.27830  Biso   1.000  Cl
  H755     1.0000 0.54660  0.38050  0.29590  Biso   1.000  H
  C755     1.0000 0.52490  0.35220  0.29930  Biso   1.000  C
  C756     1.0000 0.52420  0.31450  0.26300  Biso   1.000  C
  H756     1.0000 0.54120  0.32010  0.23240  Biso   1.000  H
  C757     1.0000 0.49220  0.85540  0.79400  Biso   1.000  C
  C758     1.0000 0.49190  0.82040  0.75580  Biso   1.000  C
  H757     1.0000 0.48650  0.82970  0.72200  Biso   1.000  H
  Cl379    1.0000 0.48190  0.91800  0.77610  Biso   1.000  Cl
  H758     1.0000 0.48660  0.88970  0.78520  Biso   1.000  H
  Cl380    1.0000 0.55990  0.90550  0.77830  Biso   1.000  Cl
  H759     1.0000 0.54660  0.88050  0.79590  Biso   1.000  H
  C759     1.0000 0.52490  0.85220  0.79930  Biso   1.000  C
  C760     1.0000 0.52420  0.81450  0.76300  Biso   1.000  C
  H760     1.0000 0.54120  0.82010  0.73240  Biso   1.000  H
  C761     1.0000 0.99220  0.35540  0.79400  Biso   1.000  C
  C762     1.0000 0.99190  0.32040  0.75580  Biso   1.000  C
  H761     1.0000 0.98650  0.32970  0.72200  Biso   1.000  H
  Cl381    1.0000 0.98190  0.41800  0.77610  Biso   1.000  Cl
  H762     1.0000 0.98660  0.38970  0.78520  Biso   1.000  H
  Cl382    1.0000 0.05990  0.40550  0.77830  Biso   1.000  Cl
  H763     1.0000 0.04660  0.38050  0.79590  Biso   1.000  H
  C763     1.0000 0.02490  0.35220  0.79930  Biso   1.000  C
  C764     1.0000 0.02420  0.31450  0.76300  Biso   1.000  C
  H764     1.0000 0.04120  0.32010  0.73240  Biso   1.000  H
  C765     1.0000 0.99220  0.85540  0.29400  Biso   1.000  C
  C766     1.0000 0.99190  0.82040  0.25580  Biso   1.000  C
  H765     1.0000 0.98650  0.82970  0.22200  Biso   1.000  H
  Cl383    1.0000 0.98190  0.91800  0.27610  Biso   1.000  Cl
  H766     1.0000 0.98660  0.88970  0.28520  Biso   1.000  H
  Cl384    1.0000 0.05990  0.90550  0.27830  Biso   1.000  Cl
  H767     1.0000 0.04660  0.88050  0.29590  Biso   1.000  H
  C767     1.0000 0.02490  0.85220  0.29930  Biso   1.000  C
  C768     1.0000 0.02420  0.81450  0.26300  Biso   1.000  C
  H768     1.0000 0.04120  0.82010  0.23240  Biso   1.000  H
  Zr1      1.0000 0.40789  0.50000  0.50000  Biso   1.000  Zr
  Zr2      1.0000 0.40789  0.00000  0.00000  Biso   1.000  Zr
  Zr3      1.0000 0.90789  0.50000  0.00000  Biso   1.000  Zr
  Zr4      1.0000 0.90789  0.00000  0.50000  Biso   1.000  Zr
  Zr5      1.0000 0.59211  0.50000  0.50000  Biso   1.000  Zr
  Zr6      1.0000 0.59211  0.00000  0.00000  Biso   1.000  Zr
  Zr7      1.0000 0.09211  0.50000  0.00000  Biso   1.000  Zr
  Zr8      1.0000 0.09211  0.00000  0.50000  Biso   1.000  Zr
  Zr9      1.0000 0.50000  0.40789  0.50000  Biso   1.000  Zr
  Zr10     1.0000 0.50000  0.90789  0.00000  Biso   1.000  Zr
  Zr11     1.0000 0.00000  0.40789  0.00000  Biso   1.000  Zr
  Zr12     1.0000 0.00000  0.90789  0.50000  Biso   1.000  Zr
  Zr13     1.0000 0.50000  0.59211  0.50000  Biso   1.000  Zr
  Zr14     1.0000 0.50000  0.09211  0.00000  Biso   1.000  Zr
  Zr15     1.0000 0.00000  0.59211  0.00000  Biso   1.000  Zr
  Zr16     1.0000 0.00000  0.09211  0.50000  Biso   1.000  Zr
  Zr17     1.0000 0.50000  0.50000  0.40789  Biso   1.000  Zr
  Zr18     1.0000 0.50000  0.00000  0.90789  Biso   1.000  Zr
  Zr19     1.0000 0.00000  0.50000  0.90789  Biso   1.000  Zr
  Zr20     1.0000 0.00000  0.00000  0.40789  Biso   1.000  Zr
  Zr21     1.0000 0.50000  0.50000  0.59211  Biso   1.000  Zr
  Zr22     1.0000 0.50000  0.00000  0.09211  Biso   1.000  Zr
  Zr23     1.0000 0.00000  0.50000  0.09211  Biso   1.000  Zr
  Zr24     1.0000 0.00000  0.00000  0.59211  Biso   1.000  Zr
  O1       1.0000 0.46040  0.53960  0.53960  Biso   1.000  O
  O2       1.0000 0.44720  0.55280  0.55280  Biso   1.000  O
  O3       1.0000 0.46040  0.03960  0.03960  Biso   1.000  O
  O4       1.0000 0.44720  0.05280  0.05280  Biso   1.000  O
  O5       1.0000 0.96040  0.53960  0.03960  Biso   1.000  O
  O6       1.0000 0.94720  0.55280  0.05280  Biso   1.000  O
  O7       1.0000 0.96040  0.03960  0.53960  Biso   1.000  O
  O8       1.0000 0.94720  0.05280  0.55280  Biso   1.000  O
  O9       1.0000 0.53960  0.46040  0.53960  Biso   1.000  O
  O10      1.0000 0.55280  0.44720  0.55280  Biso   1.000  O
  O11      1.0000 0.53960  0.96040  0.03960  Biso   1.000  O
  O12      1.0000 0.55280  0.94720  0.05280  Biso   1.000  O
  O13      1.0000 0.03960  0.46040  0.03960  Biso   1.000  O
  O14      1.0000 0.05280  0.44720  0.05280  Biso   1.000  O
  O15      1.0000 0.03960  0.96040  0.53960  Biso   1.000  O
  O16      1.0000 0.05280  0.94720  0.55280  Biso   1.000  O
  O17      1.0000 0.53960  0.53960  0.46040  Biso   1.000  O
  O18      1.0000 0.55280  0.55280  0.44720  Biso   1.000  O
  O19      1.0000 0.53960  0.03960  0.96040  Biso   1.000  O
  O20      1.0000 0.55280  0.05280  0.94720  Biso   1.000  O
  O21      1.0000 0.03960  0.53960  0.96040  Biso   1.000  O
  O22      1.0000 0.05280  0.55280  0.94720  Biso   1.000  O
  O23      1.0000 0.03960  0.03960  0.46040  Biso   1.000  O
  O24      1.0000 0.05280  0.05280  0.44720  Biso   1.000  O
  O25      1.0000 0.46040  0.46040  0.46040  Biso   1.000  O
  O26      1.0000 0.44720  0.44720  0.44720  Biso   1.000  O
  O27      1.0000 0.46040  0.96040  0.96040  Biso   1.000  O
  O28      1.0000 0.44720  0.94720  0.94720  Biso   1.000  O
  O29      1.0000 0.96040  0.46040  0.96040  Biso   1.000  O
  O30      1.0000 0.94720  0.44720  0.94720  Biso   1.000  O
  O31      1.0000 0.96040  0.96040  0.46040  Biso   1.000  O
  O32      1.0000 0.94720  0.94720  0.44720  Biso   1.000  O
  O33      1.0000 0.53960  0.46040  0.46040  Biso   1.000  O
  O34      1.0000 0.55280  0.44720  0.44720  Biso   1.000  O
  O35      1.0000 0.53960  0.96040  0.96040  Biso   1.000  O
  O36      1.0000 0.55280  0.94720  0.94720  Biso   1.000  O
  O37      1.0000 0.03960  0.46040  0.96040  Biso   1.000  O
  O38      1.0000 0.05280  0.44720  0.94720  Biso   1.000  O
  O39      1.0000 0.03960  0.96040  0.46040  Biso   1.000  O
  O40      1.0000 0.05280  0.94720  0.44720  Biso   1.000  O
  O41      1.0000 0.46040  0.53960  0.46040  Biso   1.000  O
  O42      1.0000 0.44720  0.55280  0.44720  Biso   1.000  O
  O43      1.0000 0.46040  0.03960  0.96040  Biso   1.000  O
  O44      1.0000 0.44720  0.05280  0.94720  Biso   1.000  O
  O45      1.0000 0.96040  0.53960  0.96040  Biso   1.000  O
  O46      1.0000 0.94720  0.55280  0.94720  Biso   1.000  O
  O47      1.0000 0.96040  0.03960  0.46040  Biso   1.000  O
  O48      1.0000 0.94720  0.05280  0.44720  Biso   1.000  O
  O49      1.0000 0.53960  0.53960  0.53960  Biso   1.000  O
  O50      1.0000 0.55280  0.55280  0.55280  Biso   1.000  O
  O51      1.0000 0.53960  0.03960  0.03960  Biso   1.000  O
  O52      1.0000 0.55280  0.05280  0.05280  Biso   1.000  O
  O53      1.0000 0.03960  0.53960  0.03960  Biso   1.000  O
  O54      1.0000 0.05280  0.55280  0.05280  Biso   1.000  O
  O55      1.0000 0.03960  0.03960  0.53960  Biso   1.000  O
  O56      1.0000 0.05280  0.05280  0.55280  Biso   1.000  O
  O57      1.0000 0.46040  0.46040  0.53960  Biso   1.000  O
  O58      1.0000 0.44720  0.44720  0.55280  Biso   1.000  O
  O59      1.0000 0.46040  0.96040  0.03960  Biso   1.000  O
  O60      1.0000 0.44720  0.94720  0.05280  Biso   1.000  O
  O61      1.0000 0.96040  0.46040  0.03960  Biso   1.000  O
  O62      1.0000 0.94720  0.44720  0.05280  Biso   1.000  O
  O63      1.0000 0.96040  0.96040  0.53960  Biso   1.000  O
  O64      1.0000 0.94720  0.94720  0.55280  Biso   1.000  O
  O65      1.0000 0.36723  0.42798  0.50000  Biso   1.000  O
  O66      1.0000 0.36723  0.92798  0.00000  Biso   1.000  O
  O67      1.0000 0.86723  0.42798  0.00000  Biso   1.000  O
  O68      1.0000 0.86723  0.92798  0.50000  Biso   1.000  O
  O69      1.0000 0.63277  0.57202  0.50000  Biso   1.000  O
  O70      1.0000 0.63277  0.07202  0.00000  Biso   1.000  O
  O71      1.0000 0.13277  0.57202  0.00000  Biso   1.000  O
  O72      1.0000 0.13277  0.07202  0.50000  Biso   1.000  O
  O73      1.0000 0.63277  0.42798  0.50000  Biso   1.000  O
  O74      1.0000 0.63277  0.92798  0.00000  Biso   1.000  O
  O75      1.0000 0.13277  0.42798  0.00000  Biso   1.000  O
  O76      1.0000 0.13277  0.92798  0.50000  Biso   1.000  O
  O77      1.0000 0.36723  0.57202  0.50000  Biso   1.000  O
  O78      1.0000 0.36723  0.07202  0.00000  Biso   1.000  O
  O79      1.0000 0.86723  0.57202  0.00000  Biso   1.000  O
  O80      1.0000 0.86723  0.07202  0.50000  Biso   1.000  O
  O81      1.0000 0.50000  0.36723  0.42798  Biso   1.000  O
  O82      1.0000 0.50000  0.86723  0.92798  Biso   1.000  O
  O83      1.0000 0.00000  0.36723  0.92798  Biso   1.000  O
  O84      1.0000 0.00000  0.86723  0.42798  Biso   1.000  O
  O85      1.0000 0.50000  0.63277  0.57202  Biso   1.000  O
  O86      1.0000 0.50000  0.13277  0.07202  Biso   1.000  O
  O87      1.0000 0.00000  0.63277  0.07202  Biso   1.000  O
  O88      1.0000 0.00000  0.13277  0.57202  Biso   1.000  O
  O89      1.0000 0.50000  0.63277  0.42798  Biso   1.000  O
  O90      1.0000 0.50000  0.13277  0.92798  Biso   1.000  O
  O91      1.0000 0.00000  0.63277  0.92798  Biso   1.000  O
  O92      1.0000 0.00000  0.13277  0.42798  Biso   1.000  O
  O93      1.0000 0.50000  0.36723  0.57202  Biso   1.000  O
  O94      1.0000 0.50000  0.86723  0.07202  Biso   1.000  O
  O95      1.0000 0.00000  0.36723  0.07202  Biso   1.000  O
  O96      1.0000 0.00000  0.86723  0.57202  Biso   1.000  O
  O97      1.0000 0.42798  0.50000  0.36723  Biso   1.000  O
  O98      1.0000 0.42798  0.00000  0.86723  Biso   1.000  O
  O99      1.0000 0.92798  0.50000  0.86723  Biso   1.000  O
  O100     1.0000 0.92798  0.00000  0.36723  Biso   1.000  O
  O101     1.0000 0.57202  0.50000  0.63277  Biso   1.000  O
  O102     1.0000 0.57202  0.00000  0.13277  Biso   1.000  O
  O103     1.0000 0.07202  0.50000  0.13277  Biso   1.000  O
  O104     1.0000 0.07202  0.00000  0.63277  Biso   1.000  O
  O105     1.0000 0.42798  0.50000  0.63277  Biso   1.000  O
  O106     1.0000 0.42798  0.00000  0.13277  Biso   1.000  O
  O107     1.0000 0.92798  0.50000  0.13277  Biso   1.000  O
  O108     1.0000 0.92798  0.00000  0.63277  Biso   1.000  O
  O109     1.0000 0.57202  0.50000  0.36723  Biso   1.000  O
  O110     1.0000 0.57202  0.00000  0.86723  Biso   1.000  O
  O111     1.0000 0.07202  0.50000  0.86723  Biso   1.000  O
  O112     1.0000 0.07202  0.00000  0.36723  Biso   1.000  O
  O113     1.0000 0.42798  0.36723  0.50000  Biso   1.000  O
  O114     1.0000 0.42798  0.86723  0.00000  Biso   1.000  O
  O115     1.0000 0.92798  0.36723  0.00000  Biso   1.000  O
  O116     1.0000 0.92798  0.86723  0.50000  Biso   1.000  O
  O117     1.0000 0.57202  0.63277  0.50000  Biso   1.000  O
  O118     1.0000 0.57202  0.13277  0.00000  Biso   1.000  O
  O119     1.0000 0.07202  0.63277  0.00000  Biso   1.000  O
  O120     1.0000 0.07202  0.13277  0.50000  Biso   1.000  O
  O121     1.0000 0.42798  0.63277  0.50000  Biso   1.000  O
  O122     1.0000 0.42798  0.13277  0.00000  Biso   1.000  O
  O123     1.0000 0.92798  0.63277  0.00000  Biso   1.000  O
  O124     1.0000 0.92798  0.13277  0.50000  Biso   1.000  O
  O125     1.0000 0.57202  0.36723  0.50000  Biso   1.000  O
  O126     1.0000 0.57202  0.86723  0.00000  Biso   1.000  O
  O127     1.0000 0.07202  0.36723  0.00000  Biso   1.000  O
  O128     1.0000 0.07202  0.86723  0.50000  Biso   1.000  O
  O129     1.0000 0.36723  0.50000  0.57202  Biso   1.000  O
  O130     1.0000 0.36723  0.00000  0.07202  Biso   1.000  O
  O131     1.0000 0.86723  0.50000  0.07202  Biso   1.000  O
  O132     1.0000 0.86723  0.00000  0.57202  Biso   1.000  O
  O133     1.0000 0.63277  0.50000  0.42798  Biso   1.000  O
  O134     1.0000 0.63277  0.00000  0.92798  Biso   1.000  O
  O135     1.0000 0.13277  0.50000  0.92798  Biso   1.000  O
  O136     1.0000 0.13277  0.00000  0.42798  Biso   1.000  O
  O137     1.0000 0.63277  0.50000  0.57202  Biso   1.000  O
  O138     1.0000 0.63277  0.00000  0.07202  Biso   1.000  O
  O139     1.0000 0.13277  0.50000  0.07202  Biso   1.000  O
  O140     1.0000 0.13277  0.00000  0.57202  Biso   1.000  O
  O141     1.0000 0.36723  0.50000  0.42798  Biso   1.000  O
  O142     1.0000 0.36723  0.00000  0.92798  Biso   1.000  O
  O143     1.0000 0.86723  0.50000  0.92798  Biso   1.000  O
  O144     1.0000 0.86723  0.00000  0.42798  Biso   1.000  O
  O145     1.0000 0.50000  0.42798  0.63277  Biso   1.000  O
  O146     1.0000 0.50000  0.92798  0.13277  Biso   1.000  O
  O147     1.0000 0.00000  0.42798  0.13277  Biso   1.000  O
  O148     1.0000 0.00000  0.92798  0.63277  Biso   1.000  O
  O149     1.0000 0.50000  0.57202  0.36723  Biso   1.000  O
  O150     1.0000 0.50000  0.07202  0.86723  Biso   1.000  O
  O151     1.0000 0.00000  0.57202  0.86723  Biso   1.000  O
  O152     1.0000 0.00000  0.07202  0.36723  Biso   1.000  O
  O153     1.0000 0.50000  0.42798  0.36723  Biso   1.000  O
  O154     1.0000 0.50000  0.92798  0.86723  Biso   1.000  O
  O155     1.0000 0.00000  0.42798  0.86723  Biso   1.000  O
  O156     1.0000 0.00000  0.92798  0.36723  Biso   1.000  O
  O157     1.0000 0.50000  0.57202  0.63277  Biso   1.000  O
  O158     1.0000 0.50000  0.07202  0.13277  Biso   1.000  O
  O159     1.0000 0.00000  0.57202  0.13277  Biso   1.000  O
  O160     1.0000 0.00000  0.07202  0.63277  Biso   1.000  O
  C769     1.0000 0.38255  0.38255  0.50000  Biso   1.000  C
  C770     1.0000 0.34378  0.34378  0.50000  Biso   1.000  C
  C771     1.0000 0.26990  0.26990  0.50000  Biso   1.000  C
  C772     1.0000 0.38255  0.88255  0.00000  Biso   1.000  C
  C773     1.0000 0.34378  0.84378  0.00000  Biso   1.000  C
  C774     1.0000 0.26990  0.76990  0.00000  Biso   1.000  C
  C775     1.0000 0.88255  0.38255  0.00000  Biso   1.000  C
  C776     1.0000 0.84378  0.34378  0.00000  Biso   1.000  C
  C777     1.0000 0.76990  0.26990  0.00000  Biso   1.000  C
  C778     1.0000 0.88255  0.88255  0.50000  Biso   1.000  C
  C779     1.0000 0.84378  0.84378  0.50000  Biso   1.000  C
  C780     1.0000 0.76990  0.76990  0.50000  Biso   1.000  C
  C781     1.0000 0.61745  0.61745  0.50000  Biso   1.000  C
  C782     1.0000 0.65622  0.65622  0.50000  Biso   1.000  C
  C783     1.0000 0.73010  0.73010  0.50000  Biso   1.000  C
  C784     1.0000 0.61745  0.11745  0.00000  Biso   1.000  C
  C785     1.0000 0.65622  0.15622  0.00000  Biso   1.000  C
  C786     1.0000 0.73010  0.23010  0.00000  Biso   1.000  C
  C787     1.0000 0.11745  0.61745  0.00000  Biso   1.000  C
  C788     1.0000 0.15622  0.65622  0.00000  Biso   1.000  C
  C789     1.0000 0.23010  0.73010  0.00000  Biso   1.000  C
  C790     1.0000 0.11745  0.11745  0.50000  Biso   1.000  C
  C791     1.0000 0.15622  0.15622  0.50000  Biso   1.000  C
  C792     1.0000 0.23010  0.23010  0.50000  Biso   1.000  C
  C793     1.0000 0.61745  0.38255  0.50000  Biso   1.000  C
  C794     1.0000 0.65622  0.34378  0.50000  Biso   1.000  C
  C795     1.0000 0.73010  0.26990  0.50000  Biso   1.000  C
  C796     1.0000 0.61745  0.88255  0.00000  Biso   1.000  C
  C797     1.0000 0.65622  0.84378  0.00000  Biso   1.000  C
  C798     1.0000 0.73010  0.76990  0.00000  Biso   1.000  C
  C799     1.0000 0.11745  0.38255  0.00000  Biso   1.000  C
  C800     1.0000 0.15622  0.34378  0.00000  Biso   1.000  C
  C801     1.0000 0.23010  0.26990  0.00000  Biso   1.000  C
  C802     1.0000 0.11745  0.88255  0.50000  Biso   1.000  C
  C803     1.0000 0.15622  0.84378  0.50000  Biso   1.000  C
  C804     1.0000 0.23010  0.76990  0.50000  Biso   1.000  C
  C805     1.0000 0.38255  0.61745  0.50000  Biso   1.000  C
  C806     1.0000 0.34378  0.65622  0.50000  Biso   1.000  C
  C807     1.0000 0.26990  0.73010  0.50000  Biso   1.000  C
  C808     1.0000 0.38255  0.11745  0.00000  Biso   1.000  C
  C809     1.0000 0.34378  0.15622  0.00000  Biso   1.000  C
  C810     1.0000 0.26990  0.23010  0.00000  Biso   1.000  C
  C811     1.0000 0.88255  0.61745  0.00000  Biso   1.000  C
  C812     1.0000 0.84378  0.65622  0.00000  Biso   1.000  C
  C813     1.0000 0.76990  0.73010  0.00000  Biso   1.000  C
  C814     1.0000 0.88255  0.11745  0.50000  Biso   1.000  C
  C815     1.0000 0.84378  0.15622  0.50000  Biso   1.000  C
  C816     1.0000 0.76990  0.23010  0.50000  Biso   1.000  C
  C817     1.0000 0.50000  0.38255  0.38255  Biso   1.000  C
  C818     1.0000 0.50000  0.34378  0.34378  Biso   1.000  C
  C819     1.0000 0.50000  0.26990  0.26990  Biso   1.000  C
  C820     1.0000 0.50000  0.88255  0.88255  Biso   1.000  C
  C821     1.0000 0.50000  0.84378  0.84378  Biso   1.000  C
  C822     1.0000 0.50000  0.76990  0.76990  Biso   1.000  C
  C823     1.0000 0.00000  0.38255  0.88255  Biso   1.000  C
  C824     1.0000 0.00000  0.34378  0.84378  Biso   1.000  C
  C825     1.0000 0.00000  0.26990  0.76990  Biso   1.000  C
  C826     1.0000 0.00000  0.88255  0.38255  Biso   1.000  C
  C827     1.0000 0.00000  0.84378  0.34378  Biso   1.000  C
  C828     1.0000 0.00000  0.76990  0.26990  Biso   1.000  C
  C829     1.0000 0.50000  0.61745  0.61745  Biso   1.000  C
  C830     1.0000 0.50000  0.65622  0.65622  Biso   1.000  C
  C831     1.0000 0.50000  0.73010  0.73010  Biso   1.000  C
  C832     1.0000 0.50000  0.11745  0.11745  Biso   1.000  C
  C833     1.0000 0.50000  0.15622  0.15622  Biso   1.000  C
  C834     1.0000 0.50000  0.23010  0.23010  Biso   1.000  C
  C835     1.0000 0.00000  0.61745  0.11745  Biso   1.000  C
  C836     1.0000 0.00000  0.65622  0.15622  Biso   1.000  C
  C837     1.0000 0.00000  0.73010  0.23010  Biso   1.000  C
  C838     1.0000 0.00000  0.11745  0.61745  Biso   1.000  C
  C839     1.0000 0.00000  0.15622  0.65622  Biso   1.000  C
  C840     1.0000 0.00000  0.23010  0.73010  Biso   1.000  C
  C841     1.0000 0.50000  0.61745  0.38255  Biso   1.000  C
  C842     1.0000 0.50000  0.65622  0.34378  Biso   1.000  C
  C843     1.0000 0.50000  0.73010  0.26990  Biso   1.000  C
  C844     1.0000 0.50000  0.11745  0.88255  Biso   1.000  C
  C845     1.0000 0.50000  0.15622  0.84378  Biso   1.000  C
  C846     1.0000 0.50000  0.23010  0.76990  Biso   1.000  C
  C847     1.0000 0.00000  0.61745  0.88255  Biso   1.000  C
  C848     1.0000 0.00000  0.65622  0.84378  Biso   1.000  C
  C849     1.0000 0.00000  0.73010  0.76990  Biso   1.000  C
  C850     1.0000 0.00000  0.11745  0.38255  Biso   1.000  C
  C851     1.0000 0.00000  0.15622  0.34378  Biso   1.000  C
  C852     1.0000 0.00000  0.23010  0.26990  Biso   1.000  C
  C853     1.0000 0.50000  0.38255  0.61745  Biso   1.000  C
  C854     1.0000 0.50000  0.34378  0.65622  Biso   1.000  C
  C855     1.0000 0.50000  0.26990  0.73010  Biso   1.000  C
  C856     1.0000 0.50000  0.88255  0.11745  Biso   1.000  C
  C857     1.0000 0.50000  0.84378  0.15622  Biso   1.000  C
  C858     1.0000 0.50000  0.76990  0.23010  Biso   1.000  C
  C859     1.0000 0.00000  0.38255  0.11745  Biso   1.000  C
  C860     1.0000 0.00000  0.34378  0.15622  Biso   1.000  C
  C861     1.0000 0.00000  0.26990  0.23010  Biso   1.000  C
  C862     1.0000 0.00000  0.88255  0.61745  Biso   1.000  C
  C863     1.0000 0.00000  0.84378  0.65622  Biso   1.000  C
  C864     1.0000 0.00000  0.76990  0.73010  Biso   1.000  C
  C865     1.0000 0.38255  0.50000  0.38255  Biso   1.000  C
  C866     1.0000 0.34378  0.50000  0.34378  Biso   1.000  C
  C867     1.0000 0.26990  0.50000  0.26990  Biso   1.000  C
  C868     1.0000 0.38255  0.00000  0.88255  Biso   1.000  C
  C869     1.0000 0.34378  0.00000  0.84378  Biso   1.000  C
  C870     1.0000 0.26990  0.00000  0.76990  Biso   1.000  C
  C871     1.0000 0.88255  0.50000  0.88255  Biso   1.000  C
  C872     1.0000 0.84378  0.50000  0.84378  Biso   1.000  C
  C873     1.0000 0.76990  0.50000  0.76990  Biso   1.000  C
  C874     1.0000 0.88255  0.00000  0.38255  Biso   1.000  C
  C875     1.0000 0.84378  0.00000  0.34378  Biso   1.000  C
  C876     1.0000 0.76990  0.00000  0.26990  Biso   1.000  C
  C877     1.0000 0.61745  0.50000  0.61745  Biso   1.000  C
  C878     1.0000 0.65622  0.50000  0.65622  Biso   1.000  C
  C879     1.0000 0.73010  0.50000  0.73010  Biso   1.000  C
  C880     1.0000 0.61745  0.00000  0.11745  Biso   1.000  C
  C881     1.0000 0.65622  0.00000  0.15622  Biso   1.000  C
  C882     1.0000 0.73010  0.00000  0.23010  Biso   1.000  C
  C883     1.0000 0.11745  0.50000  0.11745  Biso   1.000  C
  C884     1.0000 0.15622  0.50000  0.15622  Biso   1.000  C
  C885     1.0000 0.23010  0.50000  0.23010  Biso   1.000  C
  C886     1.0000 0.11745  0.00000  0.61745  Biso   1.000  C
  C887     1.0000 0.15622  0.00000  0.65622  Biso   1.000  C
  C888     1.0000 0.23010  0.00000  0.73010  Biso   1.000  C
  C889     1.0000 0.38255  0.50000  0.61745  Biso   1.000  C
  C890     1.0000 0.34378  0.50000  0.65622  Biso   1.000  C
  C891     1.0000 0.26990  0.50000  0.73010  Biso   1.000  C
  C892     1.0000 0.38255  0.00000  0.11745  Biso   1.000  C
  C893     1.0000 0.34378  0.00000  0.15622  Biso   1.000  C
  C894     1.0000 0.26990  0.00000  0.23010  Biso   1.000  C
  C895     1.0000 0.88255  0.50000  0.11745  Biso   1.000  C
  C896     1.0000 0.84378  0.50000  0.15622  Biso   1.000  C
  C897     1.0000 0.76990  0.50000  0.23010  Biso   1.000  C
  C898     1.0000 0.88255  0.00000  0.61745  Biso   1.000  C
  C899     1.0000 0.84378  0.00000  0.65622  Biso   1.000  C
  C900     1.0000 0.76990  0.00000  0.73010  Biso   1.000  C
  C901     1.0000 0.61745  0.50000  0.38255  Biso   1.000  C
  C902     1.0000 0.65622  0.50000  0.34378  Biso   1.000  C
  C903     1.0000 0.73010  0.50000  0.26990  Biso   1.000  C
  C904     1.0000 0.61745  0.00000  0.88255  Biso   1.000  C
  C905     1.0000 0.65622  0.00000  0.84378  Biso   1.000  C
  C906     1.0000 0.73010  0.00000  0.76990  Biso   1.000  C
  C907     1.0000 0.11745  0.50000  0.88255  Biso   1.000  C
  C908     1.0000 0.15622  0.50000  0.84378  Biso   1.000  C
  C909     1.0000 0.23010  0.50000  0.76990  Biso   1.000  C
  C910     1.0000 0.11745  0.00000  0.38255  Biso   1.000  C
  C911     1.0000 0.15622  0.00000  0.34378  Biso   1.000  C
  C912     1.0000 0.23010  0.00000  0.26990  Biso   1.000  C
