data_image0
_cell_length_a       46.15
_cell_length_b       46.15
_cell_length_c       46.15
_cell_angle_alpha    90
_cell_angle_beta     90
_cell_angle_gamma    90

_symmetry_space_group_name_H-M    "P 1"
_symmetry_int_tables_number       1

loop_
  _symmetry_equiv_pos_as_xyz
  'x, y, z'

loop_
  _atom_site_label
  _atom_site_occupancy
  _atom_site_fract_x
  _atom_site_fract_y
  _atom_site_fract_z
  _atom_site_thermal_displace_type
  _atom_site_B_iso_or_equiv
  _atom_site_type_symbol
  O1       1.0000 0.97008  0.10459  0.14617  Biso   1.000  O
  C1       1.0000 0.95922  0.11553  0.16932  Biso   1.000  C
  C2       1.0000 0.93723  0.10069  0.18362  Biso   1.000  C
  C3       1.0000 0.92640  0.11060  0.21180  Biso   1.000  C
  C4       1.0000 0.01390  0.24340  0.21360  Biso   1.000  C
  C5       1.0000 0.02310  0.21330  0.20010  Biso   1.000  C
  O2       1.0000 0.96974  0.13868  0.18039  Biso   1.000  O
  C6       1.0000 0.00860  0.22340  0.19100  Biso   1.000  C
  O3       1.0000 0.97008  0.60459  0.64617  Biso   1.000  O
  C7       1.0000 0.95922  0.61553  0.66932  Biso   1.000  C
  C8       1.0000 0.93723  0.60069  0.68362  Biso   1.000  C
  C9       1.0000 0.92640  0.61060  0.71180  Biso   1.000  C
  C10      1.0000 0.01390  0.74340  0.71360  Biso   1.000  C
  C11      1.0000 0.02310  0.71330  0.70010  Biso   1.000  C
  O4       1.0000 0.96974  0.63868  0.68039  Biso   1.000  O
  C12      1.0000 0.00860  0.72340  0.69100  Biso   1.000  C
  O5       1.0000 0.47008  0.10459  0.64617  Biso   1.000  O
  C13      1.0000 0.45922  0.11553  0.66932  Biso   1.000  C
  C14      1.0000 0.43723  0.10069  0.68362  Biso   1.000  C
  C15      1.0000 0.42640  0.11060  0.71180  Biso   1.000  C
  C16      1.0000 0.51390  0.24340  0.71360  Biso   1.000  C
  C17      1.0000 0.52310  0.21330  0.70010  Biso   1.000  C
  O6       1.0000 0.46974  0.13868  0.68039  Biso   1.000  O
  C18      1.0000 0.50860  0.22340  0.69100  Biso   1.000  C
  O7       1.0000 0.47008  0.60459  0.14617  Biso   1.000  O
  C19      1.0000 0.45922  0.61553  0.16932  Biso   1.000  C
  C20      1.0000 0.43723  0.60069  0.18362  Biso   1.000  C
  C21      1.0000 0.42640  0.61060  0.21180  Biso   1.000  C
  C22      1.0000 0.51390  0.74340  0.21360  Biso   1.000  C
  C23      1.0000 0.52310  0.71330  0.20010  Biso   1.000  C
  O8       1.0000 0.46974  0.63868  0.18039  Biso   1.000  O
  C24      1.0000 0.50860  0.72340  0.19100  Biso   1.000  C
  O9       1.0000 0.02992  0.89541  0.14617  Biso   1.000  O
  C25      1.0000 0.04078  0.88447  0.16932  Biso   1.000  C
  C26      1.0000 0.06277  0.89931  0.18362  Biso   1.000  C
  C27      1.0000 0.07360  0.88940  0.21180  Biso   1.000  C
  C28      1.0000 0.98610  0.75660  0.21360  Biso   1.000  C
  C29      1.0000 0.97690  0.78670  0.20010  Biso   1.000  C
  O10      1.0000 0.03026  0.86132  0.18039  Biso   1.000  O
  C30      1.0000 0.99140  0.77660  0.19100  Biso   1.000  C
  O11      1.0000 0.02992  0.39541  0.64617  Biso   1.000  O
  C31      1.0000 0.04078  0.38447  0.66932  Biso   1.000  C
  C32      1.0000 0.06277  0.39931  0.68362  Biso   1.000  C
  C33      1.0000 0.07360  0.38940  0.71180  Biso   1.000  C
  C34      1.0000 0.98610  0.25660  0.71360  Biso   1.000  C
  C35      1.0000 0.97690  0.28670  0.70010  Biso   1.000  C
  O12      1.0000 0.03026  0.36132  0.68039  Biso   1.000  O
  C36      1.0000 0.99140  0.27660  0.69100  Biso   1.000  C
  O13      1.0000 0.52992  0.89541  0.64617  Biso   1.000  O
  C37      1.0000 0.54078  0.88447  0.66932  Biso   1.000  C
  C38      1.0000 0.56277  0.89931  0.68362  Biso   1.000  C
  C39      1.0000 0.57360  0.88940  0.71180  Biso   1.000  C
  C40      1.0000 0.48610  0.75660  0.71360  Biso   1.000  C
  C41      1.0000 0.47690  0.78670  0.70010  Biso   1.000  C
  O14      1.0000 0.53026  0.86132  0.68039  Biso   1.000  O
  C42      1.0000 0.49140  0.77660  0.69100  Biso   1.000  C
  O15      1.0000 0.52992  0.39541  0.14617  Biso   1.000  O
  C43      1.0000 0.54078  0.38447  0.16932  Biso   1.000  C
  C44      1.0000 0.56277  0.39931  0.18362  Biso   1.000  C
  C45      1.0000 0.57360  0.38940  0.21180  Biso   1.000  C
  C46      1.0000 0.48610  0.25660  0.21360  Biso   1.000  C
  C47      1.0000 0.47690  0.28670  0.20010  Biso   1.000  C
  O16      1.0000 0.53026  0.36132  0.18039  Biso   1.000  O
  C48      1.0000 0.49140  0.27660  0.19100  Biso   1.000  C
  O17      1.0000 0.02992  0.10459  0.85383  Biso   1.000  O
  C49      1.0000 0.04078  0.11553  0.83068  Biso   1.000  C
  C50      1.0000 0.06277  0.10069  0.81638  Biso   1.000  C
  C51      1.0000 0.07360  0.11060  0.78820  Biso   1.000  C
  C52      1.0000 0.98610  0.24340  0.78640  Biso   1.000  C
  C53      1.0000 0.97690  0.21330  0.79990  Biso   1.000  C
  O18      1.0000 0.03026  0.13868  0.81961  Biso   1.000  O
  C54      1.0000 0.99140  0.22340  0.80900  Biso   1.000  C
  O19      1.0000 0.02992  0.60459  0.35383  Biso   1.000  O
  C55      1.0000 0.04078  0.61553  0.33068  Biso   1.000  C
  C56      1.0000 0.06277  0.60069  0.31638  Biso   1.000  C
  C57      1.0000 0.07360  0.61060  0.28820  Biso   1.000  C
  C58      1.0000 0.98610  0.74340  0.28640  Biso   1.000  C
  C59      1.0000 0.97690  0.71330  0.29990  Biso   1.000  C
  O20      1.0000 0.03026  0.63868  0.31961  Biso   1.000  O
  C60      1.0000 0.99140  0.72340  0.30900  Biso   1.000  C
  O21      1.0000 0.52992  0.10459  0.35383  Biso   1.000  O
  C61      1.0000 0.54078  0.11553  0.33068  Biso   1.000  C
  C62      1.0000 0.56277  0.10069  0.31638  Biso   1.000  C
  C63      1.0000 0.57360  0.11060  0.28820  Biso   1.000  C
  C64      1.0000 0.48610  0.24340  0.28640  Biso   1.000  C
  C65      1.0000 0.47690  0.21330  0.29990  Biso   1.000  C
  O22      1.0000 0.53026  0.13868  0.31961  Biso   1.000  O
  C66      1.0000 0.49140  0.22340  0.30900  Biso   1.000  C
  O23      1.0000 0.52992  0.60459  0.85383  Biso   1.000  O
  C67      1.0000 0.54078  0.61553  0.83068  Biso   1.000  C
  C68      1.0000 0.56277  0.60069  0.81638  Biso   1.000  C
  C69      1.0000 0.57360  0.61060  0.78820  Biso   1.000  C
  C70      1.0000 0.48610  0.74340  0.78640  Biso   1.000  C
  C71      1.0000 0.47690  0.71330  0.79990  Biso   1.000  C
  O24      1.0000 0.53026  0.63868  0.81961  Biso   1.000  O
  C72      1.0000 0.49140  0.72340  0.80900  Biso   1.000  C
  O25      1.0000 0.97008  0.89541  0.85383  Biso   1.000  O
  C73      1.0000 0.95922  0.88447  0.83068  Biso   1.000  C
  C74      1.0000 0.93723  0.89931  0.81638  Biso   1.000  C
  C75      1.0000 0.92640  0.88940  0.78820  Biso   1.000  C
  C76      1.0000 0.01390  0.75660  0.78640  Biso   1.000  C
  C77      1.0000 0.02310  0.78670  0.79990  Biso   1.000  C
  O26      1.0000 0.96974  0.86132  0.81961  Biso   1.000  O
  C78      1.0000 0.00860  0.77660  0.80900  Biso   1.000  C
  O27      1.0000 0.97008  0.39541  0.35383  Biso   1.000  O
  C79      1.0000 0.95922  0.38447  0.33068  Biso   1.000  C
  C80      1.0000 0.93723  0.39931  0.31638  Biso   1.000  C
  C81      1.0000 0.92640  0.38940  0.28820  Biso   1.000  C
  C82      1.0000 0.01390  0.25660  0.28640  Biso   1.000  C
  C83      1.0000 0.02310  0.28670  0.29990  Biso   1.000  C
  O28      1.0000 0.96974  0.36132  0.31961  Biso   1.000  O
  C84      1.0000 0.00860  0.27660  0.30900  Biso   1.000  C
  O29      1.0000 0.47008  0.89541  0.35383  Biso   1.000  O
  C85      1.0000 0.45922  0.88447  0.33068  Biso   1.000  C
  C86      1.0000 0.43723  0.89931  0.31638  Biso   1.000  C
  C87      1.0000 0.42640  0.88940  0.28820  Biso   1.000  C
  C88      1.0000 0.51390  0.75660  0.28640  Biso   1.000  C
  C89      1.0000 0.52310  0.78670  0.29990  Biso   1.000  C
  O30      1.0000 0.46974  0.86132  0.31961  Biso   1.000  O
  C90      1.0000 0.50860  0.77660  0.30900  Biso   1.000  C
  O31      1.0000 0.47008  0.39541  0.85383  Biso   1.000  O
  C91      1.0000 0.45922  0.38447  0.83068  Biso   1.000  C
  C92      1.0000 0.43723  0.39931  0.81638  Biso   1.000  C
  C93      1.0000 0.42640  0.38940  0.78820  Biso   1.000  C
  C94      1.0000 0.51390  0.25660  0.78640  Biso   1.000  C
  C95      1.0000 0.52310  0.28670  0.79990  Biso   1.000  C
  O32      1.0000 0.46974  0.36132  0.81961  Biso   1.000  O
  C96      1.0000 0.50860  0.27660  0.80900  Biso   1.000  C
  O33      1.0000 0.14617  0.97008  0.10459  Biso   1.000  O
  C97      1.0000 0.16932  0.95922  0.11553  Biso   1.000  C
  C98      1.0000 0.18362  0.93723  0.10069  Biso   1.000  C
  C99      1.0000 0.21180  0.92640  0.11060  Biso   1.000  C
  C100     1.0000 0.21360  0.01390  0.24340  Biso   1.000  C
  C101     1.0000 0.20010  0.02310  0.21330  Biso   1.000  C
  O34      1.0000 0.18039  0.96974  0.13868  Biso   1.000  O
  C102     1.0000 0.19100  0.00860  0.22340  Biso   1.000  C
  O35      1.0000 0.14617  0.47008  0.60459  Biso   1.000  O
  C103     1.0000 0.16932  0.45922  0.61553  Biso   1.000  C
  C104     1.0000 0.18362  0.43723  0.60069  Biso   1.000  C
  C105     1.0000 0.21180  0.42640  0.61060  Biso   1.000  C
  C106     1.0000 0.21360  0.51390  0.74340  Biso   1.000  C
  C107     1.0000 0.20010  0.52310  0.71330  Biso   1.000  C
  O36      1.0000 0.18039  0.46974  0.63868  Biso   1.000  O
  C108     1.0000 0.19100  0.50860  0.72340  Biso   1.000  C
  O37      1.0000 0.64617  0.97008  0.60459  Biso   1.000  O
  C109     1.0000 0.66932  0.95922  0.61553  Biso   1.000  C
  C110     1.0000 0.68362  0.93723  0.60069  Biso   1.000  C
  C111     1.0000 0.71180  0.92640  0.61060  Biso   1.000  C
  C112     1.0000 0.71360  0.01390  0.74340  Biso   1.000  C
  C113     1.0000 0.70010  0.02310  0.71330  Biso   1.000  C
  O38      1.0000 0.68039  0.96974  0.63868  Biso   1.000  O
  C114     1.0000 0.69100  0.00860  0.72340  Biso   1.000  C
  O39      1.0000 0.64617  0.47008  0.10459  Biso   1.000  O
  C115     1.0000 0.66932  0.45922  0.11553  Biso   1.000  C
  C116     1.0000 0.68362  0.43723  0.10069  Biso   1.000  C
  C117     1.0000 0.71180  0.42640  0.11060  Biso   1.000  C
  C118     1.0000 0.71360  0.51390  0.24340  Biso   1.000  C
  C119     1.0000 0.70010  0.52310  0.21330  Biso   1.000  C
  O40      1.0000 0.68039  0.46974  0.13868  Biso   1.000  O
  C120     1.0000 0.69100  0.50860  0.22340  Biso   1.000  C
  O41      1.0000 0.14617  0.02992  0.89541  Biso   1.000  O
  C121     1.0000 0.16932  0.04078  0.88447  Biso   1.000  C
  C122     1.0000 0.18362  0.06277  0.89931  Biso   1.000  C
  C123     1.0000 0.21180  0.07360  0.88940  Biso   1.000  C
  C124     1.0000 0.21360  0.98610  0.75660  Biso   1.000  C
  C125     1.0000 0.20010  0.97690  0.78670  Biso   1.000  C
  O42      1.0000 0.18039  0.03026  0.86132  Biso   1.000  O
  C126     1.0000 0.19100  0.99140  0.77660  Biso   1.000  C
  O43      1.0000 0.14617  0.52992  0.39541  Biso   1.000  O
  C127     1.0000 0.16932  0.54078  0.38447  Biso   1.000  C
  C128     1.0000 0.18362  0.56277  0.39931  Biso   1.000  C
  C129     1.0000 0.21180  0.57360  0.38940  Biso   1.000  C
  C130     1.0000 0.21360  0.48610  0.25660  Biso   1.000  C
  C131     1.0000 0.20010  0.47690  0.28670  Biso   1.000  C
  O44      1.0000 0.18039  0.53026  0.36132  Biso   1.000  O
  C132     1.0000 0.19100  0.49140  0.27660  Biso   1.000  C
  O45      1.0000 0.64617  0.02992  0.39541  Biso   1.000  O
  C133     1.0000 0.66932  0.04078  0.38447  Biso   1.000  C
  C134     1.0000 0.68362  0.06277  0.39931  Biso   1.000  C
  C135     1.0000 0.71180  0.07360  0.38940  Biso   1.000  C
  C136     1.0000 0.71360  0.98610  0.25660  Biso   1.000  C
  C137     1.0000 0.70010  0.97690  0.28670  Biso   1.000  C
  O46      1.0000 0.68039  0.03026  0.36132  Biso   1.000  O
  C138     1.0000 0.69100  0.99140  0.27660  Biso   1.000  C
  O47      1.0000 0.64617  0.52992  0.89541  Biso   1.000  O
  C139     1.0000 0.66932  0.54078  0.88447  Biso   1.000  C
  C140     1.0000 0.68362  0.56277  0.89931  Biso   1.000  C
  C141     1.0000 0.71180  0.57360  0.88940  Biso   1.000  C
  C142     1.0000 0.71360  0.48610  0.75660  Biso   1.000  C
  C143     1.0000 0.70010  0.47690  0.78670  Biso   1.000  C
  O48      1.0000 0.68039  0.53026  0.86132  Biso   1.000  O
  C144     1.0000 0.69100  0.49140  0.77660  Biso   1.000  C
  O49      1.0000 0.85383  0.02992  0.10459  Biso   1.000  O
  C145     1.0000 0.83068  0.04078  0.11553  Biso   1.000  C
  C146     1.0000 0.81638  0.06277  0.10069  Biso   1.000  C
  C147     1.0000 0.78820  0.07360  0.11060  Biso   1.000  C
  C148     1.0000 0.78640  0.98610  0.24340  Biso   1.000  C
  C149     1.0000 0.79990  0.97690  0.21330  Biso   1.000  C
  O50      1.0000 0.81961  0.03026  0.13868  Biso   1.000  O
  C150     1.0000 0.80900  0.99140  0.22340  Biso   1.000  C
  O51      1.0000 0.85383  0.52992  0.60459  Biso   1.000  O
  C151     1.0000 0.83068  0.54078  0.61553  Biso   1.000  C
  C152     1.0000 0.81638  0.56277  0.60069  Biso   1.000  C
  C153     1.0000 0.78820  0.57360  0.61060  Biso   1.000  C
  C154     1.0000 0.78640  0.48610  0.74340  Biso   1.000  C
  C155     1.0000 0.79990  0.47690  0.71330  Biso   1.000  C
  O52      1.0000 0.81961  0.53026  0.63868  Biso   1.000  O
  C156     1.0000 0.80900  0.49140  0.72340  Biso   1.000  C
  O53      1.0000 0.35383  0.02992  0.60459  Biso   1.000  O
  C157     1.0000 0.33068  0.04078  0.61553  Biso   1.000  C
  C158     1.0000 0.31638  0.06277  0.60069  Biso   1.000  C
  C159     1.0000 0.28820  0.07360  0.61060  Biso   1.000  C
  C160     1.0000 0.28640  0.98610  0.74340  Biso   1.000  C
  C161     1.0000 0.29990  0.97690  0.71330  Biso   1.000  C
  O54      1.0000 0.31961  0.03026  0.63868  Biso   1.000  O
  C162     1.0000 0.30900  0.99140  0.72340  Biso   1.000  C
  O55      1.0000 0.35383  0.52992  0.10459  Biso   1.000  O
  C163     1.0000 0.33068  0.54078  0.11553  Biso   1.000  C
  C164     1.0000 0.31638  0.56277  0.10069  Biso   1.000  C
  C165     1.0000 0.28820  0.57360  0.11060  Biso   1.000  C
  C166     1.0000 0.28640  0.48610  0.24340  Biso   1.000  C
  C167     1.0000 0.29990  0.47690  0.21330  Biso   1.000  C
  O56      1.0000 0.31961  0.53026  0.13868  Biso   1.000  O
  C168     1.0000 0.30900  0.49140  0.22340  Biso   1.000  C
  O57      1.0000 0.85383  0.97008  0.89541  Biso   1.000  O
  C169     1.0000 0.83068  0.95922  0.88447  Biso   1.000  C
  C170     1.0000 0.81638  0.93723  0.89931  Biso   1.000  C
  C171     1.0000 0.78820  0.92640  0.88940  Biso   1.000  C
  C172     1.0000 0.78640  0.01390  0.75660  Biso   1.000  C
  C173     1.0000 0.79990  0.02310  0.78670  Biso   1.000  C
  O58      1.0000 0.81961  0.96974  0.86132  Biso   1.000  O
  C174     1.0000 0.80900  0.00860  0.77660  Biso   1.000  C
  O59      1.0000 0.85383  0.47008  0.39541  Biso   1.000  O
  C175     1.0000 0.83068  0.45922  0.38447  Biso   1.000  C
  C176     1.0000 0.81638  0.43723  0.39931  Biso   1.000  C
  C177     1.0000 0.78820  0.42640  0.38940  Biso   1.000  C
  C178     1.0000 0.78640  0.51390  0.25660  Biso   1.000  C
  C179     1.0000 0.79990  0.52310  0.28670  Biso   1.000  C
  O60      1.0000 0.81961  0.46974  0.36132  Biso   1.000  O
  C180     1.0000 0.80900  0.50860  0.27660  Biso   1.000  C
  O61      1.0000 0.35383  0.97008  0.39541  Biso   1.000  O
  C181     1.0000 0.33068  0.95922  0.38447  Biso   1.000  C
  C182     1.0000 0.31638  0.93723  0.39931  Biso   1.000  C
  C183     1.0000 0.28820  0.92640  0.38940  Biso   1.000  C
  C184     1.0000 0.28640  0.01390  0.25660  Biso   1.000  C
  C185     1.0000 0.29990  0.02310  0.28670  Biso   1.000  C
  O62      1.0000 0.31961  0.96974  0.36132  Biso   1.000  O
  C186     1.0000 0.30900  0.00860  0.27660  Biso   1.000  C
  O63      1.0000 0.35383  0.47008  0.89541  Biso   1.000  O
  C187     1.0000 0.33068  0.45922  0.88447  Biso   1.000  C
  C188     1.0000 0.31638  0.43723  0.89931  Biso   1.000  C
  C189     1.0000 0.28820  0.42640  0.88940  Biso   1.000  C
  C190     1.0000 0.28640  0.51390  0.75660  Biso   1.000  C
  C191     1.0000 0.29990  0.52310  0.78670  Biso   1.000  C
  O64      1.0000 0.31961  0.46974  0.86132  Biso   1.000  O
  C192     1.0000 0.30900  0.50860  0.77660  Biso   1.000  C
  O65      1.0000 0.10459  0.14617  0.97008  Biso   1.000  O
  C193     1.0000 0.11553  0.16932  0.95922  Biso   1.000  C
  C194     1.0000 0.10069  0.18362  0.93723  Biso   1.000  C
  C195     1.0000 0.11060  0.21180  0.92640  Biso   1.000  C
  C196     1.0000 0.24340  0.21360  0.01390  Biso   1.000  C
  C197     1.0000 0.21330  0.20010  0.02310  Biso   1.000  C
  O66      1.0000 0.13868  0.18039  0.96974  Biso   1.000  O
  C198     1.0000 0.22340  0.19100  0.00860  Biso   1.000  C
  O67      1.0000 0.10459  0.64617  0.47008  Biso   1.000  O
  C199     1.0000 0.11553  0.66932  0.45922  Biso   1.000  C
  C200     1.0000 0.10069  0.68362  0.43723  Biso   1.000  C
  C201     1.0000 0.11060  0.71180  0.42640  Biso   1.000  C
  C202     1.0000 0.24340  0.71360  0.51390  Biso   1.000  C
  C203     1.0000 0.21330  0.70010  0.52310  Biso   1.000  C
  O68      1.0000 0.13868  0.68039  0.46974  Biso   1.000  O
  C204     1.0000 0.22340  0.69100  0.50860  Biso   1.000  C
  O69      1.0000 0.60459  0.14617  0.47008  Biso   1.000  O
  C205     1.0000 0.61553  0.16932  0.45922  Biso   1.000  C
  C206     1.0000 0.60069  0.18362  0.43723  Biso   1.000  C
  C207     1.0000 0.61060  0.21180  0.42640  Biso   1.000  C
  C208     1.0000 0.74340  0.21360  0.51390  Biso   1.000  C
  C209     1.0000 0.71330  0.20010  0.52310  Biso   1.000  C
  O70      1.0000 0.63868  0.18039  0.46974  Biso   1.000  O
  C210     1.0000 0.72340  0.19100  0.50860  Biso   1.000  C
  O71      1.0000 0.60459  0.64617  0.97008  Biso   1.000  O
  C211     1.0000 0.61553  0.66932  0.95922  Biso   1.000  C
  C212     1.0000 0.60069  0.68362  0.93723  Biso   1.000  C
  C213     1.0000 0.61060  0.71180  0.92640  Biso   1.000  C
  C214     1.0000 0.74340  0.71360  0.01390  Biso   1.000  C
  C215     1.0000 0.71330  0.70010  0.02310  Biso   1.000  C
  O72      1.0000 0.63868  0.68039  0.96974  Biso   1.000  O
  C216     1.0000 0.72340  0.69100  0.00860  Biso   1.000  C
  O73      1.0000 0.89541  0.14617  0.02992  Biso   1.000  O
  C217     1.0000 0.88447  0.16932  0.04078  Biso   1.000  C
  C218     1.0000 0.89931  0.18362  0.06277  Biso   1.000  C
  C219     1.0000 0.88940  0.21180  0.07360  Biso   1.000  C
  C220     1.0000 0.75660  0.21360  0.98610  Biso   1.000  C
  C221     1.0000 0.78670  0.20010  0.97690  Biso   1.000  C
  O74      1.0000 0.86132  0.18039  0.03026  Biso   1.000  O
  C222     1.0000 0.77660  0.19100  0.99140  Biso   1.000  C
  O75      1.0000 0.89541  0.64617  0.52992  Biso   1.000  O
  C223     1.0000 0.88447  0.66932  0.54078  Biso   1.000  C
  C224     1.0000 0.89931  0.68362  0.56277  Biso   1.000  C
  C225     1.0000 0.88940  0.71180  0.57360  Biso   1.000  C
  C226     1.0000 0.75660  0.71360  0.48610  Biso   1.000  C
  C227     1.0000 0.78670  0.70010  0.47690  Biso   1.000  C
  O76      1.0000 0.86132  0.68039  0.53026  Biso   1.000  O
  C228     1.0000 0.77660  0.69100  0.49140  Biso   1.000  C
  O77      1.0000 0.39541  0.14617  0.52992  Biso   1.000  O
  C229     1.0000 0.38447  0.16932  0.54078  Biso   1.000  C
  C230     1.0000 0.39931  0.18362  0.56277  Biso   1.000  C
  C231     1.0000 0.38940  0.21180  0.57360  Biso   1.000  C
  C232     1.0000 0.25660  0.21360  0.48610  Biso   1.000  C
  C233     1.0000 0.28670  0.20010  0.47690  Biso   1.000  C
  O78      1.0000 0.36132  0.18039  0.53026  Biso   1.000  O
  C234     1.0000 0.27660  0.19100  0.49140  Biso   1.000  C
  O79      1.0000 0.39541  0.64617  0.02992  Biso   1.000  O
  C235     1.0000 0.38447  0.66932  0.04078  Biso   1.000  C
  C236     1.0000 0.39931  0.68362  0.06277  Biso   1.000  C
  C237     1.0000 0.38940  0.71180  0.07360  Biso   1.000  C
  C238     1.0000 0.25660  0.71360  0.98610  Biso   1.000  C
  C239     1.0000 0.28670  0.70010  0.97690  Biso   1.000  C
  O80      1.0000 0.36132  0.68039  0.03026  Biso   1.000  O
  C240     1.0000 0.27660  0.69100  0.99140  Biso   1.000  C
  O81      1.0000 0.10459  0.85383  0.02992  Biso   1.000  O
  C241     1.0000 0.11553  0.83068  0.04078  Biso   1.000  C
  C242     1.0000 0.10069  0.81638  0.06277  Biso   1.000  C
  C243     1.0000 0.11060  0.78820  0.07360  Biso   1.000  C
  C244     1.0000 0.24340  0.78640  0.98610  Biso   1.000  C
  C245     1.0000 0.21330  0.79990  0.97690  Biso   1.000  C
  O82      1.0000 0.13868  0.81961  0.03026  Biso   1.000  O
  C246     1.0000 0.22340  0.80900  0.99140  Biso   1.000  C
  O83      1.0000 0.10459  0.35383  0.52992  Biso   1.000  O
  C247     1.0000 0.11553  0.33068  0.54078  Biso   1.000  C
  C248     1.0000 0.10069  0.31638  0.56277  Biso   1.000  C
  C249     1.0000 0.11060  0.28820  0.57360  Biso   1.000  C
  C250     1.0000 0.24340  0.28640  0.48610  Biso   1.000  C
  C251     1.0000 0.21330  0.29990  0.47690  Biso   1.000  C
  O84      1.0000 0.13868  0.31961  0.53026  Biso   1.000  O
  C252     1.0000 0.22340  0.30900  0.49140  Biso   1.000  C
  O85      1.0000 0.60459  0.85383  0.52992  Biso   1.000  O
  C253     1.0000 0.61553  0.83068  0.54078  Biso   1.000  C
  C254     1.0000 0.60069  0.81638  0.56277  Biso   1.000  C
  C255     1.0000 0.61060  0.78820  0.57360  Biso   1.000  C
  C256     1.0000 0.74340  0.78640  0.48610  Biso   1.000  C
  C257     1.0000 0.71330  0.79990  0.47690  Biso   1.000  C
  O86      1.0000 0.63868  0.81961  0.53026  Biso   1.000  O
  C258     1.0000 0.72340  0.80900  0.49140  Biso   1.000  C
  O87      1.0000 0.60459  0.35383  0.02992  Biso   1.000  O
  C259     1.0000 0.61553  0.33068  0.04078  Biso   1.000  C
  C260     1.0000 0.60069  0.31638  0.06277  Biso   1.000  C
  C261     1.0000 0.61060  0.28820  0.07360  Biso   1.000  C
  C262     1.0000 0.74340  0.28640  0.98610  Biso   1.000  C
  C263     1.0000 0.71330  0.29990  0.97690  Biso   1.000  C
  O88      1.0000 0.63868  0.31961  0.03026  Biso   1.000  O
  C264     1.0000 0.72340  0.30900  0.99140  Biso   1.000  C
  O89      1.0000 0.89541  0.85383  0.97008  Biso   1.000  O
  C265     1.0000 0.88447  0.83068  0.95922  Biso   1.000  C
  C266     1.0000 0.89931  0.81638  0.93723  Biso   1.000  C
  C267     1.0000 0.88940  0.78820  0.92640  Biso   1.000  C
  C268     1.0000 0.75660  0.78640  0.01390  Biso   1.000  C
  C269     1.0000 0.78670  0.79990  0.02310  Biso   1.000  C
  O90      1.0000 0.86132  0.81961  0.96974  Biso   1.000  O
  C270     1.0000 0.77660  0.80900  0.00860  Biso   1.000  C
  O91      1.0000 0.89541  0.35383  0.47008  Biso   1.000  O
  C271     1.0000 0.88447  0.33068  0.45922  Biso   1.000  C
  C272     1.0000 0.89931  0.31638  0.43723  Biso   1.000  C
  C273     1.0000 0.88940  0.28820  0.42640  Biso   1.000  C
  C274     1.0000 0.75660  0.28640  0.51390  Biso   1.000  C
  C275     1.0000 0.78670  0.29990  0.52310  Biso   1.000  C
  O92      1.0000 0.86132  0.31961  0.46974  Biso   1.000  O
  C276     1.0000 0.77660  0.30900  0.50860  Biso   1.000  C
  O93      1.0000 0.39541  0.85383  0.47008  Biso   1.000  O
  C277     1.0000 0.38447  0.83068  0.45922  Biso   1.000  C
  C278     1.0000 0.39931  0.81638  0.43723  Biso   1.000  C
  C279     1.0000 0.38940  0.78820  0.42640  Biso   1.000  C
  C280     1.0000 0.25660  0.78640  0.51390  Biso   1.000  C
  C281     1.0000 0.28670  0.79990  0.52310  Biso   1.000  C
  O94      1.0000 0.36132  0.81961  0.46974  Biso   1.000  O
  C282     1.0000 0.27660  0.80900  0.50860  Biso   1.000  C
  O95      1.0000 0.39541  0.35383  0.97008  Biso   1.000  O
  C283     1.0000 0.38447  0.33068  0.95922  Biso   1.000  C
  C284     1.0000 0.39931  0.31638  0.93723  Biso   1.000  C
  C285     1.0000 0.38940  0.28820  0.92640  Biso   1.000  C
  C286     1.0000 0.25660  0.28640  0.01390  Biso   1.000  C
  C287     1.0000 0.28670  0.29990  0.02310  Biso   1.000  C
  O96      1.0000 0.36132  0.31961  0.96974  Biso   1.000  O
  C288     1.0000 0.27660  0.30900  0.00860  Biso   1.000  C
  O97      1.0000 0.10459  0.97008  0.85383  Biso   1.000  O
  C289     1.0000 0.11553  0.95922  0.83068  Biso   1.000  C
  C290     1.0000 0.10069  0.93723  0.81638  Biso   1.000  C
  C291     1.0000 0.11060  0.92640  0.78820  Biso   1.000  C
  C292     1.0000 0.24340  0.01390  0.78640  Biso   1.000  C
  C293     1.0000 0.21330  0.02310  0.79990  Biso   1.000  C
  O98      1.0000 0.13868  0.96974  0.81961  Biso   1.000  O
  C294     1.0000 0.22340  0.00860  0.80900  Biso   1.000  C
  O99      1.0000 0.10459  0.47008  0.35383  Biso   1.000  O
  C295     1.0000 0.11553  0.45922  0.33068  Biso   1.000  C
  C296     1.0000 0.10069  0.43723  0.31638  Biso   1.000  C
  C297     1.0000 0.11060  0.42640  0.28820  Biso   1.000  C
  C298     1.0000 0.24340  0.51390  0.28640  Biso   1.000  C
  C299     1.0000 0.21330  0.52310  0.29990  Biso   1.000  C
  O100     1.0000 0.13868  0.46974  0.31961  Biso   1.000  O
  C300     1.0000 0.22340  0.50860  0.30900  Biso   1.000  C
  O101     1.0000 0.60459  0.97008  0.35383  Biso   1.000  O
  C301     1.0000 0.61553  0.95922  0.33068  Biso   1.000  C
  C302     1.0000 0.60069  0.93723  0.31638  Biso   1.000  C
  C303     1.0000 0.61060  0.92640  0.28820  Biso   1.000  C
  C304     1.0000 0.74340  0.01390  0.28640  Biso   1.000  C
  C305     1.0000 0.71330  0.02310  0.29990  Biso   1.000  C
  O102     1.0000 0.63868  0.96974  0.31961  Biso   1.000  O
  C306     1.0000 0.72340  0.00860  0.30900  Biso   1.000  C
  O103     1.0000 0.60459  0.47008  0.85383  Biso   1.000  O
  C307     1.0000 0.61553  0.45922  0.83068  Biso   1.000  C
  C308     1.0000 0.60069  0.43723  0.81638  Biso   1.000  C
  C309     1.0000 0.61060  0.42640  0.78820  Biso   1.000  C
  C310     1.0000 0.74340  0.51390  0.78640  Biso   1.000  C
  C311     1.0000 0.71330  0.52310  0.79990  Biso   1.000  C
  O104     1.0000 0.63868  0.46974  0.81961  Biso   1.000  O
  C312     1.0000 0.72340  0.50860  0.80900  Biso   1.000  C
  O105     1.0000 0.89541  0.02992  0.85383  Biso   1.000  O
  C313     1.0000 0.88447  0.04078  0.83068  Biso   1.000  C
  C314     1.0000 0.89931  0.06277  0.81638  Biso   1.000  C
  C315     1.0000 0.88940  0.07360  0.78820  Biso   1.000  C
  C316     1.0000 0.75660  0.98610  0.78640  Biso   1.000  C
  C317     1.0000 0.78670  0.97690  0.79990  Biso   1.000  C
  O106     1.0000 0.86132  0.03026  0.81961  Biso   1.000  O
  C318     1.0000 0.77660  0.99140  0.80900  Biso   1.000  C
  O107     1.0000 0.89541  0.52992  0.35383  Biso   1.000  O
  C319     1.0000 0.88447  0.54078  0.33068  Biso   1.000  C
  C320     1.0000 0.89931  0.56277  0.31638  Biso   1.000  C
  C321     1.0000 0.88940  0.57360  0.28820  Biso   1.000  C
  C322     1.0000 0.75660  0.48610  0.28640  Biso   1.000  C
  C323     1.0000 0.78670  0.47690  0.29990  Biso   1.000  C
  O108     1.0000 0.86132  0.53026  0.31961  Biso   1.000  O
  C324     1.0000 0.77660  0.49140  0.30900  Biso   1.000  C
  O109     1.0000 0.39541  0.02992  0.35383  Biso   1.000  O
  C325     1.0000 0.38447  0.04078  0.33068  Biso   1.000  C
  C326     1.0000 0.39931  0.06277  0.31638  Biso   1.000  C
  C327     1.0000 0.38940  0.07360  0.28820  Biso   1.000  C
  C328     1.0000 0.25660  0.98610  0.28640  Biso   1.000  C
  C329     1.0000 0.28670  0.97690  0.29990  Biso   1.000  C
  O110     1.0000 0.36132  0.03026  0.31961  Biso   1.000  O
  C330     1.0000 0.27660  0.99140  0.30900  Biso   1.000  C
  O111     1.0000 0.39541  0.52992  0.85383  Biso   1.000  O
  C331     1.0000 0.38447  0.54078  0.83068  Biso   1.000  C
  C332     1.0000 0.39931  0.56277  0.81638  Biso   1.000  C
  C333     1.0000 0.38940  0.57360  0.78820  Biso   1.000  C
  C334     1.0000 0.25660  0.48610  0.78640  Biso   1.000  C
  C335     1.0000 0.28670  0.47690  0.79990  Biso   1.000  C
  O112     1.0000 0.36132  0.53026  0.81961  Biso   1.000  O
  C336     1.0000 0.27660  0.49140  0.80900  Biso   1.000  C
  O113     1.0000 0.10459  0.02992  0.14617  Biso   1.000  O
  C337     1.0000 0.11553  0.04078  0.16932  Biso   1.000  C
  C338     1.0000 0.10069  0.06277  0.18362  Biso   1.000  C
  C339     1.0000 0.11060  0.07360  0.21180  Biso   1.000  C
  C340     1.0000 0.24340  0.98610  0.21360  Biso   1.000  C
  C341     1.0000 0.21330  0.97690  0.20010  Biso   1.000  C
  O114     1.0000 0.13868  0.03026  0.18039  Biso   1.000  O
  C342     1.0000 0.22340  0.99140  0.19100  Biso   1.000  C
  O115     1.0000 0.10459  0.52992  0.64617  Biso   1.000  O
  C343     1.0000 0.11553  0.54078  0.66932  Biso   1.000  C
  C344     1.0000 0.10069  0.56277  0.68362  Biso   1.000  C
  C345     1.0000 0.11060  0.57360  0.71180  Biso   1.000  C
  C346     1.0000 0.24340  0.48610  0.71360  Biso   1.000  C
  C347     1.0000 0.21330  0.47690  0.70010  Biso   1.000  C
  O116     1.0000 0.13868  0.53026  0.68039  Biso   1.000  O
  C348     1.0000 0.22340  0.49140  0.69100  Biso   1.000  C
  O117     1.0000 0.60459  0.02992  0.64617  Biso   1.000  O
  C349     1.0000 0.61553  0.04078  0.66932  Biso   1.000  C
  C350     1.0000 0.60069  0.06277  0.68362  Biso   1.000  C
  C351     1.0000 0.61060  0.07360  0.71180  Biso   1.000  C
  C352     1.0000 0.74340  0.98610  0.71360  Biso   1.000  C
  C353     1.0000 0.71330  0.97690  0.70010  Biso   1.000  C
  O118     1.0000 0.63868  0.03026  0.68039  Biso   1.000  O
  C354     1.0000 0.72340  0.99140  0.69100  Biso   1.000  C
  O119     1.0000 0.60459  0.52992  0.14617  Biso   1.000  O
  C355     1.0000 0.61553  0.54078  0.16932  Biso   1.000  C
  C356     1.0000 0.60069  0.56277  0.18362  Biso   1.000  C
  C357     1.0000 0.61060  0.57360  0.21180  Biso   1.000  C
  C358     1.0000 0.74340  0.48610  0.21360  Biso   1.000  C
  C359     1.0000 0.71330  0.47690  0.20010  Biso   1.000  C
  O120     1.0000 0.63868  0.53026  0.18039  Biso   1.000  O
  C360     1.0000 0.72340  0.49140  0.19100  Biso   1.000  C
  O121     1.0000 0.89541  0.97008  0.14617  Biso   1.000  O
  C361     1.0000 0.88447  0.95922  0.16932  Biso   1.000  C
  C362     1.0000 0.89931  0.93723  0.18362  Biso   1.000  C
  C363     1.0000 0.88940  0.92640  0.21180  Biso   1.000  C
  C364     1.0000 0.75660  0.01390  0.21360  Biso   1.000  C
  C365     1.0000 0.78670  0.02310  0.20010  Biso   1.000  C
  O122     1.0000 0.86132  0.96974  0.18039  Biso   1.000  O
  C366     1.0000 0.77660  0.00860  0.19100  Biso   1.000  C
  O123     1.0000 0.89541  0.47008  0.64617  Biso   1.000  O
  C367     1.0000 0.88447  0.45922  0.66932  Biso   1.000  C
  C368     1.0000 0.89931  0.43723  0.68362  Biso   1.000  C
  C369     1.0000 0.88940  0.42640  0.71180  Biso   1.000  C
  C370     1.0000 0.75660  0.51390  0.71360  Biso   1.000  C
  C371     1.0000 0.78670  0.52310  0.70010  Biso   1.000  C
  O124     1.0000 0.86132  0.46974  0.68039  Biso   1.000  O
  C372     1.0000 0.77660  0.50860  0.69100  Biso   1.000  C
  O125     1.0000 0.39541  0.97008  0.64617  Biso   1.000  O
  C373     1.0000 0.38447  0.95922  0.66932  Biso   1.000  C
  C374     1.0000 0.39931  0.93723  0.68362  Biso   1.000  C
  C375     1.0000 0.38940  0.92640  0.71180  Biso   1.000  C
  C376     1.0000 0.25660  0.01390  0.71360  Biso   1.000  C
  C377     1.0000 0.28670  0.02310  0.70010  Biso   1.000  C
  O126     1.0000 0.36132  0.96974  0.68039  Biso   1.000  O
  C378     1.0000 0.27660  0.00860  0.69100  Biso   1.000  C
  O127     1.0000 0.39541  0.47008  0.14617  Biso   1.000  O
  C379     1.0000 0.38447  0.45922  0.16932  Biso   1.000  C
  C380     1.0000 0.39931  0.43723  0.18362  Biso   1.000  C
  C381     1.0000 0.38940  0.42640  0.21180  Biso   1.000  C
  C382     1.0000 0.25660  0.51390  0.21360  Biso   1.000  C
  C383     1.0000 0.28670  0.52310  0.20010  Biso   1.000  C
  O128     1.0000 0.36132  0.46974  0.18039  Biso   1.000  O
  C384     1.0000 0.27660  0.50860  0.19100  Biso   1.000  C
  O129     1.0000 0.97008  0.14617  0.89541  Biso   1.000  O
  C385     1.0000 0.95922  0.16932  0.88447  Biso   1.000  C
  C386     1.0000 0.93723  0.18362  0.89931  Biso   1.000  C
  C387     1.0000 0.92640  0.21180  0.88940  Biso   1.000  C
  C388     1.0000 0.01390  0.21360  0.75660  Biso   1.000  C
  C389     1.0000 0.02310  0.20010  0.78670  Biso   1.000  C
  O130     1.0000 0.96974  0.18039  0.86132  Biso   1.000  O
  C390     1.0000 0.00860  0.19100  0.77660  Biso   1.000  C
  O131     1.0000 0.97008  0.64617  0.39541  Biso   1.000  O
  C391     1.0000 0.95922  0.66932  0.38447  Biso   1.000  C
  C392     1.0000 0.93723  0.68362  0.39931  Biso   1.000  C
  C393     1.0000 0.92640  0.71180  0.38940  Biso   1.000  C
  C394     1.0000 0.01390  0.71360  0.25660  Biso   1.000  C
  C395     1.0000 0.02310  0.70010  0.28670  Biso   1.000  C
  O132     1.0000 0.96974  0.68039  0.36132  Biso   1.000  O
  C396     1.0000 0.00860  0.69100  0.27660  Biso   1.000  C
  O133     1.0000 0.47008  0.14617  0.39541  Biso   1.000  O
  C397     1.0000 0.45922  0.16932  0.38447  Biso   1.000  C
  C398     1.0000 0.43723  0.18362  0.39931  Biso   1.000  C
  C399     1.0000 0.42640  0.21180  0.38940  Biso   1.000  C
  C400     1.0000 0.51390  0.21360  0.25660  Biso   1.000  C
  C401     1.0000 0.52310  0.20010  0.28670  Biso   1.000  C
  O134     1.0000 0.46974  0.18039  0.36132  Biso   1.000  O
  C402     1.0000 0.50860  0.19100  0.27660  Biso   1.000  C
  O135     1.0000 0.47008  0.64617  0.89541  Biso   1.000  O
  C403     1.0000 0.45922  0.66932  0.88447  Biso   1.000  C
  C404     1.0000 0.43723  0.68362  0.89931  Biso   1.000  C
  C405     1.0000 0.42640  0.71180  0.88940  Biso   1.000  C
  C406     1.0000 0.51390  0.71360  0.75660  Biso   1.000  C
  C407     1.0000 0.52310  0.70010  0.78670  Biso   1.000  C
  O136     1.0000 0.46974  0.68039  0.86132  Biso   1.000  O
  C408     1.0000 0.50860  0.69100  0.77660  Biso   1.000  C
  O137     1.0000 0.02992  0.14617  0.10459  Biso   1.000  O
  C409     1.0000 0.04078  0.16932  0.11553  Biso   1.000  C
  C410     1.0000 0.06277  0.18362  0.10069  Biso   1.000  C
  C411     1.0000 0.07360  0.21180  0.11060  Biso   1.000  C
  C412     1.0000 0.98610  0.21360  0.24340  Biso   1.000  C
  C413     1.0000 0.97690  0.20010  0.21330  Biso   1.000  C
  O138     1.0000 0.03026  0.18039  0.13868  Biso   1.000  O
  C414     1.0000 0.99140  0.19100  0.22340  Biso   1.000  C
  O139     1.0000 0.02992  0.64617  0.60459  Biso   1.000  O
  C415     1.0000 0.04078  0.66932  0.61553  Biso   1.000  C
  C416     1.0000 0.06277  0.68362  0.60069  Biso   1.000  C
  C417     1.0000 0.07360  0.71180  0.61060  Biso   1.000  C
  C418     1.0000 0.98610  0.71360  0.74340  Biso   1.000  C
  C419     1.0000 0.97690  0.70010  0.71330  Biso   1.000  C
  O140     1.0000 0.03026  0.68039  0.63868  Biso   1.000  O
  C420     1.0000 0.99140  0.69100  0.72340  Biso   1.000  C
  O141     1.0000 0.52992  0.14617  0.60459  Biso   1.000  O
  C421     1.0000 0.54078  0.16932  0.61553  Biso   1.000  C
  C422     1.0000 0.56277  0.18362  0.60069  Biso   1.000  C
  C423     1.0000 0.57360  0.21180  0.61060  Biso   1.000  C
  C424     1.0000 0.48610  0.21360  0.74340  Biso   1.000  C
  C425     1.0000 0.47690  0.20010  0.71330  Biso   1.000  C
  O142     1.0000 0.53026  0.18039  0.63868  Biso   1.000  O
  C426     1.0000 0.49140  0.19100  0.72340  Biso   1.000  C
  O143     1.0000 0.52992  0.64617  0.10459  Biso   1.000  O
  C427     1.0000 0.54078  0.66932  0.11553  Biso   1.000  C
  C428     1.0000 0.56277  0.68362  0.10069  Biso   1.000  C
  C429     1.0000 0.57360  0.71180  0.11060  Biso   1.000  C
  C430     1.0000 0.48610  0.71360  0.24340  Biso   1.000  C
  C431     1.0000 0.47690  0.70010  0.21330  Biso   1.000  C
  O144     1.0000 0.53026  0.68039  0.13868  Biso   1.000  O
  C432     1.0000 0.49140  0.69100  0.22340  Biso   1.000  C
  O145     1.0000 0.02992  0.85383  0.89541  Biso   1.000  O
  C433     1.0000 0.04078  0.83068  0.88447  Biso   1.000  C
  C434     1.0000 0.06277  0.81638  0.89931  Biso   1.000  C
  C435     1.0000 0.07360  0.78820  0.88940  Biso   1.000  C
  C436     1.0000 0.98610  0.78640  0.75660  Biso   1.000  C
  C437     1.0000 0.97690  0.79990  0.78670  Biso   1.000  C
  O146     1.0000 0.03026  0.81961  0.86132  Biso   1.000  O
  C438     1.0000 0.99140  0.80900  0.77660  Biso   1.000  C
  O147     1.0000 0.02992  0.35383  0.39541  Biso   1.000  O
  C439     1.0000 0.04078  0.33068  0.38447  Biso   1.000  C
  C440     1.0000 0.06277  0.31638  0.39931  Biso   1.000  C
  C441     1.0000 0.07360  0.28820  0.38940  Biso   1.000  C
  C442     1.0000 0.98610  0.28640  0.25660  Biso   1.000  C
  C443     1.0000 0.97690  0.29990  0.28670  Biso   1.000  C
  O148     1.0000 0.03026  0.31961  0.36132  Biso   1.000  O
  C444     1.0000 0.99140  0.30900  0.27660  Biso   1.000  C
  O149     1.0000 0.52992  0.85383  0.39541  Biso   1.000  O
  C445     1.0000 0.54078  0.83068  0.38447  Biso   1.000  C
  C446     1.0000 0.56277  0.81638  0.39931  Biso   1.000  C
  C447     1.0000 0.57360  0.78820  0.38940  Biso   1.000  C
  C448     1.0000 0.48610  0.78640  0.25660  Biso   1.000  C
  C449     1.0000 0.47690  0.79990  0.28670  Biso   1.000  C
  O150     1.0000 0.53026  0.81961  0.36132  Biso   1.000  O
  C450     1.0000 0.49140  0.80900  0.27660  Biso   1.000  C
  O151     1.0000 0.52992  0.35383  0.89541  Biso   1.000  O
  C451     1.0000 0.54078  0.33068  0.88447  Biso   1.000  C
  C452     1.0000 0.56277  0.31638  0.89931  Biso   1.000  C
  C453     1.0000 0.57360  0.28820  0.88940  Biso   1.000  C
  C454     1.0000 0.48610  0.28640  0.75660  Biso   1.000  C
  C455     1.0000 0.47690  0.29990  0.78670  Biso   1.000  C
  O152     1.0000 0.53026  0.31961  0.86132  Biso   1.000  O
  C456     1.0000 0.49140  0.30900  0.77660  Biso   1.000  C
  O153     1.0000 0.97008  0.85383  0.10459  Biso   1.000  O
  C457     1.0000 0.95922  0.83068  0.11553  Biso   1.000  C
  C458     1.0000 0.93723  0.81638  0.10069  Biso   1.000  C
  C459     1.0000 0.92640  0.78820  0.11060  Biso   1.000  C
  C460     1.0000 0.01390  0.78640  0.24340  Biso   1.000  C
  C461     1.0000 0.02310  0.79990  0.21330  Biso   1.000  C
  O154     1.0000 0.96974  0.81961  0.13868  Biso   1.000  O
  C462     1.0000 0.00860  0.80900  0.22340  Biso   1.000  C
  O155     1.0000 0.97008  0.35383  0.60459  Biso   1.000  O
  C463     1.0000 0.95922  0.33068  0.61553  Biso   1.000  C
  C464     1.0000 0.93723  0.31638  0.60069  Biso   1.000  C
  C465     1.0000 0.92640  0.28820  0.61060  Biso   1.000  C
  C466     1.0000 0.01390  0.28640  0.74340  Biso   1.000  C
  C467     1.0000 0.02310  0.29990  0.71330  Biso   1.000  C
  O156     1.0000 0.96974  0.31961  0.63868  Biso   1.000  O
  C468     1.0000 0.00860  0.30900  0.72340  Biso   1.000  C
  O157     1.0000 0.47008  0.85383  0.60459  Biso   1.000  O
  C469     1.0000 0.45922  0.83068  0.61553  Biso   1.000  C
  C470     1.0000 0.43723  0.81638  0.60069  Biso   1.000  C
  C471     1.0000 0.42640  0.78820  0.61060  Biso   1.000  C
  C472     1.0000 0.51390  0.78640  0.74340  Biso   1.000  C
  C473     1.0000 0.52310  0.79990  0.71330  Biso   1.000  C
  O158     1.0000 0.46974  0.81961  0.63868  Biso   1.000  O
  C474     1.0000 0.50860  0.80900  0.72340  Biso   1.000  C
  O159     1.0000 0.47008  0.35383  0.10459  Biso   1.000  O
  C475     1.0000 0.45922  0.33068  0.11553  Biso   1.000  C
  C476     1.0000 0.43723  0.31638  0.10069  Biso   1.000  C
  C477     1.0000 0.42640  0.28820  0.11060  Biso   1.000  C
  C478     1.0000 0.51390  0.28640  0.24340  Biso   1.000  C
  C479     1.0000 0.52310  0.29990  0.21330  Biso   1.000  C
  O160     1.0000 0.46974  0.31961  0.13868  Biso   1.000  O
  C480     1.0000 0.50860  0.30900  0.22340  Biso   1.000  C
  O161     1.0000 0.14617  0.10459  0.02992  Biso   1.000  O
  C481     1.0000 0.16932  0.11553  0.04078  Biso   1.000  C
  C482     1.0000 0.18362  0.10069  0.06277  Biso   1.000  C
  C483     1.0000 0.21180  0.11060  0.07360  Biso   1.000  C
  C484     1.0000 0.21360  0.24340  0.98610  Biso   1.000  C
  C485     1.0000 0.20010  0.21330  0.97690  Biso   1.000  C
  O162     1.0000 0.18039  0.13868  0.03026  Biso   1.000  O
  C486     1.0000 0.19100  0.22340  0.99140  Biso   1.000  C
  O163     1.0000 0.14617  0.60459  0.52992  Biso   1.000  O
  C487     1.0000 0.16932  0.61553  0.54078  Biso   1.000  C
  C488     1.0000 0.18362  0.60069  0.56277  Biso   1.000  C
  C489     1.0000 0.21180  0.61060  0.57360  Biso   1.000  C
  C490     1.0000 0.21360  0.74340  0.48610  Biso   1.000  C
  C491     1.0000 0.20010  0.71330  0.47690  Biso   1.000  C
  O164     1.0000 0.18039  0.63868  0.53026  Biso   1.000  O
  C492     1.0000 0.19100  0.72340  0.49140  Biso   1.000  C
  O165     1.0000 0.64617  0.10459  0.52992  Biso   1.000  O
  C493     1.0000 0.66932  0.11553  0.54078  Biso   1.000  C
  C494     1.0000 0.68362  0.10069  0.56277  Biso   1.000  C
  C495     1.0000 0.71180  0.11060  0.57360  Biso   1.000  C
  C496     1.0000 0.71360  0.24340  0.48610  Biso   1.000  C
  C497     1.0000 0.70010  0.21330  0.47690  Biso   1.000  C
  O166     1.0000 0.68039  0.13868  0.53026  Biso   1.000  O
  C498     1.0000 0.69100  0.22340  0.49140  Biso   1.000  C
  O167     1.0000 0.64617  0.60459  0.02992  Biso   1.000  O
  C499     1.0000 0.66932  0.61553  0.04078  Biso   1.000  C
  C500     1.0000 0.68362  0.60069  0.06277  Biso   1.000  C
  C501     1.0000 0.71180  0.61060  0.07360  Biso   1.000  C
  C502     1.0000 0.71360  0.74340  0.98610  Biso   1.000  C
  C503     1.0000 0.70010  0.71330  0.97690  Biso   1.000  C
  O168     1.0000 0.68039  0.63868  0.03026  Biso   1.000  O
  C504     1.0000 0.69100  0.72340  0.99140  Biso   1.000  C
  O169     1.0000 0.14617  0.89541  0.97008  Biso   1.000  O
  C505     1.0000 0.16932  0.88447  0.95922  Biso   1.000  C
  C506     1.0000 0.18362  0.89931  0.93723  Biso   1.000  C
  C507     1.0000 0.21180  0.88940  0.92640  Biso   1.000  C
  C508     1.0000 0.21360  0.75660  0.01390  Biso   1.000  C
  C509     1.0000 0.20010  0.78670  0.02310  Biso   1.000  C
  O170     1.0000 0.18039  0.86132  0.96974  Biso   1.000  O
  C510     1.0000 0.19100  0.77660  0.00860  Biso   1.000  C
  O171     1.0000 0.14617  0.39541  0.47008  Biso   1.000  O
  C511     1.0000 0.16932  0.38447  0.45922  Biso   1.000  C
  C512     1.0000 0.18362  0.39931  0.43723  Biso   1.000  C
  C513     1.0000 0.21180  0.38940  0.42640  Biso   1.000  C
  C514     1.0000 0.21360  0.25660  0.51390  Biso   1.000  C
  C515     1.0000 0.20010  0.28670  0.52310  Biso   1.000  C
  O172     1.0000 0.18039  0.36132  0.46974  Biso   1.000  O
  C516     1.0000 0.19100  0.27660  0.50860  Biso   1.000  C
  O173     1.0000 0.64617  0.89541  0.47008  Biso   1.000  O
  C517     1.0000 0.66932  0.88447  0.45922  Biso   1.000  C
  C518     1.0000 0.68362  0.89931  0.43723  Biso   1.000  C
  C519     1.0000 0.71180  0.88940  0.42640  Biso   1.000  C
  C520     1.0000 0.71360  0.75660  0.51390  Biso   1.000  C
  C521     1.0000 0.70010  0.78670  0.52310  Biso   1.000  C
  O174     1.0000 0.68039  0.86132  0.46974  Biso   1.000  O
  C522     1.0000 0.69100  0.77660  0.50860  Biso   1.000  C
  O175     1.0000 0.64617  0.39541  0.97008  Biso   1.000  O
  C523     1.0000 0.66932  0.38447  0.95922  Biso   1.000  C
  C524     1.0000 0.68362  0.39931  0.93723  Biso   1.000  C
  C525     1.0000 0.71180  0.38940  0.92640  Biso   1.000  C
  C526     1.0000 0.71360  0.25660  0.01390  Biso   1.000  C
  C527     1.0000 0.70010  0.28670  0.02310  Biso   1.000  C
  O176     1.0000 0.68039  0.36132  0.96974  Biso   1.000  O
  C528     1.0000 0.69100  0.27660  0.00860  Biso   1.000  C
  O177     1.0000 0.85383  0.10459  0.97008  Biso   1.000  O
  C529     1.0000 0.83068  0.11553  0.95922  Biso   1.000  C
  C530     1.0000 0.81638  0.10069  0.93723  Biso   1.000  C
  C531     1.0000 0.78820  0.11060  0.92640  Biso   1.000  C
  C532     1.0000 0.78640  0.24340  0.01390  Biso   1.000  C
  C533     1.0000 0.79990  0.21330  0.02310  Biso   1.000  C
  O178     1.0000 0.81961  0.13868  0.96974  Biso   1.000  O
  C534     1.0000 0.80900  0.22340  0.00860  Biso   1.000  C
  O179     1.0000 0.85383  0.60459  0.47008  Biso   1.000  O
  C535     1.0000 0.83068  0.61553  0.45922  Biso   1.000  C
  C536     1.0000 0.81638  0.60069  0.43723  Biso   1.000  C
  C537     1.0000 0.78820  0.61060  0.42640  Biso   1.000  C
  C538     1.0000 0.78640  0.74340  0.51390  Biso   1.000  C
  C539     1.0000 0.79990  0.71330  0.52310  Biso   1.000  C
  O180     1.0000 0.81961  0.63868  0.46974  Biso   1.000  O
  C540     1.0000 0.80900  0.72340  0.50860  Biso   1.000  C
  O181     1.0000 0.35383  0.10459  0.47008  Biso   1.000  O
  C541     1.0000 0.33068  0.11553  0.45922  Biso   1.000  C
  C542     1.0000 0.31638  0.10069  0.43723  Biso   1.000  C
  C543     1.0000 0.28820  0.11060  0.42640  Biso   1.000  C
  C544     1.0000 0.28640  0.24340  0.51390  Biso   1.000  C
  C545     1.0000 0.29990  0.21330  0.52310  Biso   1.000  C
  O182     1.0000 0.31961  0.13868  0.46974  Biso   1.000  O
  C546     1.0000 0.30900  0.22340  0.50860  Biso   1.000  C
  O183     1.0000 0.35383  0.60459  0.97008  Biso   1.000  O
  C547     1.0000 0.33068  0.61553  0.95922  Biso   1.000  C
  C548     1.0000 0.31638  0.60069  0.93723  Biso   1.000  C
  C549     1.0000 0.28820  0.61060  0.92640  Biso   1.000  C
  C550     1.0000 0.28640  0.74340  0.01390  Biso   1.000  C
  C551     1.0000 0.29990  0.71330  0.02310  Biso   1.000  C
  O184     1.0000 0.31961  0.63868  0.96974  Biso   1.000  O
  C552     1.0000 0.30900  0.72340  0.00860  Biso   1.000  C
  O185     1.0000 0.85383  0.89541  0.02992  Biso   1.000  O
  C553     1.0000 0.83068  0.88447  0.04078  Biso   1.000  C
  C554     1.0000 0.81638  0.89931  0.06277  Biso   1.000  C
  C555     1.0000 0.78820  0.88940  0.07360  Biso   1.000  C
  C556     1.0000 0.78640  0.75660  0.98610  Biso   1.000  C
  C557     1.0000 0.79990  0.78670  0.97690  Biso   1.000  C
  O186     1.0000 0.81961  0.86132  0.03026  Biso   1.000  O
  C558     1.0000 0.80900  0.77660  0.99140  Biso   1.000  C
  O187     1.0000 0.85383  0.39541  0.52992  Biso   1.000  O
  C559     1.0000 0.83068  0.38447  0.54078  Biso   1.000  C
  C560     1.0000 0.81638  0.39931  0.56277  Biso   1.000  C
  C561     1.0000 0.78820  0.38940  0.57360  Biso   1.000  C
  C562     1.0000 0.78640  0.25660  0.48610  Biso   1.000  C
  C563     1.0000 0.79990  0.28670  0.47690  Biso   1.000  C
  O188     1.0000 0.81961  0.36132  0.53026  Biso   1.000  O
  C564     1.0000 0.80900  0.27660  0.49140  Biso   1.000  C
  O189     1.0000 0.35383  0.89541  0.52992  Biso   1.000  O
  C565     1.0000 0.33068  0.88447  0.54078  Biso   1.000  C
  C566     1.0000 0.31638  0.89931  0.56277  Biso   1.000  C
  C567     1.0000 0.28820  0.88940  0.57360  Biso   1.000  C
  C568     1.0000 0.28640  0.75660  0.48610  Biso   1.000  C
  C569     1.0000 0.29990  0.78670  0.47690  Biso   1.000  C
  O190     1.0000 0.31961  0.86132  0.53026  Biso   1.000  O
  C570     1.0000 0.30900  0.77660  0.49140  Biso   1.000  C
  O191     1.0000 0.35383  0.39541  0.02992  Biso   1.000  O
  C571     1.0000 0.33068  0.38447  0.04078  Biso   1.000  C
  C572     1.0000 0.31638  0.39931  0.06277  Biso   1.000  C
  C573     1.0000 0.28820  0.38940  0.07360  Biso   1.000  C
  C574     1.0000 0.28640  0.25660  0.98610  Biso   1.000  C
  C575     1.0000 0.29990  0.28670  0.97690  Biso   1.000  C
  O192     1.0000 0.31961  0.36132  0.03026  Biso   1.000  O
  C576     1.0000 0.30900  0.27660  0.99140  Biso   1.000  C
  O193     1.0000 0.02992  0.89541  0.85383  Biso   1.000  O
  C577     1.0000 0.04078  0.88447  0.83068  Biso   1.000  C
  C578     1.0000 0.06277  0.89931  0.81638  Biso   1.000  C
  C579     1.0000 0.07360  0.88940  0.78820  Biso   1.000  C
  C580     1.0000 0.98610  0.75660  0.78640  Biso   1.000  C
  C581     1.0000 0.97690  0.78670  0.79990  Biso   1.000  C
  O194     1.0000 0.03026  0.86132  0.81961  Biso   1.000  O
  C582     1.0000 0.99140  0.77660  0.80900  Biso   1.000  C
  O195     1.0000 0.02992  0.39541  0.35383  Biso   1.000  O
  C583     1.0000 0.04078  0.38447  0.33068  Biso   1.000  C
  C584     1.0000 0.06277  0.39931  0.31638  Biso   1.000  C
  C585     1.0000 0.07360  0.38940  0.28820  Biso   1.000  C
  C586     1.0000 0.98610  0.25660  0.28640  Biso   1.000  C
  C587     1.0000 0.97690  0.28670  0.29990  Biso   1.000  C
  O196     1.0000 0.03026  0.36132  0.31961  Biso   1.000  O
  C588     1.0000 0.99140  0.27660  0.30900  Biso   1.000  C
  O197     1.0000 0.52992  0.89541  0.35383  Biso   1.000  O
  C589     1.0000 0.54078  0.88447  0.33068  Biso   1.000  C
  C590     1.0000 0.56277  0.89931  0.31638  Biso   1.000  C
  C591     1.0000 0.57360  0.88940  0.28820  Biso   1.000  C
  C592     1.0000 0.48610  0.75660  0.28640  Biso   1.000  C
  C593     1.0000 0.47690  0.78670  0.29990  Biso   1.000  C
  O198     1.0000 0.53026  0.86132  0.31961  Biso   1.000  O
  C594     1.0000 0.49140  0.77660  0.30900  Biso   1.000  C
  O199     1.0000 0.52992  0.39541  0.85383  Biso   1.000  O
  C595     1.0000 0.54078  0.38447  0.83068  Biso   1.000  C
  C596     1.0000 0.56277  0.39931  0.81638  Biso   1.000  C
  C597     1.0000 0.57360  0.38940  0.78820  Biso   1.000  C
  C598     1.0000 0.48610  0.25660  0.78640  Biso   1.000  C
  C599     1.0000 0.47690  0.28670  0.79990  Biso   1.000  C
  O200     1.0000 0.53026  0.36132  0.81961  Biso   1.000  O
  C600     1.0000 0.49140  0.27660  0.80900  Biso   1.000  C
  O201     1.0000 0.97008  0.10459  0.85383  Biso   1.000  O
  C601     1.0000 0.95922  0.11553  0.83068  Biso   1.000  C
  C602     1.0000 0.93723  0.10069  0.81638  Biso   1.000  C
  C603     1.0000 0.92640  0.11060  0.78820  Biso   1.000  C
  C604     1.0000 0.01390  0.24340  0.78640  Biso   1.000  C
  C605     1.0000 0.02310  0.21330  0.79990  Biso   1.000  C
  O202     1.0000 0.96974  0.13868  0.81961  Biso   1.000  O
  C606     1.0000 0.00860  0.22340  0.80900  Biso   1.000  C
  O203     1.0000 0.97008  0.60459  0.35383  Biso   1.000  O
  C607     1.0000 0.95922  0.61553  0.33068  Biso   1.000  C
  C608     1.0000 0.93723  0.60069  0.31638  Biso   1.000  C
  C609     1.0000 0.92640  0.61060  0.28820  Biso   1.000  C
  C610     1.0000 0.01390  0.74340  0.28640  Biso   1.000  C
  C611     1.0000 0.02310  0.71330  0.29990  Biso   1.000  C
  O204     1.0000 0.96974  0.63868  0.31961  Biso   1.000  O
  C612     1.0000 0.00860  0.72340  0.30900  Biso   1.000  C
  O205     1.0000 0.47008  0.10459  0.35383  Biso   1.000  O
  C613     1.0000 0.45922  0.11553  0.33068  Biso   1.000  C
  C614     1.0000 0.43723  0.10069  0.31638  Biso   1.000  C
  C615     1.0000 0.42640  0.11060  0.28820  Biso   1.000  C
  C616     1.0000 0.51390  0.24340  0.28640  Biso   1.000  C
  C617     1.0000 0.52310  0.21330  0.29990  Biso   1.000  C
  O206     1.0000 0.46974  0.13868  0.31961  Biso   1.000  O
  C618     1.0000 0.50860  0.22340  0.30900  Biso   1.000  C
  O207     1.0000 0.47008  0.60459  0.85383  Biso   1.000  O
  C619     1.0000 0.45922  0.61553  0.83068  Biso   1.000  C
  C620     1.0000 0.43723  0.60069  0.81638  Biso   1.000  C
  C621     1.0000 0.42640  0.61060  0.78820  Biso   1.000  C
  C622     1.0000 0.51390  0.74340  0.78640  Biso   1.000  C
  C623     1.0000 0.52310  0.71330  0.79990  Biso   1.000  C
  O208     1.0000 0.46974  0.63868  0.81961  Biso   1.000  O
  C624     1.0000 0.50860  0.72340  0.80900  Biso   1.000  C
  O209     1.0000 0.97008  0.89541  0.14617  Biso   1.000  O
  C625     1.0000 0.95922  0.88447  0.16932  Biso   1.000  C
  C626     1.0000 0.93723  0.89931  0.18362  Biso   1.000  C
  C627     1.0000 0.92640  0.88940  0.21180  Biso   1.000  C
  C628     1.0000 0.01390  0.75660  0.21360  Biso   1.000  C
  C629     1.0000 0.02310  0.78670  0.20010  Biso   1.000  C
  O210     1.0000 0.96974  0.86132  0.18039  Biso   1.000  O
  C630     1.0000 0.00860  0.77660  0.19100  Biso   1.000  C
  O211     1.0000 0.97008  0.39541  0.64617  Biso   1.000  O
  C631     1.0000 0.95922  0.38447  0.66932  Biso   1.000  C
  C632     1.0000 0.93723  0.39931  0.68362  Biso   1.000  C
  C633     1.0000 0.92640  0.38940  0.71180  Biso   1.000  C
  C634     1.0000 0.01390  0.25660  0.71360  Biso   1.000  C
  C635     1.0000 0.02310  0.28670  0.70010  Biso   1.000  C
  O212     1.0000 0.96974  0.36132  0.68039  Biso   1.000  O
  C636     1.0000 0.00860  0.27660  0.69100  Biso   1.000  C
  O213     1.0000 0.47008  0.89541  0.64617  Biso   1.000  O
  C637     1.0000 0.45922  0.88447  0.66932  Biso   1.000  C
  C638     1.0000 0.43723  0.89931  0.68362  Biso   1.000  C
  C639     1.0000 0.42640  0.88940  0.71180  Biso   1.000  C
  C640     1.0000 0.51390  0.75660  0.71360  Biso   1.000  C
  C641     1.0000 0.52310  0.78670  0.70010  Biso   1.000  C
  O214     1.0000 0.46974  0.86132  0.68039  Biso   1.000  O
  C642     1.0000 0.50860  0.77660  0.69100  Biso   1.000  C
  O215     1.0000 0.47008  0.39541  0.14617  Biso   1.000  O
  C643     1.0000 0.45922  0.38447  0.16932  Biso   1.000  C
  C644     1.0000 0.43723  0.39931  0.18362  Biso   1.000  C
  C645     1.0000 0.42640  0.38940  0.21180  Biso   1.000  C
  C646     1.0000 0.51390  0.25660  0.21360  Biso   1.000  C
  C647     1.0000 0.52310  0.28670  0.20010  Biso   1.000  C
  O216     1.0000 0.46974  0.36132  0.18039  Biso   1.000  O
  C648     1.0000 0.50860  0.27660  0.19100  Biso   1.000  C
  O217     1.0000 0.02992  0.10459  0.14617  Biso   1.000  O
  C649     1.0000 0.04078  0.11553  0.16932  Biso   1.000  C
  C650     1.0000 0.06277  0.10069  0.18362  Biso   1.000  C
  C651     1.0000 0.07360  0.11060  0.21180  Biso   1.000  C
  C652     1.0000 0.98610  0.24340  0.21360  Biso   1.000  C
  C653     1.0000 0.97690  0.21330  0.20010  Biso   1.000  C
  O218     1.0000 0.03026  0.13868  0.18039  Biso   1.000  O
  C654     1.0000 0.99140  0.22340  0.19100  Biso   1.000  C
  O219     1.0000 0.02992  0.60459  0.64617  Biso   1.000  O
  C655     1.0000 0.04078  0.61553  0.66932  Biso   1.000  C
  C656     1.0000 0.06277  0.60069  0.68362  Biso   1.000  C
  C657     1.0000 0.07360  0.61060  0.71180  Biso   1.000  C
  C658     1.0000 0.98610  0.74340  0.71360  Biso   1.000  C
  C659     1.0000 0.97690  0.71330  0.70010  Biso   1.000  C
  O220     1.0000 0.03026  0.63868  0.68039  Biso   1.000  O
  C660     1.0000 0.99140  0.72340  0.69100  Biso   1.000  C
  O221     1.0000 0.52992  0.10459  0.64617  Biso   1.000  O
  C661     1.0000 0.54078  0.11553  0.66932  Biso   1.000  C
  C662     1.0000 0.56277  0.10069  0.68362  Biso   1.000  C
  C663     1.0000 0.57360  0.11060  0.71180  Biso   1.000  C
  C664     1.0000 0.48610  0.24340  0.71360  Biso   1.000  C
  C665     1.0000 0.47690  0.21330  0.70010  Biso   1.000  C
  O222     1.0000 0.53026  0.13868  0.68039  Biso   1.000  O
  C666     1.0000 0.49140  0.22340  0.69100  Biso   1.000  C
  O223     1.0000 0.52992  0.60459  0.14617  Biso   1.000  O
  C667     1.0000 0.54078  0.61553  0.16932  Biso   1.000  C
  C668     1.0000 0.56277  0.60069  0.18362  Biso   1.000  C
  C669     1.0000 0.57360  0.61060  0.21180  Biso   1.000  C
  C670     1.0000 0.48610  0.74340  0.21360  Biso   1.000  C
  C671     1.0000 0.47690  0.71330  0.20010  Biso   1.000  C
  O224     1.0000 0.53026  0.63868  0.18039  Biso   1.000  O
  C672     1.0000 0.49140  0.72340  0.19100  Biso   1.000  C
  O225     1.0000 0.85383  0.02992  0.89541  Biso   1.000  O
  C673     1.0000 0.83068  0.04078  0.88447  Biso   1.000  C
  C674     1.0000 0.81638  0.06277  0.89931  Biso   1.000  C
  C675     1.0000 0.78820  0.07360  0.88940  Biso   1.000  C
  C676     1.0000 0.78640  0.98610  0.75660  Biso   1.000  C
  C677     1.0000 0.79990  0.97690  0.78670  Biso   1.000  C
  O226     1.0000 0.81961  0.03026  0.86132  Biso   1.000  O
  C678     1.0000 0.80900  0.99140  0.77660  Biso   1.000  C
  O227     1.0000 0.85383  0.52992  0.39541  Biso   1.000  O
  C679     1.0000 0.83068  0.54078  0.38447  Biso   1.000  C
  C680     1.0000 0.81638  0.56277  0.39931  Biso   1.000  C
  C681     1.0000 0.78820  0.57360  0.38940  Biso   1.000  C
  C682     1.0000 0.78640  0.48610  0.25660  Biso   1.000  C
  C683     1.0000 0.79990  0.47690  0.28670  Biso   1.000  C
  O228     1.0000 0.81961  0.53026  0.36132  Biso   1.000  O
  C684     1.0000 0.80900  0.49140  0.27660  Biso   1.000  C
  O229     1.0000 0.35383  0.02992  0.39541  Biso   1.000  O
  C685     1.0000 0.33068  0.04078  0.38447  Biso   1.000  C
  C686     1.0000 0.31638  0.06277  0.39931  Biso   1.000  C
  C687     1.0000 0.28820  0.07360  0.38940  Biso   1.000  C
  C688     1.0000 0.28640  0.98610  0.25660  Biso   1.000  C
  C689     1.0000 0.29990  0.97690  0.28670  Biso   1.000  C
  O230     1.0000 0.31961  0.03026  0.36132  Biso   1.000  O
  C690     1.0000 0.30900  0.99140  0.27660  Biso   1.000  C
  O231     1.0000 0.35383  0.52992  0.89541  Biso   1.000  O
  C691     1.0000 0.33068  0.54078  0.88447  Biso   1.000  C
  C692     1.0000 0.31638  0.56277  0.89931  Biso   1.000  C
  C693     1.0000 0.28820  0.57360  0.88940  Biso   1.000  C
  C694     1.0000 0.28640  0.48610  0.75660  Biso   1.000  C
  C695     1.0000 0.29990  0.47690  0.78670  Biso   1.000  C
  O232     1.0000 0.31961  0.53026  0.86132  Biso   1.000  O
  C696     1.0000 0.30900  0.49140  0.77660  Biso   1.000  C
  O233     1.0000 0.85383  0.97008  0.10459  Biso   1.000  O
  C697     1.0000 0.83068  0.95922  0.11553  Biso   1.000  C
  C698     1.0000 0.81638  0.93723  0.10069  Biso   1.000  C
  C699     1.0000 0.78820  0.92640  0.11060  Biso   1.000  C
  C700     1.0000 0.78640  0.01390  0.24340  Biso   1.000  C
  C701     1.0000 0.79990  0.02310  0.21330  Biso   1.000  C
  O234     1.0000 0.81961  0.96974  0.13868  Biso   1.000  O
  C702     1.0000 0.80900  0.00860  0.22340  Biso   1.000  C
  O235     1.0000 0.85383  0.47008  0.60459  Biso   1.000  O
  C703     1.0000 0.83068  0.45922  0.61553  Biso   1.000  C
  C704     1.0000 0.81638  0.43723  0.60069  Biso   1.000  C
  C705     1.0000 0.78820  0.42640  0.61060  Biso   1.000  C
  C706     1.0000 0.78640  0.51390  0.74340  Biso   1.000  C
  C707     1.0000 0.79990  0.52310  0.71330  Biso   1.000  C
  O236     1.0000 0.81961  0.46974  0.63868  Biso   1.000  O
  C708     1.0000 0.80900  0.50860  0.72340  Biso   1.000  C
  O237     1.0000 0.35383  0.97008  0.60459  Biso   1.000  O
  C709     1.0000 0.33068  0.95922  0.61553  Biso   1.000  C
  C710     1.0000 0.31638  0.93723  0.60069  Biso   1.000  C
  C711     1.0000 0.28820  0.92640  0.61060  Biso   1.000  C
  C712     1.0000 0.28640  0.01390  0.74340  Biso   1.000  C
  C713     1.0000 0.29990  0.02310  0.71330  Biso   1.000  C
  O238     1.0000 0.31961  0.96974  0.63868  Biso   1.000  O
  C714     1.0000 0.30900  0.00860  0.72340  Biso   1.000  C
  O239     1.0000 0.35383  0.47008  0.10459  Biso   1.000  O
  C715     1.0000 0.33068  0.45922  0.11553  Biso   1.000  C
  C716     1.0000 0.31638  0.43723  0.10069  Biso   1.000  C
  C717     1.0000 0.28820  0.42640  0.11060  Biso   1.000  C
  C718     1.0000 0.28640  0.51390  0.24340  Biso   1.000  C
  C719     1.0000 0.29990  0.52310  0.21330  Biso   1.000  C
  O240     1.0000 0.31961  0.46974  0.13868  Biso   1.000  O
  C720     1.0000 0.30900  0.50860  0.22340  Biso   1.000  C
  O241     1.0000 0.14617  0.97008  0.89541  Biso   1.000  O
  C721     1.0000 0.16932  0.95922  0.88447  Biso   1.000  C
  C722     1.0000 0.18362  0.93723  0.89931  Biso   1.000  C
  C723     1.0000 0.21180  0.92640  0.88940  Biso   1.000  C
  C724     1.0000 0.21360  0.01390  0.75660  Biso   1.000  C
  C725     1.0000 0.20010  0.02310  0.78670  Biso   1.000  C
  O242     1.0000 0.18039  0.96974  0.86132  Biso   1.000  O
  C726     1.0000 0.19100  0.00860  0.77660  Biso   1.000  C
  O243     1.0000 0.14617  0.47008  0.39541  Biso   1.000  O
  C727     1.0000 0.16932  0.45922  0.38447  Biso   1.000  C
  C728     1.0000 0.18362  0.43723  0.39931  Biso   1.000  C
  C729     1.0000 0.21180  0.42640  0.38940  Biso   1.000  C
  C730     1.0000 0.21360  0.51390  0.25660  Biso   1.000  C
  C731     1.0000 0.20010  0.52310  0.28670  Biso   1.000  C
  O244     1.0000 0.18039  0.46974  0.36132  Biso   1.000  O
  C732     1.0000 0.19100  0.50860  0.27660  Biso   1.000  C
  O245     1.0000 0.64617  0.97008  0.39541  Biso   1.000  O
  C733     1.0000 0.66932  0.95922  0.38447  Biso   1.000  C
  C734     1.0000 0.68362  0.93723  0.39931  Biso   1.000  C
  C735     1.0000 0.71180  0.92640  0.38940  Biso   1.000  C
  C736     1.0000 0.71360  0.01390  0.25660  Biso   1.000  C
  C737     1.0000 0.70010  0.02310  0.28670  Biso   1.000  C
  O246     1.0000 0.68039  0.96974  0.36132  Biso   1.000  O
  C738     1.0000 0.69100  0.00860  0.27660  Biso   1.000  C
  O247     1.0000 0.64617  0.47008  0.89541  Biso   1.000  O
  C739     1.0000 0.66932  0.45922  0.88447  Biso   1.000  C
  C740     1.0000 0.68362  0.43723  0.89931  Biso   1.000  C
  C741     1.0000 0.71180  0.42640  0.88940  Biso   1.000  C
  C742     1.0000 0.71360  0.51390  0.75660  Biso   1.000  C
  C743     1.0000 0.70010  0.52310  0.78670  Biso   1.000  C
  O248     1.0000 0.68039  0.46974  0.86132  Biso   1.000  O
  C744     1.0000 0.69100  0.50860  0.77660  Biso   1.000  C
  O249     1.0000 0.14617  0.02992  0.10459  Biso   1.000  O
  C745     1.0000 0.16932  0.04078  0.11553  Biso   1.000  C
  C746     1.0000 0.18362  0.06277  0.10069  Biso   1.000  C
  C747     1.0000 0.21180  0.07360  0.11060  Biso   1.000  C
  C748     1.0000 0.21360  0.98610  0.24340  Biso   1.000  C
  C749     1.0000 0.20010  0.97690  0.21330  Biso   1.000  C
  O250     1.0000 0.18039  0.03026  0.13868  Biso   1.000  O
  C750     1.0000 0.19100  0.99140  0.22340  Biso   1.000  C
  O251     1.0000 0.14617  0.52992  0.60459  Biso   1.000  O
  C751     1.0000 0.16932  0.54078  0.61553  Biso   1.000  C
  C752     1.0000 0.18362  0.56277  0.60069  Biso   1.000  C
  C753     1.0000 0.21180  0.57360  0.61060  Biso   1.000  C
  C754     1.0000 0.21360  0.48610  0.74340  Biso   1.000  C
  C755     1.0000 0.20010  0.47690  0.71330  Biso   1.000  C
  O252     1.0000 0.18039  0.53026  0.63868  Biso   1.000  O
  C756     1.0000 0.19100  0.49140  0.72340  Biso   1.000  C
  O253     1.0000 0.64617  0.02992  0.60459  Biso   1.000  O
  C757     1.0000 0.66932  0.04078  0.61553  Biso   1.000  C
  C758     1.0000 0.68362  0.06277  0.60069  Biso   1.000  C
  C759     1.0000 0.71180  0.07360  0.61060  Biso   1.000  C
  C760     1.0000 0.71360  0.98610  0.74340  Biso   1.000  C
  C761     1.0000 0.70010  0.97690  0.71330  Biso   1.000  C
  O254     1.0000 0.68039  0.03026  0.63868  Biso   1.000  O
  C762     1.0000 0.69100  0.99140  0.72340  Biso   1.000  C
  O255     1.0000 0.64617  0.52992  0.10459  Biso   1.000  O
  C763     1.0000 0.66932  0.54078  0.11553  Biso   1.000  C
  C764     1.0000 0.68362  0.56277  0.10069  Biso   1.000  C
  C765     1.0000 0.71180  0.57360  0.11060  Biso   1.000  C
  C766     1.0000 0.71360  0.48610  0.24340  Biso   1.000  C
  C767     1.0000 0.70010  0.47690  0.21330  Biso   1.000  C
  O256     1.0000 0.68039  0.53026  0.13868  Biso   1.000  O
  C768     1.0000 0.69100  0.49140  0.22340  Biso   1.000  C
  O257     1.0000 0.89541  0.85383  0.02992  Biso   1.000  O
  C769     1.0000 0.88447  0.83068  0.04078  Biso   1.000  C
  C770     1.0000 0.89931  0.81638  0.06277  Biso   1.000  C
  C771     1.0000 0.88940  0.78820  0.07360  Biso   1.000  C
  C772     1.0000 0.75660  0.78640  0.98610  Biso   1.000  C
  C773     1.0000 0.78670  0.79990  0.97690  Biso   1.000  C
  O258     1.0000 0.86132  0.81961  0.03026  Biso   1.000  O
  C774     1.0000 0.77660  0.80900  0.99140  Biso   1.000  C
  O259     1.0000 0.89541  0.35383  0.52992  Biso   1.000  O
  C775     1.0000 0.88447  0.33068  0.54078  Biso   1.000  C
  C776     1.0000 0.89931  0.31638  0.56277  Biso   1.000  C
  C777     1.0000 0.88940  0.28820  0.57360  Biso   1.000  C
  C778     1.0000 0.75660  0.28640  0.48610  Biso   1.000  C
  C779     1.0000 0.78670  0.29990  0.47690  Biso   1.000  C
  O260     1.0000 0.86132  0.31961  0.53026  Biso   1.000  O
  C780     1.0000 0.77660  0.30900  0.49140  Biso   1.000  C
  O261     1.0000 0.39541  0.85383  0.52992  Biso   1.000  O
  C781     1.0000 0.38447  0.83068  0.54078  Biso   1.000  C
  C782     1.0000 0.39931  0.81638  0.56277  Biso   1.000  C
  C783     1.0000 0.38940  0.78820  0.57360  Biso   1.000  C
  C784     1.0000 0.25660  0.78640  0.48610  Biso   1.000  C
  C785     1.0000 0.28670  0.79990  0.47690  Biso   1.000  C
  O262     1.0000 0.36132  0.81961  0.53026  Biso   1.000  O
  C786     1.0000 0.27660  0.80900  0.49140  Biso   1.000  C
  O263     1.0000 0.39541  0.35383  0.02992  Biso   1.000  O
  C787     1.0000 0.38447  0.33068  0.04078  Biso   1.000  C
  C788     1.0000 0.39931  0.31638  0.06277  Biso   1.000  C
  C789     1.0000 0.38940  0.28820  0.07360  Biso   1.000  C
  C790     1.0000 0.25660  0.28640  0.98610  Biso   1.000  C
  C791     1.0000 0.28670  0.29990  0.97690  Biso   1.000  C
  O264     1.0000 0.36132  0.31961  0.03026  Biso   1.000  O
  C792     1.0000 0.27660  0.30900  0.99140  Biso   1.000  C
  O265     1.0000 0.10459  0.85383  0.97008  Biso   1.000  O
  C793     1.0000 0.11553  0.83068  0.95922  Biso   1.000  C
  C794     1.0000 0.10069  0.81638  0.93723  Biso   1.000  C
  C795     1.0000 0.11060  0.78820  0.92640  Biso   1.000  C
  C796     1.0000 0.24340  0.78640  0.01390  Biso   1.000  C
  C797     1.0000 0.21330  0.79990  0.02310  Biso   1.000  C
  O266     1.0000 0.13868  0.81961  0.96974  Biso   1.000  O
  C798     1.0000 0.22340  0.80900  0.00860  Biso   1.000  C
  O267     1.0000 0.10459  0.35383  0.47008  Biso   1.000  O
  C799     1.0000 0.11553  0.33068  0.45922  Biso   1.000  C
  C800     1.0000 0.10069  0.31638  0.43723  Biso   1.000  C
  C801     1.0000 0.11060  0.28820  0.42640  Biso   1.000  C
  C802     1.0000 0.24340  0.28640  0.51390  Biso   1.000  C
  C803     1.0000 0.21330  0.29990  0.52310  Biso   1.000  C
  O268     1.0000 0.13868  0.31961  0.46974  Biso   1.000  O
  C804     1.0000 0.22340  0.30900  0.50860  Biso   1.000  C
  O269     1.0000 0.60459  0.85383  0.47008  Biso   1.000  O
  C805     1.0000 0.61553  0.83068  0.45922  Biso   1.000  C
  C806     1.0000 0.60069  0.81638  0.43723  Biso   1.000  C
  C807     1.0000 0.61060  0.78820  0.42640  Biso   1.000  C
  C808     1.0000 0.74340  0.78640  0.51390  Biso   1.000  C
  C809     1.0000 0.71330  0.79990  0.52310  Biso   1.000  C
  O270     1.0000 0.63868  0.81961  0.46974  Biso   1.000  O
  C810     1.0000 0.72340  0.80900  0.50860  Biso   1.000  C
  O271     1.0000 0.60459  0.35383  0.97008  Biso   1.000  O
  C811     1.0000 0.61553  0.33068  0.95922  Biso   1.000  C
  C812     1.0000 0.60069  0.31638  0.93723  Biso   1.000  C
  C813     1.0000 0.61060  0.28820  0.92640  Biso   1.000  C
  C814     1.0000 0.74340  0.28640  0.01390  Biso   1.000  C
  C815     1.0000 0.71330  0.29990  0.02310  Biso   1.000  C
  O272     1.0000 0.63868  0.31961  0.96974  Biso   1.000  O
  C816     1.0000 0.72340  0.30900  0.00860  Biso   1.000  C
  O273     1.0000 0.89541  0.14617  0.97008  Biso   1.000  O
  C817     1.0000 0.88447  0.16932  0.95922  Biso   1.000  C
  C818     1.0000 0.89931  0.18362  0.93723  Biso   1.000  C
  C819     1.0000 0.88940  0.21180  0.92640  Biso   1.000  C
  C820     1.0000 0.75660  0.21360  0.01390  Biso   1.000  C
  C821     1.0000 0.78670  0.20010  0.02310  Biso   1.000  C
  O274     1.0000 0.86132  0.18039  0.96974  Biso   1.000  O
  C822     1.0000 0.77660  0.19100  0.00860  Biso   1.000  C
  O275     1.0000 0.89541  0.64617  0.47008  Biso   1.000  O
  C823     1.0000 0.88447  0.66932  0.45922  Biso   1.000  C
  C824     1.0000 0.89931  0.68362  0.43723  Biso   1.000  C
  C825     1.0000 0.88940  0.71180  0.42640  Biso   1.000  C
  C826     1.0000 0.75660  0.71360  0.51390  Biso   1.000  C
  C827     1.0000 0.78670  0.70010  0.52310  Biso   1.000  C
  O276     1.0000 0.86132  0.68039  0.46974  Biso   1.000  O
  C828     1.0000 0.77660  0.69100  0.50860  Biso   1.000  C
  O277     1.0000 0.39541  0.14617  0.47008  Biso   1.000  O
  C829     1.0000 0.38447  0.16932  0.45922  Biso   1.000  C
  C830     1.0000 0.39931  0.18362  0.43723  Biso   1.000  C
  C831     1.0000 0.38940  0.21180  0.42640  Biso   1.000  C
  C832     1.0000 0.25660  0.21360  0.51390  Biso   1.000  C
  C833     1.0000 0.28670  0.20010  0.52310  Biso   1.000  C
  O278     1.0000 0.36132  0.18039  0.46974  Biso   1.000  O
  C834     1.0000 0.27660  0.19100  0.50860  Biso   1.000  C
  O279     1.0000 0.39541  0.64617  0.97008  Biso   1.000  O
  C835     1.0000 0.38447  0.66932  0.95922  Biso   1.000  C
  C836     1.0000 0.39931  0.68362  0.93723  Biso   1.000  C
  C837     1.0000 0.38940  0.71180  0.92640  Biso   1.000  C
  C838     1.0000 0.25660  0.71360  0.01390  Biso   1.000  C
  C839     1.0000 0.28670  0.70010  0.02310  Biso   1.000  C
  O280     1.0000 0.36132  0.68039  0.96974  Biso   1.000  O
  C840     1.0000 0.27660  0.69100  0.00860  Biso   1.000  C
  O281     1.0000 0.10459  0.14617  0.02992  Biso   1.000  O
  C841     1.0000 0.11553  0.16932  0.04078  Biso   1.000  C
  C842     1.0000 0.10069  0.18362  0.06277  Biso   1.000  C
  C843     1.0000 0.11060  0.21180  0.07360  Biso   1.000  C
  C844     1.0000 0.24340  0.21360  0.98610  Biso   1.000  C
  C845     1.0000 0.21330  0.20010  0.97690  Biso   1.000  C
  O282     1.0000 0.13868  0.18039  0.03026  Biso   1.000  O
  C846     1.0000 0.22340  0.19100  0.99140  Biso   1.000  C
  O283     1.0000 0.10459  0.64617  0.52992  Biso   1.000  O
  C847     1.0000 0.11553  0.66932  0.54078  Biso   1.000  C
  C848     1.0000 0.10069  0.68362  0.56277  Biso   1.000  C
  C849     1.0000 0.11060  0.71180  0.57360  Biso   1.000  C
  C850     1.0000 0.24340  0.71360  0.48610  Biso   1.000  C
  C851     1.0000 0.21330  0.70010  0.47690  Biso   1.000  C
  O284     1.0000 0.13868  0.68039  0.53026  Biso   1.000  O
  C852     1.0000 0.22340  0.69100  0.49140  Biso   1.000  C
  O285     1.0000 0.60459  0.14617  0.52992  Biso   1.000  O
  C853     1.0000 0.61553  0.16932  0.54078  Biso   1.000  C
  C854     1.0000 0.60069  0.18362  0.56277  Biso   1.000  C
  C855     1.0000 0.61060  0.21180  0.57360  Biso   1.000  C
  C856     1.0000 0.74340  0.21360  0.48610  Biso   1.000  C
  C857     1.0000 0.71330  0.20010  0.47690  Biso   1.000  C
  O286     1.0000 0.63868  0.18039  0.53026  Biso   1.000  O
  C858     1.0000 0.72340  0.19100  0.49140  Biso   1.000  C
  O287     1.0000 0.60459  0.64617  0.02992  Biso   1.000  O
  C859     1.0000 0.61553  0.66932  0.04078  Biso   1.000  C
  C860     1.0000 0.60069  0.68362  0.06277  Biso   1.000  C
  C861     1.0000 0.61060  0.71180  0.07360  Biso   1.000  C
  C862     1.0000 0.74340  0.71360  0.98610  Biso   1.000  C
  C863     1.0000 0.71330  0.70010  0.97690  Biso   1.000  C
  O288     1.0000 0.63868  0.68039  0.03026  Biso   1.000  O
  C864     1.0000 0.72340  0.69100  0.99140  Biso   1.000  C
  O289     1.0000 0.89541  0.02992  0.14617  Biso   1.000  O
  C865     1.0000 0.88447  0.04078  0.16932  Biso   1.000  C
  C866     1.0000 0.89931  0.06277  0.18362  Biso   1.000  C
  C867     1.0000 0.88940  0.07360  0.21180  Biso   1.000  C
  C868     1.0000 0.75660  0.98610  0.21360  Biso   1.000  C
  C869     1.0000 0.78670  0.97690  0.20010  Biso   1.000  C
  O290     1.0000 0.86132  0.03026  0.18039  Biso   1.000  O
  C870     1.0000 0.77660  0.99140  0.19100  Biso   1.000  C
  O291     1.0000 0.89541  0.52992  0.64617  Biso   1.000  O
  C871     1.0000 0.88447  0.54078  0.66932  Biso   1.000  C
  C872     1.0000 0.89931  0.56277  0.68362  Biso   1.000  C
  C873     1.0000 0.88940  0.57360  0.71180  Biso   1.000  C
  C874     1.0000 0.75660  0.48610  0.71360  Biso   1.000  C
  C875     1.0000 0.78670  0.47690  0.70010  Biso   1.000  C
  O292     1.0000 0.86132  0.53026  0.68039  Biso   1.000  O
  C876     1.0000 0.77660  0.49140  0.69100  Biso   1.000  C
  O293     1.0000 0.39541  0.02992  0.64617  Biso   1.000  O
  C877     1.0000 0.38447  0.04078  0.66932  Biso   1.000  C
  C878     1.0000 0.39931  0.06277  0.68362  Biso   1.000  C
  C879     1.0000 0.38940  0.07360  0.71180  Biso   1.000  C
  C880     1.0000 0.25660  0.98610  0.71360  Biso   1.000  C
  C881     1.0000 0.28670  0.97690  0.70010  Biso   1.000  C
  O294     1.0000 0.36132  0.03026  0.68039  Biso   1.000  O
  C882     1.0000 0.27660  0.99140  0.69100  Biso   1.000  C
  O295     1.0000 0.39541  0.52992  0.14617  Biso   1.000  O
  C883     1.0000 0.38447  0.54078  0.16932  Biso   1.000  C
  C884     1.0000 0.39931  0.56277  0.18362  Biso   1.000  C
  C885     1.0000 0.38940  0.57360  0.21180  Biso   1.000  C
  C886     1.0000 0.25660  0.48610  0.21360  Biso   1.000  C
  C887     1.0000 0.28670  0.47690  0.20010  Biso   1.000  C
  O296     1.0000 0.36132  0.53026  0.18039  Biso   1.000  O
  C888     1.0000 0.27660  0.49140  0.19100  Biso   1.000  C
  O297     1.0000 0.10459  0.97008  0.14617  Biso   1.000  O
  C889     1.0000 0.11553  0.95922  0.16932  Biso   1.000  C
  C890     1.0000 0.10069  0.93723  0.18362  Biso   1.000  C
  C891     1.0000 0.11060  0.92640  0.21180  Biso   1.000  C
  C892     1.0000 0.24340  0.01390  0.21360  Biso   1.000  C
  C893     1.0000 0.21330  0.02310  0.20010  Biso   1.000  C
  O298     1.0000 0.13868  0.96974  0.18039  Biso   1.000  O
  C894     1.0000 0.22340  0.00860  0.19100  Biso   1.000  C
  O299     1.0000 0.10459  0.47008  0.64617  Biso   1.000  O
  C895     1.0000 0.11553  0.45922  0.66932  Biso   1.000  C
  C896     1.0000 0.10069  0.43723  0.68362  Biso   1.000  C
  C897     1.0000 0.11060  0.42640  0.71180  Biso   1.000  C
  C898     1.0000 0.24340  0.51390  0.71360  Biso   1.000  C
  C899     1.0000 0.21330  0.52310  0.70010  Biso   1.000  C
  O300     1.0000 0.13868  0.46974  0.68039  Biso   1.000  O
  C900     1.0000 0.22340  0.50860  0.69100  Biso   1.000  C
  O301     1.0000 0.60459  0.97008  0.64617  Biso   1.000  O
  C901     1.0000 0.61553  0.95922  0.66932  Biso   1.000  C
  C902     1.0000 0.60069  0.93723  0.68362  Biso   1.000  C
  C903     1.0000 0.61060  0.92640  0.71180  Biso   1.000  C
  C904     1.0000 0.74340  0.01390  0.71360  Biso   1.000  C
  C905     1.0000 0.71330  0.02310  0.70010  Biso   1.000  C
  O302     1.0000 0.63868  0.96974  0.68039  Biso   1.000  O
  C906     1.0000 0.72340  0.00860  0.69100  Biso   1.000  C
  O303     1.0000 0.60459  0.47008  0.14617  Biso   1.000  O
  C907     1.0000 0.61553  0.45922  0.16932  Biso   1.000  C
  C908     1.0000 0.60069  0.43723  0.18362  Biso   1.000  C
  C909     1.0000 0.61060  0.42640  0.21180  Biso   1.000  C
  C910     1.0000 0.74340  0.51390  0.21360  Biso   1.000  C
  C911     1.0000 0.71330  0.52310  0.20010  Biso   1.000  C
  O304     1.0000 0.63868  0.46974  0.18039  Biso   1.000  O
  C912     1.0000 0.72340  0.50860  0.19100  Biso   1.000  C
  O305     1.0000 0.89541  0.97008  0.85383  Biso   1.000  O
  C913     1.0000 0.88447  0.95922  0.83068  Biso   1.000  C
  C914     1.0000 0.89931  0.93723  0.81638  Biso   1.000  C
  C915     1.0000 0.88940  0.92640  0.78820  Biso   1.000  C
  C916     1.0000 0.75660  0.01390  0.78640  Biso   1.000  C
  C917     1.0000 0.78670  0.02310  0.79990  Biso   1.000  C
  O306     1.0000 0.86132  0.96974  0.81961  Biso   1.000  O
  C918     1.0000 0.77660  0.00860  0.80900  Biso   1.000  C
  O307     1.0000 0.89541  0.47008  0.35383  Biso   1.000  O
  C919     1.0000 0.88447  0.45922  0.33068  Biso   1.000  C
  C920     1.0000 0.89931  0.43723  0.31638  Biso   1.000  C
  C921     1.0000 0.88940  0.42640  0.28820  Biso   1.000  C
  C922     1.0000 0.75660  0.51390  0.28640  Biso   1.000  C
  C923     1.0000 0.78670  0.52310  0.29990  Biso   1.000  C
  O308     1.0000 0.86132  0.46974  0.31961  Biso   1.000  O
  C924     1.0000 0.77660  0.50860  0.30900  Biso   1.000  C
  O309     1.0000 0.39541  0.97008  0.35383  Biso   1.000  O
  C925     1.0000 0.38447  0.95922  0.33068  Biso   1.000  C
  C926     1.0000 0.39931  0.93723  0.31638  Biso   1.000  C
  C927     1.0000 0.38940  0.92640  0.28820  Biso   1.000  C
  C928     1.0000 0.25660  0.01390  0.28640  Biso   1.000  C
  C929     1.0000 0.28670  0.02310  0.29990  Biso   1.000  C
  O310     1.0000 0.36132  0.96974  0.31961  Biso   1.000  O
  C930     1.0000 0.27660  0.00860  0.30900  Biso   1.000  C
  O311     1.0000 0.39541  0.47008  0.85383  Biso   1.000  O
  C931     1.0000 0.38447  0.45922  0.83068  Biso   1.000  C
  C932     1.0000 0.39931  0.43723  0.81638  Biso   1.000  C
  C933     1.0000 0.38940  0.42640  0.78820  Biso   1.000  C
  C934     1.0000 0.25660  0.51390  0.78640  Biso   1.000  C
  C935     1.0000 0.28670  0.52310  0.79990  Biso   1.000  C
  O312     1.0000 0.36132  0.46974  0.81961  Biso   1.000  O
  C936     1.0000 0.27660  0.50860  0.80900  Biso   1.000  C
  O313     1.0000 0.10459  0.02992  0.85383  Biso   1.000  O
  C937     1.0000 0.11553  0.04078  0.83068  Biso   1.000  C
  C938     1.0000 0.10069  0.06277  0.81638  Biso   1.000  C
  C939     1.0000 0.11060  0.07360  0.78820  Biso   1.000  C
  C940     1.0000 0.24340  0.98610  0.78640  Biso   1.000  C
  C941     1.0000 0.21330  0.97690  0.79990  Biso   1.000  C
  O314     1.0000 0.13868  0.03026  0.81961  Biso   1.000  O
  C942     1.0000 0.22340  0.99140  0.80900  Biso   1.000  C
  O315     1.0000 0.10459  0.52992  0.35383  Biso   1.000  O
  C943     1.0000 0.11553  0.54078  0.33068  Biso   1.000  C
  C944     1.0000 0.10069  0.56277  0.31638  Biso   1.000  C
  C945     1.0000 0.11060  0.57360  0.28820  Biso   1.000  C
  C946     1.0000 0.24340  0.48610  0.28640  Biso   1.000  C
  C947     1.0000 0.21330  0.47690  0.29990  Biso   1.000  C
  O316     1.0000 0.13868  0.53026  0.31961  Biso   1.000  O
  C948     1.0000 0.22340  0.49140  0.30900  Biso   1.000  C
  O317     1.0000 0.60459  0.02992  0.35383  Biso   1.000  O
  C949     1.0000 0.61553  0.04078  0.33068  Biso   1.000  C
  C950     1.0000 0.60069  0.06277  0.31638  Biso   1.000  C
  C951     1.0000 0.61060  0.07360  0.28820  Biso   1.000  C
  C952     1.0000 0.74340  0.98610  0.28640  Biso   1.000  C
  C953     1.0000 0.71330  0.97690  0.29990  Biso   1.000  C
  O318     1.0000 0.63868  0.03026  0.31961  Biso   1.000  O
  C954     1.0000 0.72340  0.99140  0.30900  Biso   1.000  C
  O319     1.0000 0.60459  0.52992  0.85383  Biso   1.000  O
  C955     1.0000 0.61553  0.54078  0.83068  Biso   1.000  C
  C956     1.0000 0.60069  0.56277  0.81638  Biso   1.000  C
  C957     1.0000 0.61060  0.57360  0.78820  Biso   1.000  C
  C958     1.0000 0.74340  0.48610  0.78640  Biso   1.000  C
  C959     1.0000 0.71330  0.47690  0.79990  Biso   1.000  C
  O320     1.0000 0.63868  0.53026  0.81961  Biso   1.000  O
  C960     1.0000 0.72340  0.49140  0.80900  Biso   1.000  C
  O321     1.0000 0.02992  0.85383  0.10459  Biso   1.000  O
  C961     1.0000 0.04078  0.83068  0.11553  Biso   1.000  C
  C962     1.0000 0.06277  0.81638  0.10069  Biso   1.000  C
  C963     1.0000 0.07360  0.78820  0.11060  Biso   1.000  C
  C964     1.0000 0.98610  0.78640  0.24340  Biso   1.000  C
  C965     1.0000 0.97690  0.79990  0.21330  Biso   1.000  C
  O322     1.0000 0.03026  0.81961  0.13868  Biso   1.000  O
  C966     1.0000 0.99140  0.80900  0.22340  Biso   1.000  C
  O323     1.0000 0.02992  0.35383  0.60459  Biso   1.000  O
  C967     1.0000 0.04078  0.33068  0.61553  Biso   1.000  C
  C968     1.0000 0.06277  0.31638  0.60069  Biso   1.000  C
  C969     1.0000 0.07360  0.28820  0.61060  Biso   1.000  C
  C970     1.0000 0.98610  0.28640  0.74340  Biso   1.000  C
  C971     1.0000 0.97690  0.29990  0.71330  Biso   1.000  C
  O324     1.0000 0.03026  0.31961  0.63868  Biso   1.000  O
  C972     1.0000 0.99140  0.30900  0.72340  Biso   1.000  C
  O325     1.0000 0.52992  0.85383  0.60459  Biso   1.000  O
  C973     1.0000 0.54078  0.83068  0.61553  Biso   1.000  C
  C974     1.0000 0.56277  0.81638  0.60069  Biso   1.000  C
  C975     1.0000 0.57360  0.78820  0.61060  Biso   1.000  C
  C976     1.0000 0.48610  0.78640  0.74340  Biso   1.000  C
  C977     1.0000 0.47690  0.79990  0.71330  Biso   1.000  C
  O326     1.0000 0.53026  0.81961  0.63868  Biso   1.000  O
  C978     1.0000 0.49140  0.80900  0.72340  Biso   1.000  C
  O327     1.0000 0.52992  0.35383  0.10459  Biso   1.000  O
  C979     1.0000 0.54078  0.33068  0.11553  Biso   1.000  C
  C980     1.0000 0.56277  0.31638  0.10069  Biso   1.000  C
  C981     1.0000 0.57360  0.28820  0.11060  Biso   1.000  C
  C982     1.0000 0.48610  0.28640  0.24340  Biso   1.000  C
  C983     1.0000 0.47690  0.29990  0.21330  Biso   1.000  C
  O328     1.0000 0.53026  0.31961  0.13868  Biso   1.000  O
  C984     1.0000 0.49140  0.30900  0.22340  Biso   1.000  C
  O329     1.0000 0.97008  0.85383  0.89541  Biso   1.000  O
  C985     1.0000 0.95922  0.83068  0.88447  Biso   1.000  C
  C986     1.0000 0.93723  0.81638  0.89931  Biso   1.000  C
  C987     1.0000 0.92640  0.78820  0.88940  Biso   1.000  C
  C988     1.0000 0.01390  0.78640  0.75660  Biso   1.000  C
  C989     1.0000 0.02310  0.79990  0.78670  Biso   1.000  C
  O330     1.0000 0.96974  0.81961  0.86132  Biso   1.000  O
  C990     1.0000 0.00860  0.80900  0.77660  Biso   1.000  C
  O331     1.0000 0.97008  0.35383  0.39541  Biso   1.000  O
  C991     1.0000 0.95922  0.33068  0.38447  Biso   1.000  C
  C992     1.0000 0.93723  0.31638  0.39931  Biso   1.000  C
  C993     1.0000 0.92640  0.28820  0.38940  Biso   1.000  C
  C994     1.0000 0.01390  0.28640  0.25660  Biso   1.000  C
  C995     1.0000 0.02310  0.29990  0.28670  Biso   1.000  C
  O332     1.0000 0.96974  0.31961  0.36132  Biso   1.000  O
  C996     1.0000 0.00860  0.30900  0.27660  Biso   1.000  C
  O333     1.0000 0.47008  0.85383  0.39541  Biso   1.000  O
  C997     1.0000 0.45922  0.83068  0.38447  Biso   1.000  C
  C998     1.0000 0.43723  0.81638  0.39931  Biso   1.000  C
  C999     1.0000 0.42640  0.78820  0.38940  Biso   1.000  C
  C1000    1.0000 0.51390  0.78640  0.25660  Biso   1.000  C
  C1001    1.0000 0.52310  0.79990  0.28670  Biso   1.000  C
  O334     1.0000 0.46974  0.81961  0.36132  Biso   1.000  O
  C1002    1.0000 0.50860  0.80900  0.27660  Biso   1.000  C
  O335     1.0000 0.47008  0.35383  0.89541  Biso   1.000  O
  C1003    1.0000 0.45922  0.33068  0.88447  Biso   1.000  C
  C1004    1.0000 0.43723  0.31638  0.89931  Biso   1.000  C
  C1005    1.0000 0.42640  0.28820  0.88940  Biso   1.000  C
  C1006    1.0000 0.51390  0.28640  0.75660  Biso   1.000  C
  C1007    1.0000 0.52310  0.29990  0.78670  Biso   1.000  C
  O336     1.0000 0.46974  0.31961  0.86132  Biso   1.000  O
  C1008    1.0000 0.50860  0.30900  0.77660  Biso   1.000  C
  O337     1.0000 0.97008  0.14617  0.10459  Biso   1.000  O
  C1009    1.0000 0.95922  0.16932  0.11553  Biso   1.000  C
  C1010    1.0000 0.93723  0.18362  0.10069  Biso   1.000  C
  C1011    1.0000 0.92640  0.21180  0.11060  Biso   1.000  C
  C1012    1.0000 0.01390  0.21360  0.24340  Biso   1.000  C
  C1013    1.0000 0.02310  0.20010  0.21330  Biso   1.000  C
  O338     1.0000 0.96974  0.18039  0.13868  Biso   1.000  O
  C1014    1.0000 0.00860  0.19100  0.22340  Biso   1.000  C
  O339     1.0000 0.97008  0.64617  0.60459  Biso   1.000  O
  C1015    1.0000 0.95922  0.66932  0.61553  Biso   1.000  C
  C1016    1.0000 0.93723  0.68362  0.60069  Biso   1.000  C
  C1017    1.0000 0.92640  0.71180  0.61060  Biso   1.000  C
  C1018    1.0000 0.01390  0.71360  0.74340  Biso   1.000  C
  C1019    1.0000 0.02310  0.70010  0.71330  Biso   1.000  C
  O340     1.0000 0.96974  0.68039  0.63868  Biso   1.000  O
  C1020    1.0000 0.00860  0.69100  0.72340  Biso   1.000  C
  O341     1.0000 0.47008  0.14617  0.60459  Biso   1.000  O
  C1021    1.0000 0.45922  0.16932  0.61553  Biso   1.000  C
  C1022    1.0000 0.43723  0.18362  0.60069  Biso   1.000  C
  C1023    1.0000 0.42640  0.21180  0.61060  Biso   1.000  C
  C1024    1.0000 0.51390  0.21360  0.74340  Biso   1.000  C
  C1025    1.0000 0.52310  0.20010  0.71330  Biso   1.000  C
  O342     1.0000 0.46974  0.18039  0.63868  Biso   1.000  O
  C1026    1.0000 0.50860  0.19100  0.72340  Biso   1.000  C
  O343     1.0000 0.47008  0.64617  0.10459  Biso   1.000  O
  C1027    1.0000 0.45922  0.66932  0.11553  Biso   1.000  C
  C1028    1.0000 0.43723  0.68362  0.10069  Biso   1.000  C
  C1029    1.0000 0.42640  0.71180  0.11060  Biso   1.000  C
  C1030    1.0000 0.51390  0.71360  0.24340  Biso   1.000  C
  C1031    1.0000 0.52310  0.70010  0.21330  Biso   1.000  C
  O344     1.0000 0.46974  0.68039  0.13868  Biso   1.000  O
  C1032    1.0000 0.50860  0.69100  0.22340  Biso   1.000  C
  O345     1.0000 0.02992  0.14617  0.89541  Biso   1.000  O
  C1033    1.0000 0.04078  0.16932  0.88447  Biso   1.000  C
  C1034    1.0000 0.06277  0.18362  0.89931  Biso   1.000  C
  C1035    1.0000 0.07360  0.21180  0.88940  Biso   1.000  C
  C1036    1.0000 0.98610  0.21360  0.75660  Biso   1.000  C
  C1037    1.0000 0.97690  0.20010  0.78670  Biso   1.000  C
  O346     1.0000 0.03026  0.18039  0.86132  Biso   1.000  O
  C1038    1.0000 0.99140  0.19100  0.77660  Biso   1.000  C
  O347     1.0000 0.02992  0.64617  0.39541  Biso   1.000  O
  C1039    1.0000 0.04078  0.66932  0.38447  Biso   1.000  C
  C1040    1.0000 0.06277  0.68362  0.39931  Biso   1.000  C
  C1041    1.0000 0.07360  0.71180  0.38940  Biso   1.000  C
  C1042    1.0000 0.98610  0.71360  0.25660  Biso   1.000  C
  C1043    1.0000 0.97690  0.70010  0.28670  Biso   1.000  C
  O348     1.0000 0.03026  0.68039  0.36132  Biso   1.000  O
  C1044    1.0000 0.99140  0.69100  0.27660  Biso   1.000  C
  O349     1.0000 0.52992  0.14617  0.39541  Biso   1.000  O
  C1045    1.0000 0.54078  0.16932  0.38447  Biso   1.000  C
  C1046    1.0000 0.56277  0.18362  0.39931  Biso   1.000  C
  C1047    1.0000 0.57360  0.21180  0.38940  Biso   1.000  C
  C1048    1.0000 0.48610  0.21360  0.25660  Biso   1.000  C
  C1049    1.0000 0.47690  0.20010  0.28670  Biso   1.000  C
  O350     1.0000 0.53026  0.18039  0.36132  Biso   1.000  O
  C1050    1.0000 0.49140  0.19100  0.27660  Biso   1.000  C
  O351     1.0000 0.52992  0.64617  0.89541  Biso   1.000  O
  C1051    1.0000 0.54078  0.66932  0.88447  Biso   1.000  C
  C1052    1.0000 0.56277  0.68362  0.89931  Biso   1.000  C
  C1053    1.0000 0.57360  0.71180  0.88940  Biso   1.000  C
  C1054    1.0000 0.48610  0.71360  0.75660  Biso   1.000  C
  C1055    1.0000 0.47690  0.70010  0.78670  Biso   1.000  C
  O352     1.0000 0.53026  0.68039  0.86132  Biso   1.000  O
  C1056    1.0000 0.49140  0.69100  0.77660  Biso   1.000  C
  O353     1.0000 0.85383  0.89541  0.97008  Biso   1.000  O
  C1057    1.0000 0.83068  0.88447  0.95922  Biso   1.000  C
  C1058    1.0000 0.81638  0.89931  0.93723  Biso   1.000  C
  C1059    1.0000 0.78820  0.88940  0.92640  Biso   1.000  C
  C1060    1.0000 0.78640  0.75660  0.01390  Biso   1.000  C
  C1061    1.0000 0.79990  0.78670  0.02310  Biso   1.000  C
  O354     1.0000 0.81961  0.86132  0.96974  Biso   1.000  O
  C1062    1.0000 0.80900  0.77660  0.00860  Biso   1.000  C
  O355     1.0000 0.85383  0.39541  0.47008  Biso   1.000  O
  C1063    1.0000 0.83068  0.38447  0.45922  Biso   1.000  C
  C1064    1.0000 0.81638  0.39931  0.43723  Biso   1.000  C
  C1065    1.0000 0.78820  0.38940  0.42640  Biso   1.000  C
  C1066    1.0000 0.78640  0.25660  0.51390  Biso   1.000  C
  C1067    1.0000 0.79990  0.28670  0.52310  Biso   1.000  C
  O356     1.0000 0.81961  0.36132  0.46974  Biso   1.000  O
  C1068    1.0000 0.80900  0.27660  0.50860  Biso   1.000  C
  O357     1.0000 0.35383  0.89541  0.47008  Biso   1.000  O
  C1069    1.0000 0.33068  0.88447  0.45922  Biso   1.000  C
  C1070    1.0000 0.31638  0.89931  0.43723  Biso   1.000  C
  C1071    1.0000 0.28820  0.88940  0.42640  Biso   1.000  C
  C1072    1.0000 0.28640  0.75660  0.51390  Biso   1.000  C
  C1073    1.0000 0.29990  0.78670  0.52310  Biso   1.000  C
  O358     1.0000 0.31961  0.86132  0.46974  Biso   1.000  O
  C1074    1.0000 0.30900  0.77660  0.50860  Biso   1.000  C
  O359     1.0000 0.35383  0.39541  0.97008  Biso   1.000  O
  C1075    1.0000 0.33068  0.38447  0.95922  Biso   1.000  C
  C1076    1.0000 0.31638  0.39931  0.93723  Biso   1.000  C
  C1077    1.0000 0.28820  0.38940  0.92640  Biso   1.000  C
  C1078    1.0000 0.28640  0.25660  0.01390  Biso   1.000  C
  C1079    1.0000 0.29990  0.28670  0.02310  Biso   1.000  C
  O360     1.0000 0.31961  0.36132  0.96974  Biso   1.000  O
  C1080    1.0000 0.30900  0.27660  0.00860  Biso   1.000  C
  O361     1.0000 0.85383  0.10459  0.02992  Biso   1.000  O
  C1081    1.0000 0.83068  0.11553  0.04078  Biso   1.000  C
  C1082    1.0000 0.81638  0.10069  0.06277  Biso   1.000  C
  C1083    1.0000 0.78820  0.11060  0.07360  Biso   1.000  C
  C1084    1.0000 0.78640  0.24340  0.98610  Biso   1.000  C
  C1085    1.0000 0.79990  0.21330  0.97690  Biso   1.000  C
  O362     1.0000 0.81961  0.13868  0.03026  Biso   1.000  O
  C1086    1.0000 0.80900  0.22340  0.99140  Biso   1.000  C
  O363     1.0000 0.85383  0.60459  0.52992  Biso   1.000  O
  C1087    1.0000 0.83068  0.61553  0.54078  Biso   1.000  C
  C1088    1.0000 0.81638  0.60069  0.56277  Biso   1.000  C
  C1089    1.0000 0.78820  0.61060  0.57360  Biso   1.000  C
  C1090    1.0000 0.78640  0.74340  0.48610  Biso   1.000  C
  C1091    1.0000 0.79990  0.71330  0.47690  Biso   1.000  C
  O364     1.0000 0.81961  0.63868  0.53026  Biso   1.000  O
  C1092    1.0000 0.80900  0.72340  0.49140  Biso   1.000  C
  O365     1.0000 0.35383  0.10459  0.52992  Biso   1.000  O
  C1093    1.0000 0.33068  0.11553  0.54078  Biso   1.000  C
  C1094    1.0000 0.31638  0.10069  0.56277  Biso   1.000  C
  C1095    1.0000 0.28820  0.11060  0.57360  Biso   1.000  C
  C1096    1.0000 0.28640  0.24340  0.48610  Biso   1.000  C
  C1097    1.0000 0.29990  0.21330  0.47690  Biso   1.000  C
  O366     1.0000 0.31961  0.13868  0.53026  Biso   1.000  O
  C1098    1.0000 0.30900  0.22340  0.49140  Biso   1.000  C
  O367     1.0000 0.35383  0.60459  0.02992  Biso   1.000  O
  C1099    1.0000 0.33068  0.61553  0.04078  Biso   1.000  C
  C1100    1.0000 0.31638  0.60069  0.06277  Biso   1.000  C
  C1101    1.0000 0.28820  0.61060  0.07360  Biso   1.000  C
  C1102    1.0000 0.28640  0.74340  0.98610  Biso   1.000  C
  C1103    1.0000 0.29990  0.71330  0.97690  Biso   1.000  C
  O368     1.0000 0.31961  0.63868  0.03026  Biso   1.000  O
  C1104    1.0000 0.30900  0.72340  0.99140  Biso   1.000  C
  O369     1.0000 0.14617  0.89541  0.02992  Biso   1.000  O
  C1105    1.0000 0.16932  0.88447  0.04078  Biso   1.000  C
  C1106    1.0000 0.18362  0.89931  0.06277  Biso   1.000  C
  C1107    1.0000 0.21180  0.88940  0.07360  Biso   1.000  C
  C1108    1.0000 0.21360  0.75660  0.98610  Biso   1.000  C
  C1109    1.0000 0.20010  0.78670  0.97690  Biso   1.000  C
  O370     1.0000 0.18039  0.86132  0.03026  Biso   1.000  O
  C1110    1.0000 0.19100  0.77660  0.99140  Biso   1.000  C
  O371     1.0000 0.14617  0.39541  0.52992  Biso   1.000  O
  C1111    1.0000 0.16932  0.38447  0.54078  Biso   1.000  C
  C1112    1.0000 0.18362  0.39931  0.56277  Biso   1.000  C
  C1113    1.0000 0.21180  0.38940  0.57360  Biso   1.000  C
  C1114    1.0000 0.21360  0.25660  0.48610  Biso   1.000  C
  C1115    1.0000 0.20010  0.28670  0.47690  Biso   1.000  C
  O372     1.0000 0.18039  0.36132  0.53026  Biso   1.000  O
  C1116    1.0000 0.19100  0.27660  0.49140  Biso   1.000  C
  O373     1.0000 0.64617  0.89541  0.52992  Biso   1.000  O
  C1117    1.0000 0.66932  0.88447  0.54078  Biso   1.000  C
  C1118    1.0000 0.68362  0.89931  0.56277  Biso   1.000  C
  C1119    1.0000 0.71180  0.88940  0.57360  Biso   1.000  C
  C1120    1.0000 0.71360  0.75660  0.48610  Biso   1.000  C
  C1121    1.0000 0.70010  0.78670  0.47690  Biso   1.000  C
  O374     1.0000 0.68039  0.86132  0.53026  Biso   1.000  O
  C1122    1.0000 0.69100  0.77660  0.49140  Biso   1.000  C
  O375     1.0000 0.64617  0.39541  0.02992  Biso   1.000  O
  C1123    1.0000 0.66932  0.38447  0.04078  Biso   1.000  C
  C1124    1.0000 0.68362  0.39931  0.06277  Biso   1.000  C
  C1125    1.0000 0.71180  0.38940  0.07360  Biso   1.000  C
  C1126    1.0000 0.71360  0.25660  0.98610  Biso   1.000  C
  C1127    1.0000 0.70010  0.28670  0.97690  Biso   1.000  C
  O376     1.0000 0.68039  0.36132  0.03026  Biso   1.000  O
  C1128    1.0000 0.69100  0.27660  0.99140  Biso   1.000  C
  O377     1.0000 0.14617  0.10459  0.97008  Biso   1.000  O
  C1129    1.0000 0.16932  0.11553  0.95922  Biso   1.000  C
  C1130    1.0000 0.18362  0.10069  0.93723  Biso   1.000  C
  C1131    1.0000 0.21180  0.11060  0.92640  Biso   1.000  C
  C1132    1.0000 0.21360  0.24340  0.01390  Biso   1.000  C
  C1133    1.0000 0.20010  0.21330  0.02310  Biso   1.000  C
  O378     1.0000 0.18039  0.13868  0.96974  Biso   1.000  O
  C1134    1.0000 0.19100  0.22340  0.00860  Biso   1.000  C
  O379     1.0000 0.14617  0.60459  0.47008  Biso   1.000  O
  C1135    1.0000 0.16932  0.61553  0.45922  Biso   1.000  C
  C1136    1.0000 0.18362  0.60069  0.43723  Biso   1.000  C
  C1137    1.0000 0.21180  0.61060  0.42640  Biso   1.000  C
  C1138    1.0000 0.21360  0.74340  0.51390  Biso   1.000  C
  C1139    1.0000 0.20010  0.71330  0.52310  Biso   1.000  C
  O380     1.0000 0.18039  0.63868  0.46974  Biso   1.000  O
  C1140    1.0000 0.19100  0.72340  0.50860  Biso   1.000  C
  O381     1.0000 0.64617  0.10459  0.47008  Biso   1.000  O
  C1141    1.0000 0.66932  0.11553  0.45922  Biso   1.000  C
  C1142    1.0000 0.68362  0.10069  0.43723  Biso   1.000  C
  C1143    1.0000 0.71180  0.11060  0.42640  Biso   1.000  C
  C1144    1.0000 0.71360  0.24340  0.51390  Biso   1.000  C
  C1145    1.0000 0.70010  0.21330  0.52310  Biso   1.000  C
  O382     1.0000 0.68039  0.13868  0.46974  Biso   1.000  O
  C1146    1.0000 0.69100  0.22340  0.50860  Biso   1.000  C
  O383     1.0000 0.64617  0.60459  0.97008  Biso   1.000  O
  C1147    1.0000 0.66932  0.61553  0.95922  Biso   1.000  C
  C1148    1.0000 0.68362  0.60069  0.93723  Biso   1.000  C
  C1149    1.0000 0.71180  0.61060  0.92640  Biso   1.000  C
  C1150    1.0000 0.71360  0.74340  0.01390  Biso   1.000  C
  C1151    1.0000 0.70010  0.71330  0.02310  Biso   1.000  C
  O384     1.0000 0.68039  0.63868  0.96974  Biso   1.000  O
  C1152    1.0000 0.69100  0.72340  0.00860  Biso   1.000  C
  Cu1      1.0000 0.00000  0.12255  0.12255  Biso   1.000  Cu
  Cu2      1.0000 0.00000  0.16299  0.16299  Biso   1.000  Cu
  N1       1.0000 0.00000  0.19628  0.19628  Biso   1.000  N
  C1153    1.0000 0.00000  0.23798  0.23798  Biso   1.000  C
  Cu3      1.0000 0.00000  0.62255  0.62255  Biso   1.000  Cu
  Cu4      1.0000 0.00000  0.66299  0.66299  Biso   1.000  Cu
  N2       1.0000 0.00000  0.69628  0.69628  Biso   1.000  N
  C1154    1.0000 0.00000  0.73798  0.73798  Biso   1.000  C
  Cu5      1.0000 0.50000  0.12255  0.62255  Biso   1.000  Cu
  Cu6      1.0000 0.50000  0.16299  0.66299  Biso   1.000  Cu
  N3       1.0000 0.50000  0.19628  0.69628  Biso   1.000  N
  C1155    1.0000 0.50000  0.23798  0.73798  Biso   1.000  C
  Cu7      1.0000 0.50000  0.62255  0.12255  Biso   1.000  Cu
  Cu8      1.0000 0.50000  0.66299  0.16299  Biso   1.000  Cu
  N4       1.0000 0.50000  0.69628  0.19628  Biso   1.000  N
  C1156    1.0000 0.50000  0.73798  0.23798  Biso   1.000  C
  Cu9      1.0000 0.00000  0.87745  0.12255  Biso   1.000  Cu
  Cu10     1.0000 0.00000  0.83701  0.16299  Biso   1.000  Cu
  N5       1.0000 0.00000  0.80372  0.19628  Biso   1.000  N
  C1157    1.0000 0.00000  0.76202  0.23798  Biso   1.000  C
  Cu11     1.0000 0.00000  0.37745  0.62255  Biso   1.000  Cu
  Cu12     1.0000 0.00000  0.33701  0.66299  Biso   1.000  Cu
  N6       1.0000 0.00000  0.30372  0.69628  Biso   1.000  N
  C1158    1.0000 0.00000  0.26202  0.73798  Biso   1.000  C
  Cu13     1.0000 0.50000  0.87745  0.62255  Biso   1.000  Cu
  Cu14     1.0000 0.50000  0.83701  0.66299  Biso   1.000  Cu
  N7       1.0000 0.50000  0.80372  0.69628  Biso   1.000  N
  C1159    1.0000 0.50000  0.76202  0.73798  Biso   1.000  C
  Cu15     1.0000 0.50000  0.37745  0.12255  Biso   1.000  Cu
  Cu16     1.0000 0.50000  0.33701  0.16299  Biso   1.000  Cu
  N8       1.0000 0.50000  0.30372  0.19628  Biso   1.000  N
  C1160    1.0000 0.50000  0.26202  0.23798  Biso   1.000  C
  Cu17     1.0000 0.00000  0.12255  0.87745  Biso   1.000  Cu
  Cu18     1.0000 0.00000  0.16299  0.83701  Biso   1.000  Cu
  N9       1.0000 0.00000  0.19628  0.80372  Biso   1.000  N
  C1161    1.0000 0.00000  0.23798  0.76202  Biso   1.000  C
  Cu19     1.0000 0.00000  0.62255  0.37745  Biso   1.000  Cu
  Cu20     1.0000 0.00000  0.66299  0.33701  Biso   1.000  Cu
  N10      1.0000 0.00000  0.69628  0.30372  Biso   1.000  N
  C1162    1.0000 0.00000  0.73798  0.26202  Biso   1.000  C
  Cu21     1.0000 0.50000  0.12255  0.37745  Biso   1.000  Cu
  Cu22     1.0000 0.50000  0.16299  0.33701  Biso   1.000  Cu
  N11      1.0000 0.50000  0.19628  0.30372  Biso   1.000  N
  C1163    1.0000 0.50000  0.23798  0.26202  Biso   1.000  C
  Cu23     1.0000 0.50000  0.62255  0.87745  Biso   1.000  Cu
  Cu24     1.0000 0.50000  0.66299  0.83701  Biso   1.000  Cu
  N12      1.0000 0.50000  0.69628  0.80372  Biso   1.000  N
  C1164    1.0000 0.50000  0.73798  0.76202  Biso   1.000  C
  Cu25     1.0000 0.00000  0.87745  0.87745  Biso   1.000  Cu
  Cu26     1.0000 0.00000  0.83701  0.83701  Biso   1.000  Cu
  N13      1.0000 0.00000  0.80372  0.80372  Biso   1.000  N
  C1165    1.0000 0.00000  0.76202  0.76202  Biso   1.000  C
  Cu27     1.0000 0.00000  0.37745  0.37745  Biso   1.000  Cu
  Cu28     1.0000 0.00000  0.33701  0.33701  Biso   1.000  Cu
  N14      1.0000 0.00000  0.30372  0.30372  Biso   1.000  N
  C1166    1.0000 0.00000  0.26202  0.26202  Biso   1.000  C
  Cu29     1.0000 0.50000  0.87745  0.37745  Biso   1.000  Cu
  Cu30     1.0000 0.50000  0.83701  0.33701  Biso   1.000  Cu
  N15      1.0000 0.50000  0.80372  0.30372  Biso   1.000  N
  C1167    1.0000 0.50000  0.76202  0.26202  Biso   1.000  C
  Cu31     1.0000 0.50000  0.37745  0.87745  Biso   1.000  Cu
  Cu32     1.0000 0.50000  0.33701  0.83701  Biso   1.000  Cu
  N16      1.0000 0.50000  0.30372  0.80372  Biso   1.000  N
  C1168    1.0000 0.50000  0.26202  0.76202  Biso   1.000  C
  Cu33     1.0000 0.12255  0.00000  0.12255  Biso   1.000  Cu
  Cu34     1.0000 0.16299  0.00000  0.16299  Biso   1.000  Cu
  N17      1.0000 0.19628  0.00000  0.19628  Biso   1.000  N
  C1169    1.0000 0.23798  0.00000  0.23798  Biso   1.000  C
  Cu35     1.0000 0.12255  0.50000  0.62255  Biso   1.000  Cu
  Cu36     1.0000 0.16299  0.50000  0.66299  Biso   1.000  Cu
  N18      1.0000 0.19628  0.50000  0.69628  Biso   1.000  N
  C1170    1.0000 0.23798  0.50000  0.73798  Biso   1.000  C
  Cu37     1.0000 0.62255  0.00000  0.62255  Biso   1.000  Cu
  Cu38     1.0000 0.66299  0.00000  0.66299  Biso   1.000  Cu
  N19      1.0000 0.69628  0.00000  0.69628  Biso   1.000  N
  C1171    1.0000 0.73798  0.00000  0.73798  Biso   1.000  C
  Cu39     1.0000 0.62255  0.50000  0.12255  Biso   1.000  Cu
  Cu40     1.0000 0.66299  0.50000  0.16299  Biso   1.000  Cu
  N20      1.0000 0.69628  0.50000  0.19628  Biso   1.000  N
  C1172    1.0000 0.73798  0.50000  0.23798  Biso   1.000  C
  Cu41     1.0000 0.12255  0.00000  0.87745  Biso   1.000  Cu
  Cu42     1.0000 0.16299  0.00000  0.83701  Biso   1.000  Cu
  N21      1.0000 0.19628  0.00000  0.80372  Biso   1.000  N
  C1173    1.0000 0.23798  0.00000  0.76202  Biso   1.000  C
  Cu43     1.0000 0.12255  0.50000  0.37745  Biso   1.000  Cu
  Cu44     1.0000 0.16299  0.50000  0.33701  Biso   1.000  Cu
  N22      1.0000 0.19628  0.50000  0.30372  Biso   1.000  N
  C1174    1.0000 0.23798  0.50000  0.26202  Biso   1.000  C
  Cu45     1.0000 0.62255  0.00000  0.37745  Biso   1.000  Cu
  Cu46     1.0000 0.66299  0.00000  0.33701  Biso   1.000  Cu
  N23      1.0000 0.69628  0.00000  0.30372  Biso   1.000  N
  C1175    1.0000 0.73798  0.00000  0.26202  Biso   1.000  C
  Cu47     1.0000 0.62255  0.50000  0.87745  Biso   1.000  Cu
  Cu48     1.0000 0.66299  0.50000  0.83701  Biso   1.000  Cu
  N24      1.0000 0.69628  0.50000  0.80372  Biso   1.000  N
  C1176    1.0000 0.73798  0.50000  0.76202  Biso   1.000  C
  Cu49     1.0000 0.87745  0.00000  0.12255  Biso   1.000  Cu
  Cu50     1.0000 0.83701  0.00000  0.16299  Biso   1.000  Cu
  N25      1.0000 0.80372  0.00000  0.19628  Biso   1.000  N
  C1177    1.0000 0.76202  0.00000  0.23798  Biso   1.000  C
  Cu51     1.0000 0.87745  0.50000  0.62255  Biso   1.000  Cu
  Cu52     1.0000 0.83701  0.50000  0.66299  Biso   1.000  Cu
  N26      1.0000 0.80372  0.50000  0.69628  Biso   1.000  N
  C1178    1.0000 0.76202  0.50000  0.73798  Biso   1.000  C
  Cu53     1.0000 0.37745  0.00000  0.62255  Biso   1.000  Cu
  Cu54     1.0000 0.33701  0.00000  0.66299  Biso   1.000  Cu
  N27      1.0000 0.30372  0.00000  0.69628  Biso   1.000  N
  C1179    1.0000 0.26202  0.00000  0.73798  Biso   1.000  C
  Cu55     1.0000 0.37745  0.50000  0.12255  Biso   1.000  Cu
  Cu56     1.0000 0.33701  0.50000  0.16299  Biso   1.000  Cu
  N28      1.0000 0.30372  0.50000  0.19628  Biso   1.000  N
  C1180    1.0000 0.26202  0.50000  0.23798  Biso   1.000  C
  Cu57     1.0000 0.87745  0.00000  0.87745  Biso   1.000  Cu
  Cu58     1.0000 0.83701  0.00000  0.83701  Biso   1.000  Cu
  N29      1.0000 0.80372  0.00000  0.80372  Biso   1.000  N
  C1181    1.0000 0.76202  0.00000  0.76202  Biso   1.000  C
  Cu59     1.0000 0.87745  0.50000  0.37745  Biso   1.000  Cu
  Cu60     1.0000 0.83701  0.50000  0.33701  Biso   1.000  Cu
  N30      1.0000 0.80372  0.50000  0.30372  Biso   1.000  N
  C1182    1.0000 0.76202  0.50000  0.26202  Biso   1.000  C
  Cu61     1.0000 0.37745  0.00000  0.37745  Biso   1.000  Cu
  Cu62     1.0000 0.33701  0.00000  0.33701  Biso   1.000  Cu
  N31      1.0000 0.30372  0.00000  0.30372  Biso   1.000  N
  C1183    1.0000 0.26202  0.00000  0.26202  Biso   1.000  C
  Cu63     1.0000 0.37745  0.50000  0.87745  Biso   1.000  Cu
  Cu64     1.0000 0.33701  0.50000  0.83701  Biso   1.000  Cu
  N32      1.0000 0.30372  0.50000  0.80372  Biso   1.000  N
  C1184    1.0000 0.26202  0.50000  0.76202  Biso   1.000  C
  Cu65     1.0000 0.12255  0.12255  0.00000  Biso   1.000  Cu
  Cu66     1.0000 0.16299  0.16299  0.00000  Biso   1.000  Cu
  N33      1.0000 0.19628  0.19628  0.00000  Biso   1.000  N
  C1185    1.0000 0.23798  0.23798  0.00000  Biso   1.000  C
  Cu67     1.0000 0.12255  0.62255  0.50000  Biso   1.000  Cu
  Cu68     1.0000 0.16299  0.66299  0.50000  Biso   1.000  Cu
  N34      1.0000 0.19628  0.69628  0.50000  Biso   1.000  N
  C1186    1.0000 0.23798  0.73798  0.50000  Biso   1.000  C
  Cu69     1.0000 0.62255  0.12255  0.50000  Biso   1.000  Cu
  Cu70     1.0000 0.66299  0.16299  0.50000  Biso   1.000  Cu
  N35      1.0000 0.69628  0.19628  0.50000  Biso   1.000  N
  C1187    1.0000 0.73798  0.23798  0.50000  Biso   1.000  C
  Cu71     1.0000 0.62255  0.62255  0.00000  Biso   1.000  Cu
  Cu72     1.0000 0.66299  0.66299  0.00000  Biso   1.000  Cu
  N36      1.0000 0.69628  0.69628  0.00000  Biso   1.000  N
  C1188    1.0000 0.73798  0.73798  0.00000  Biso   1.000  C
  Cu73     1.0000 0.87745  0.12255  0.00000  Biso   1.000  Cu
  Cu74     1.0000 0.83701  0.16299  0.00000  Biso   1.000  Cu
  N37      1.0000 0.80372  0.19628  0.00000  Biso   1.000  N
  C1189    1.0000 0.76202  0.23798  0.00000  Biso   1.000  C
  Cu75     1.0000 0.87745  0.62255  0.50000  Biso   1.000  Cu
  Cu76     1.0000 0.83701  0.66299  0.50000  Biso   1.000  Cu
  N38      1.0000 0.80372  0.69628  0.50000  Biso   1.000  N
  C1190    1.0000 0.76202  0.73798  0.50000  Biso   1.000  C
  Cu77     1.0000 0.37745  0.12255  0.50000  Biso   1.000  Cu
  Cu78     1.0000 0.33701  0.16299  0.50000  Biso   1.000  Cu
  N39      1.0000 0.30372  0.19628  0.50000  Biso   1.000  N
  C1191    1.0000 0.26202  0.23798  0.50000  Biso   1.000  C
  Cu79     1.0000 0.37745  0.62255  0.00000  Biso   1.000  Cu
  Cu80     1.0000 0.33701  0.66299  0.00000  Biso   1.000  Cu
  N40      1.0000 0.30372  0.69628  0.00000  Biso   1.000  N
  C1192    1.0000 0.26202  0.73798  0.00000  Biso   1.000  C
  Cu81     1.0000 0.12255  0.87745  0.00000  Biso   1.000  Cu
  Cu82     1.0000 0.16299  0.83701  0.00000  Biso   1.000  Cu
  N41      1.0000 0.19628  0.80372  0.00000  Biso   1.000  N
  C1193    1.0000 0.23798  0.76202  0.00000  Biso   1.000  C
  Cu83     1.0000 0.12255  0.37745  0.50000  Biso   1.000  Cu
  Cu84     1.0000 0.16299  0.33701  0.50000  Biso   1.000  Cu
  N42      1.0000 0.19628  0.30372  0.50000  Biso   1.000  N
  C1194    1.0000 0.23798  0.26202  0.50000  Biso   1.000  C
  Cu85     1.0000 0.62255  0.87745  0.50000  Biso   1.000  Cu
  Cu86     1.0000 0.66299  0.83701  0.50000  Biso   1.000  Cu
  N43      1.0000 0.69628  0.80372  0.50000  Biso   1.000  N
  C1195    1.0000 0.73798  0.76202  0.50000  Biso   1.000  C
  Cu87     1.0000 0.62255  0.37745  0.00000  Biso   1.000  Cu
  Cu88     1.0000 0.66299  0.33701  0.00000  Biso   1.000  Cu
  N44      1.0000 0.69628  0.30372  0.00000  Biso   1.000  N
  C1196    1.0000 0.73798  0.26202  0.00000  Biso   1.000  C
  Cu89     1.0000 0.87745  0.87745  0.00000  Biso   1.000  Cu
  Cu90     1.0000 0.83701  0.83701  0.00000  Biso   1.000  Cu
  N45      1.0000 0.80372  0.80372  0.00000  Biso   1.000  N
  C1197    1.0000 0.76202  0.76202  0.00000  Biso   1.000  C
  Cu91     1.0000 0.87745  0.37745  0.50000  Biso   1.000  Cu
  Cu92     1.0000 0.83701  0.33701  0.50000  Biso   1.000  Cu
  N46      1.0000 0.80372  0.30372  0.50000  Biso   1.000  N
  C1198    1.0000 0.76202  0.26202  0.50000  Biso   1.000  C
  Cu93     1.0000 0.37745  0.87745  0.50000  Biso   1.000  Cu
  Cu94     1.0000 0.33701  0.83701  0.50000  Biso   1.000  Cu
  N47      1.0000 0.30372  0.80372  0.50000  Biso   1.000  N
  C1199    1.0000 0.26202  0.76202  0.50000  Biso   1.000  C
  Cu95     1.0000 0.37745  0.37745  0.00000  Biso   1.000  Cu
  Cu96     1.0000 0.33701  0.33701  0.00000  Biso   1.000  Cu
  N48      1.0000 0.30372  0.30372  0.00000  Biso   1.000  N
  C1200    1.0000 0.26202  0.26202  0.00000  Biso   1.000  C
  C1201    1.0000 0.92302  0.07698  0.17070  Biso   1.000  C
  C1202    1.0000 0.89540  0.10460  0.21780  Biso   1.000  C
  N49      1.0000 0.88130  0.11870  0.24140  Biso   1.000  N
  C1203    1.0000 0.91000  0.09000  0.22810  Biso   1.000  C
  N50      1.0000 0.90290  0.09710  0.25740  Biso   1.000  N
  C1204    1.0000 0.92302  0.57698  0.67070  Biso   1.000  C
  C1205    1.0000 0.89540  0.60460  0.71780  Biso   1.000  C
  N51      1.0000 0.88130  0.61870  0.74140  Biso   1.000  N
  C1206    1.0000 0.91000  0.59000  0.72810  Biso   1.000  C
  N52      1.0000 0.90290  0.59710  0.75740  Biso   1.000  N
  C1207    1.0000 0.42302  0.07698  0.67070  Biso   1.000  C
  C1208    1.0000 0.39540  0.10460  0.71780  Biso   1.000  C
  N53      1.0000 0.38130  0.11870  0.74140  Biso   1.000  N
  C1209    1.0000 0.41000  0.09000  0.72810  Biso   1.000  C
  N54      1.0000 0.40290  0.09710  0.75740  Biso   1.000  N
  C1210    1.0000 0.42302  0.57698  0.17070  Biso   1.000  C
  C1211    1.0000 0.39540  0.60460  0.21780  Biso   1.000  C
  N55      1.0000 0.38130  0.61870  0.24140  Biso   1.000  N
  C1212    1.0000 0.41000  0.59000  0.22810  Biso   1.000  C
  N56      1.0000 0.40290  0.59710  0.25740  Biso   1.000  N
  C1213    1.0000 0.07698  0.92302  0.17070  Biso   1.000  C
  C1214    1.0000 0.10460  0.89540  0.21780  Biso   1.000  C
  N57      1.0000 0.11870  0.88130  0.24140  Biso   1.000  N
  C1215    1.0000 0.09000  0.91000  0.22810  Biso   1.000  C
  N58      1.0000 0.09710  0.90290  0.25740  Biso   1.000  N
  C1216    1.0000 0.07698  0.42302  0.67070  Biso   1.000  C
  C1217    1.0000 0.10460  0.39540  0.71780  Biso   1.000  C
  N59      1.0000 0.11870  0.38130  0.74140  Biso   1.000  N
  C1218    1.0000 0.09000  0.41000  0.72810  Biso   1.000  C
  N60      1.0000 0.09710  0.40290  0.75740  Biso   1.000  N
  C1219    1.0000 0.57698  0.92302  0.67070  Biso   1.000  C
  C1220    1.0000 0.60460  0.89540  0.71780  Biso   1.000  C
  N61      1.0000 0.61870  0.88130  0.74140  Biso   1.000  N
  C1221    1.0000 0.59000  0.91000  0.72810  Biso   1.000  C
  N62      1.0000 0.59710  0.90290  0.75740  Biso   1.000  N
  C1222    1.0000 0.57698  0.42302  0.17070  Biso   1.000  C
  C1223    1.0000 0.60460  0.39540  0.21780  Biso   1.000  C
  N63      1.0000 0.61870  0.38130  0.24140  Biso   1.000  N
  C1224    1.0000 0.59000  0.41000  0.22810  Biso   1.000  C
  N64      1.0000 0.59710  0.40290  0.25740  Biso   1.000  N
  C1225    1.0000 0.07698  0.07698  0.82930  Biso   1.000  C
  C1226    1.0000 0.10460  0.10460  0.78220  Biso   1.000  C
  N65      1.0000 0.11870  0.11870  0.75860  Biso   1.000  N
  C1227    1.0000 0.09000  0.09000  0.77190  Biso   1.000  C
  N66      1.0000 0.09710  0.09710  0.74260  Biso   1.000  N
  C1228    1.0000 0.07698  0.57698  0.32930  Biso   1.000  C
  C1229    1.0000 0.10460  0.60460  0.28220  Biso   1.000  C
  N67      1.0000 0.11870  0.61870  0.25860  Biso   1.000  N
  C1230    1.0000 0.09000  0.59000  0.27190  Biso   1.000  C
  N68      1.0000 0.09710  0.59710  0.24260  Biso   1.000  N
  C1231    1.0000 0.57698  0.07698  0.32930  Biso   1.000  C
  C1232    1.0000 0.60460  0.10460  0.28220  Biso   1.000  C
  N69      1.0000 0.61870  0.11870  0.25860  Biso   1.000  N
  C1233    1.0000 0.59000  0.09000  0.27190  Biso   1.000  C
  N70      1.0000 0.59710  0.09710  0.24260  Biso   1.000  N
  C1234    1.0000 0.57698  0.57698  0.82930  Biso   1.000  C
  C1235    1.0000 0.60460  0.60460  0.78220  Biso   1.000  C
  N71      1.0000 0.61870  0.61870  0.75860  Biso   1.000  N
  C1236    1.0000 0.59000  0.59000  0.77190  Biso   1.000  C
  N72      1.0000 0.59710  0.59710  0.74260  Biso   1.000  N
  C1237    1.0000 0.92302  0.92302  0.82930  Biso   1.000  C
  C1238    1.0000 0.89540  0.89540  0.78220  Biso   1.000  C
  N73      1.0000 0.88130  0.88130  0.75860  Biso   1.000  N
  C1239    1.0000 0.91000  0.91000  0.77190  Biso   1.000  C
  N74      1.0000 0.90290  0.90290  0.74260  Biso   1.000  N
  C1240    1.0000 0.92302  0.42302  0.32930  Biso   1.000  C
  C1241    1.0000 0.89540  0.39540  0.28220  Biso   1.000  C
  N75      1.0000 0.88130  0.38130  0.25860  Biso   1.000  N
  C1242    1.0000 0.91000  0.41000  0.27190  Biso   1.000  C
  N76      1.0000 0.90290  0.40290  0.24260  Biso   1.000  N
  C1243    1.0000 0.42302  0.92302  0.32930  Biso   1.000  C
  C1244    1.0000 0.39540  0.89540  0.28220  Biso   1.000  C
  N77      1.0000 0.38130  0.88130  0.25860  Biso   1.000  N
  C1245    1.0000 0.41000  0.91000  0.27190  Biso   1.000  C
  N78      1.0000 0.40290  0.90290  0.24260  Biso   1.000  N
  C1246    1.0000 0.42302  0.42302  0.82930  Biso   1.000  C
  C1247    1.0000 0.39540  0.39540  0.78220  Biso   1.000  C
  N79      1.0000 0.38130  0.38130  0.75860  Biso   1.000  N
  C1248    1.0000 0.41000  0.41000  0.77190  Biso   1.000  C
  N80      1.0000 0.40290  0.40290  0.74260  Biso   1.000  N
  C1249    1.0000 0.17070  0.92302  0.07698  Biso   1.000  C
  C1250    1.0000 0.21780  0.89540  0.10460  Biso   1.000  C
  N81      1.0000 0.24140  0.88130  0.11870  Biso   1.000  N
  C1251    1.0000 0.22810  0.91000  0.09000  Biso   1.000  C
  N82      1.0000 0.25740  0.90290  0.09710  Biso   1.000  N
  C1252    1.0000 0.17070  0.42302  0.57698  Biso   1.000  C
  C1253    1.0000 0.21780  0.39540  0.60460  Biso   1.000  C
  N83      1.0000 0.24140  0.38130  0.61870  Biso   1.000  N
  C1254    1.0000 0.22810  0.41000  0.59000  Biso   1.000  C
  N84      1.0000 0.25740  0.40290  0.59710  Biso   1.000  N
  C1255    1.0000 0.67070  0.92302  0.57698  Biso   1.000  C
  C1256    1.0000 0.71780  0.89540  0.60460  Biso   1.000  C
  N85      1.0000 0.74140  0.88130  0.61870  Biso   1.000  N
  C1257    1.0000 0.72810  0.91000  0.59000  Biso   1.000  C
  N86      1.0000 0.75740  0.90290  0.59710  Biso   1.000  N
  C1258    1.0000 0.67070  0.42302  0.07698  Biso   1.000  C
  C1259    1.0000 0.71780  0.39540  0.10460  Biso   1.000  C
  N87      1.0000 0.74140  0.38130  0.11870  Biso   1.000  N
  C1260    1.0000 0.72810  0.41000  0.09000  Biso   1.000  C
  N88      1.0000 0.75740  0.40290  0.09710  Biso   1.000  N
  C1261    1.0000 0.17070  0.07698  0.92302  Biso   1.000  C
  C1262    1.0000 0.21780  0.10460  0.89540  Biso   1.000  C
  N89      1.0000 0.24140  0.11870  0.88130  Biso   1.000  N
  C1263    1.0000 0.22810  0.09000  0.91000  Biso   1.000  C
  N90      1.0000 0.25740  0.09710  0.90290  Biso   1.000  N
  C1264    1.0000 0.17070  0.57698  0.42302  Biso   1.000  C
  C1265    1.0000 0.21780  0.60460  0.39540  Biso   1.000  C
  N91      1.0000 0.24140  0.61870  0.38130  Biso   1.000  N
  C1266    1.0000 0.22810  0.59000  0.41000  Biso   1.000  C
  N92      1.0000 0.25740  0.59710  0.40290  Biso   1.000  N
  C1267    1.0000 0.67070  0.07698  0.42302  Biso   1.000  C
  C1268    1.0000 0.71780  0.10460  0.39540  Biso   1.000  C
  N93      1.0000 0.74140  0.11870  0.38130  Biso   1.000  N
  C1269    1.0000 0.72810  0.09000  0.41000  Biso   1.000  C
  N94      1.0000 0.75740  0.09710  0.40290  Biso   1.000  N
  C1270    1.0000 0.67070  0.57698  0.92302  Biso   1.000  C
  C1271    1.0000 0.71780  0.60460  0.89540  Biso   1.000  C
  N95      1.0000 0.74140  0.61870  0.88130  Biso   1.000  N
  C1272    1.0000 0.72810  0.59000  0.91000  Biso   1.000  C
  N96      1.0000 0.75740  0.59710  0.90290  Biso   1.000  N
  C1273    1.0000 0.82930  0.07698  0.07698  Biso   1.000  C
  C1274    1.0000 0.78220  0.10460  0.10460  Biso   1.000  C
  N97      1.0000 0.75860  0.11870  0.11870  Biso   1.000  N
  C1275    1.0000 0.77190  0.09000  0.09000  Biso   1.000  C
  N98      1.0000 0.74260  0.09710  0.09710  Biso   1.000  N
  C1276    1.0000 0.82930  0.57698  0.57698  Biso   1.000  C
  C1277    1.0000 0.78220  0.60460  0.60460  Biso   1.000  C
  N99      1.0000 0.75860  0.61870  0.61870  Biso   1.000  N
  C1278    1.0000 0.77190  0.59000  0.59000  Biso   1.000  C
  N100     1.0000 0.74260  0.59710  0.59710  Biso   1.000  N
  C1279    1.0000 0.32930  0.07698  0.57698  Biso   1.000  C
  C1280    1.0000 0.28220  0.10460  0.60460  Biso   1.000  C
  N101     1.0000 0.25860  0.11870  0.61870  Biso   1.000  N
  C1281    1.0000 0.27190  0.09000  0.59000  Biso   1.000  C
  N102     1.0000 0.24260  0.09710  0.59710  Biso   1.000  N
  C1282    1.0000 0.32930  0.57698  0.07698  Biso   1.000  C
  C1283    1.0000 0.28220  0.60460  0.10460  Biso   1.000  C
  N103     1.0000 0.25860  0.61870  0.11870  Biso   1.000  N
  C1284    1.0000 0.27190  0.59000  0.09000  Biso   1.000  C
  N104     1.0000 0.24260  0.59710  0.09710  Biso   1.000  N
  C1285    1.0000 0.82930  0.92302  0.92302  Biso   1.000  C
  C1286    1.0000 0.78220  0.89540  0.89540  Biso   1.000  C
  N105     1.0000 0.75860  0.88130  0.88130  Biso   1.000  N
  C1287    1.0000 0.77190  0.91000  0.91000  Biso   1.000  C
  N106     1.0000 0.74260  0.90290  0.90290  Biso   1.000  N
  C1288    1.0000 0.82930  0.42302  0.42302  Biso   1.000  C
  C1289    1.0000 0.78220  0.39540  0.39540  Biso   1.000  C
  N107     1.0000 0.75860  0.38130  0.38130  Biso   1.000  N
  C1290    1.0000 0.77190  0.41000  0.41000  Biso   1.000  C
  N108     1.0000 0.74260  0.40290  0.40290  Biso   1.000  N
  C1291    1.0000 0.32930  0.92302  0.42302  Biso   1.000  C
  C1292    1.0000 0.28220  0.89540  0.39540  Biso   1.000  C
  N109     1.0000 0.25860  0.88130  0.38130  Biso   1.000  N
  C1293    1.0000 0.27190  0.91000  0.41000  Biso   1.000  C
  N110     1.0000 0.24260  0.90290  0.40290  Biso   1.000  N
  C1294    1.0000 0.32930  0.42302  0.92302  Biso   1.000  C
  C1295    1.0000 0.28220  0.39540  0.89540  Biso   1.000  C
  N111     1.0000 0.25860  0.38130  0.88130  Biso   1.000  N
  C1296    1.0000 0.27190  0.41000  0.91000  Biso   1.000  C
  N112     1.0000 0.24260  0.40290  0.90290  Biso   1.000  N
  C1297    1.0000 0.07698  0.17070  0.92302  Biso   1.000  C
  C1298    1.0000 0.10460  0.21780  0.89540  Biso   1.000  C
  N113     1.0000 0.11870  0.24140  0.88130  Biso   1.000  N
  C1299    1.0000 0.09000  0.22810  0.91000  Biso   1.000  C
  N114     1.0000 0.09710  0.25740  0.90290  Biso   1.000  N
  C1300    1.0000 0.07698  0.67070  0.42302  Biso   1.000  C
  C1301    1.0000 0.10460  0.71780  0.39540  Biso   1.000  C
  N115     1.0000 0.11870  0.74140  0.38130  Biso   1.000  N
  C1302    1.0000 0.09000  0.72810  0.41000  Biso   1.000  C
  N116     1.0000 0.09710  0.75740  0.40290  Biso   1.000  N
  C1303    1.0000 0.57698  0.17070  0.42302  Biso   1.000  C
  C1304    1.0000 0.60460  0.21780  0.39540  Biso   1.000  C
  N117     1.0000 0.61870  0.24140  0.38130  Biso   1.000  N
  C1305    1.0000 0.59000  0.22810  0.41000  Biso   1.000  C
  N118     1.0000 0.59710  0.25740  0.40290  Biso   1.000  N
  C1306    1.0000 0.57698  0.67070  0.92302  Biso   1.000  C
  C1307    1.0000 0.60460  0.71780  0.89540  Biso   1.000  C
  N119     1.0000 0.61870  0.74140  0.88130  Biso   1.000  N
  C1308    1.0000 0.59000  0.72810  0.91000  Biso   1.000  C
  N120     1.0000 0.59710  0.75740  0.90290  Biso   1.000  N
  C1309    1.0000 0.92302  0.17070  0.07698  Biso   1.000  C
  C1310    1.0000 0.89540  0.21780  0.10460  Biso   1.000  C
  N121     1.0000 0.88130  0.24140  0.11870  Biso   1.000  N
  C1311    1.0000 0.91000  0.22810  0.09000  Biso   1.000  C
  N122     1.0000 0.90290  0.25740  0.09710  Biso   1.000  N
  C1312    1.0000 0.92302  0.67070  0.57698  Biso   1.000  C
  C1313    1.0000 0.89540  0.71780  0.60460  Biso   1.000  C
  N123     1.0000 0.88130  0.74140  0.61870  Biso   1.000  N
  C1314    1.0000 0.91000  0.72810  0.59000  Biso   1.000  C
  N124     1.0000 0.90290  0.75740  0.59710  Biso   1.000  N
  C1315    1.0000 0.42302  0.17070  0.57698  Biso   1.000  C
  C1316    1.0000 0.39540  0.21780  0.60460  Biso   1.000  C
  N125     1.0000 0.38130  0.24140  0.61870  Biso   1.000  N
  C1317    1.0000 0.41000  0.22810  0.59000  Biso   1.000  C
  N126     1.0000 0.40290  0.25740  0.59710  Biso   1.000  N
  C1318    1.0000 0.42302  0.67070  0.07698  Biso   1.000  C
  C1319    1.0000 0.39540  0.71780  0.10460  Biso   1.000  C
  N127     1.0000 0.38130  0.74140  0.11870  Biso   1.000  N
  C1320    1.0000 0.41000  0.72810  0.09000  Biso   1.000  C
  N128     1.0000 0.40290  0.75740  0.09710  Biso   1.000  N
  C1321    1.0000 0.07698  0.82930  0.07698  Biso   1.000  C
  C1322    1.0000 0.10460  0.78220  0.10460  Biso   1.000  C
  N129     1.0000 0.11870  0.75860  0.11870  Biso   1.000  N
  C1323    1.0000 0.09000  0.77190  0.09000  Biso   1.000  C
  N130     1.0000 0.09710  0.74260  0.09710  Biso   1.000  N
  C1324    1.0000 0.07698  0.32930  0.57698  Biso   1.000  C
  C1325    1.0000 0.10460  0.28220  0.60460  Biso   1.000  C
  N131     1.0000 0.11870  0.25860  0.61870  Biso   1.000  N
  C1326    1.0000 0.09000  0.27190  0.59000  Biso   1.000  C
  N132     1.0000 0.09710  0.24260  0.59710  Biso   1.000  N
  C1327    1.0000 0.57698  0.82930  0.57698  Biso   1.000  C
  C1328    1.0000 0.60460  0.78220  0.60460  Biso   1.000  C
  N133     1.0000 0.61870  0.75860  0.61870  Biso   1.000  N
  C1329    1.0000 0.59000  0.77190  0.59000  Biso   1.000  C
  N134     1.0000 0.59710  0.74260  0.59710  Biso   1.000  N
  C1330    1.0000 0.57698  0.32930  0.07698  Biso   1.000  C
  C1331    1.0000 0.60460  0.28220  0.10460  Biso   1.000  C
  N135     1.0000 0.61870  0.25860  0.11870  Biso   1.000  N
  C1332    1.0000 0.59000  0.27190  0.09000  Biso   1.000  C
  N136     1.0000 0.59710  0.24260  0.09710  Biso   1.000  N
  C1333    1.0000 0.92302  0.82930  0.92302  Biso   1.000  C
  C1334    1.0000 0.89540  0.78220  0.89540  Biso   1.000  C
  N137     1.0000 0.88130  0.75860  0.88130  Biso   1.000  N
  C1335    1.0000 0.91000  0.77190  0.91000  Biso   1.000  C
  N138     1.0000 0.90290  0.74260  0.90290  Biso   1.000  N
  C1336    1.0000 0.92302  0.32930  0.42302  Biso   1.000  C
  C1337    1.0000 0.89540  0.28220  0.39540  Biso   1.000  C
  N139     1.0000 0.88130  0.25860  0.38130  Biso   1.000  N
  C1338    1.0000 0.91000  0.27190  0.41000  Biso   1.000  C
  N140     1.0000 0.90290  0.24260  0.40290  Biso   1.000  N
  C1339    1.0000 0.42302  0.82930  0.42302  Biso   1.000  C
  C1340    1.0000 0.39540  0.78220  0.39540  Biso   1.000  C
  N141     1.0000 0.38130  0.75860  0.38130  Biso   1.000  N
  C1341    1.0000 0.41000  0.77190  0.41000  Biso   1.000  C
  N142     1.0000 0.40290  0.74260  0.40290  Biso   1.000  N
  C1342    1.0000 0.42302  0.32930  0.92302  Biso   1.000  C
  C1343    1.0000 0.39540  0.28220  0.89540  Biso   1.000  C
  N143     1.0000 0.38130  0.25860  0.88130  Biso   1.000  N
  C1344    1.0000 0.41000  0.27190  0.91000  Biso   1.000  C
  N144     1.0000 0.40290  0.24260  0.90290  Biso   1.000  N
  C1345    1.0000 0.07698  0.92302  0.82930  Biso   1.000  C
  C1346    1.0000 0.10460  0.89540  0.78220  Biso   1.000  C
  N145     1.0000 0.11870  0.88130  0.75860  Biso   1.000  N
  C1347    1.0000 0.09000  0.91000  0.77190  Biso   1.000  C
  N146     1.0000 0.09710  0.90290  0.74260  Biso   1.000  N
  C1348    1.0000 0.07698  0.42302  0.32930  Biso   1.000  C
  C1349    1.0000 0.10460  0.39540  0.28220  Biso   1.000  C
  N147     1.0000 0.11870  0.38130  0.25860  Biso   1.000  N
  C1350    1.0000 0.09000  0.41000  0.27190  Biso   1.000  C
  N148     1.0000 0.09710  0.40290  0.24260  Biso   1.000  N
  C1351    1.0000 0.57698  0.92302  0.32930  Biso   1.000  C
  C1352    1.0000 0.60460  0.89540  0.28220  Biso   1.000  C
  N149     1.0000 0.61870  0.88130  0.25860  Biso   1.000  N
  C1353    1.0000 0.59000  0.91000  0.27190  Biso   1.000  C
  N150     1.0000 0.59710  0.90290  0.24260  Biso   1.000  N
  C1354    1.0000 0.57698  0.42302  0.82930  Biso   1.000  C
  C1355    1.0000 0.60460  0.39540  0.78220  Biso   1.000  C
  N151     1.0000 0.61870  0.38130  0.75860  Biso   1.000  N
  C1356    1.0000 0.59000  0.41000  0.77190  Biso   1.000  C
  N152     1.0000 0.59710  0.40290  0.74260  Biso   1.000  N
  C1357    1.0000 0.92302  0.07698  0.82930  Biso   1.000  C
  C1358    1.0000 0.89540  0.10460  0.78220  Biso   1.000  C
  N153     1.0000 0.88130  0.11870  0.75860  Biso   1.000  N
  C1359    1.0000 0.91000  0.09000  0.77190  Biso   1.000  C
  N154     1.0000 0.90290  0.09710  0.74260  Biso   1.000  N
  C1360    1.0000 0.92302  0.57698  0.32930  Biso   1.000  C
  C1361    1.0000 0.89540  0.60460  0.28220  Biso   1.000  C
  N155     1.0000 0.88130  0.61870  0.25860  Biso   1.000  N
  C1362    1.0000 0.91000  0.59000  0.27190  Biso   1.000  C
  N156     1.0000 0.90290  0.59710  0.24260  Biso   1.000  N
  C1363    1.0000 0.42302  0.07698  0.32930  Biso   1.000  C
  C1364    1.0000 0.39540  0.10460  0.28220  Biso   1.000  C
  N157     1.0000 0.38130  0.11870  0.25860  Biso   1.000  N
  C1365    1.0000 0.41000  0.09000  0.27190  Biso   1.000  C
  N158     1.0000 0.40290  0.09710  0.24260  Biso   1.000  N
  C1366    1.0000 0.42302  0.57698  0.82930  Biso   1.000  C
  C1367    1.0000 0.39540  0.60460  0.78220  Biso   1.000  C
  N159     1.0000 0.38130  0.61870  0.75860  Biso   1.000  N
  C1368    1.0000 0.41000  0.59000  0.77190  Biso   1.000  C
  N160     1.0000 0.40290  0.59710  0.74260  Biso   1.000  N
  C1369    1.0000 0.07698  0.07698  0.17070  Biso   1.000  C
  C1370    1.0000 0.10460  0.10460  0.21780  Biso   1.000  C
  N161     1.0000 0.11870  0.11870  0.24140  Biso   1.000  N
  C1371    1.0000 0.09000  0.09000  0.22810  Biso   1.000  C
  N162     1.0000 0.09710  0.09710  0.25740  Biso   1.000  N
  C1372    1.0000 0.07698  0.57698  0.67070  Biso   1.000  C
  C1373    1.0000 0.10460  0.60460  0.71780  Biso   1.000  C
  N163     1.0000 0.11870  0.61870  0.74140  Biso   1.000  N
  C1374    1.0000 0.09000  0.59000  0.72810  Biso   1.000  C
  N164     1.0000 0.09710  0.59710  0.75740  Biso   1.000  N
  C1375    1.0000 0.57698  0.07698  0.67070  Biso   1.000  C
  C1376    1.0000 0.60460  0.10460  0.71780  Biso   1.000  C
  N165     1.0000 0.61870  0.11870  0.74140  Biso   1.000  N
  C1377    1.0000 0.59000  0.09000  0.72810  Biso   1.000  C
  N166     1.0000 0.59710  0.09710  0.75740  Biso   1.000  N
  C1378    1.0000 0.57698  0.57698  0.17070  Biso   1.000  C
  C1379    1.0000 0.60460  0.60460  0.21780  Biso   1.000  C
  N167     1.0000 0.61870  0.61870  0.24140  Biso   1.000  N
  C1380    1.0000 0.59000  0.59000  0.22810  Biso   1.000  C
  N168     1.0000 0.59710  0.59710  0.25740  Biso   1.000  N
  C1381    1.0000 0.92302  0.92302  0.17070  Biso   1.000  C
  C1382    1.0000 0.89540  0.89540  0.21780  Biso   1.000  C
  N169     1.0000 0.88130  0.88130  0.24140  Biso   1.000  N
  C1383    1.0000 0.91000  0.91000  0.22810  Biso   1.000  C
  N170     1.0000 0.90290  0.90290  0.25740  Biso   1.000  N
  C1384    1.0000 0.92302  0.42302  0.67070  Biso   1.000  C
  C1385    1.0000 0.89540  0.39540  0.71780  Biso   1.000  C
  N171     1.0000 0.88130  0.38130  0.74140  Biso   1.000  N
  C1386    1.0000 0.91000  0.41000  0.72810  Biso   1.000  C
  N172     1.0000 0.90290  0.40290  0.75740  Biso   1.000  N
  C1387    1.0000 0.42302  0.92302  0.67070  Biso   1.000  C
  C1388    1.0000 0.39540  0.89540  0.71780  Biso   1.000  C
  N173     1.0000 0.38130  0.88130  0.74140  Biso   1.000  N
  C1389    1.0000 0.41000  0.91000  0.72810  Biso   1.000  C
  N174     1.0000 0.40290  0.90290  0.75740  Biso   1.000  N
  C1390    1.0000 0.42302  0.42302  0.17070  Biso   1.000  C
  C1391    1.0000 0.39540  0.39540  0.21780  Biso   1.000  C
  N175     1.0000 0.38130  0.38130  0.24140  Biso   1.000  N
  C1392    1.0000 0.41000  0.41000  0.22810  Biso   1.000  C
  N176     1.0000 0.40290  0.40290  0.25740  Biso   1.000  N
  C1393    1.0000 0.92302  0.17070  0.92302  Biso   1.000  C
  C1394    1.0000 0.89540  0.21780  0.89540  Biso   1.000  C
  N177     1.0000 0.88130  0.24140  0.88130  Biso   1.000  N
  C1395    1.0000 0.91000  0.22810  0.91000  Biso   1.000  C
  N178     1.0000 0.90290  0.25740  0.90290  Biso   1.000  N
  C1396    1.0000 0.92302  0.67070  0.42302  Biso   1.000  C
  C1397    1.0000 0.89540  0.71780  0.39540  Biso   1.000  C
  N179     1.0000 0.88130  0.74140  0.38130  Biso   1.000  N
  C1398    1.0000 0.91000  0.72810  0.41000  Biso   1.000  C
  N180     1.0000 0.90290  0.75740  0.40290  Biso   1.000  N
  C1399    1.0000 0.42302  0.17070  0.42302  Biso   1.000  C
  C1400    1.0000 0.39540  0.21780  0.39540  Biso   1.000  C
  N181     1.0000 0.38130  0.24140  0.38130  Biso   1.000  N
  C1401    1.0000 0.41000  0.22810  0.41000  Biso   1.000  C
  N182     1.0000 0.40290  0.25740  0.40290  Biso   1.000  N
  C1402    1.0000 0.42302  0.67070  0.92302  Biso   1.000  C
  C1403    1.0000 0.39540  0.71780  0.89540  Biso   1.000  C
  N183     1.0000 0.38130  0.74140  0.88130  Biso   1.000  N
  C1404    1.0000 0.41000  0.72810  0.91000  Biso   1.000  C
  N184     1.0000 0.40290  0.75740  0.90290  Biso   1.000  N
  C1405    1.0000 0.07698  0.17070  0.07698  Biso   1.000  C
  C1406    1.0000 0.10460  0.21780  0.10460  Biso   1.000  C
  N185     1.0000 0.11870  0.24140  0.11870  Biso   1.000  N
  C1407    1.0000 0.09000  0.22810  0.09000  Biso   1.000  C
  N186     1.0000 0.09710  0.25740  0.09710  Biso   1.000  N
  C1408    1.0000 0.07698  0.67070  0.57698  Biso   1.000  C
  C1409    1.0000 0.10460  0.71780  0.60460  Biso   1.000  C
  N187     1.0000 0.11870  0.74140  0.61870  Biso   1.000  N
  C1410    1.0000 0.09000  0.72810  0.59000  Biso   1.000  C
  N188     1.0000 0.09710  0.75740  0.59710  Biso   1.000  N
  C1411    1.0000 0.57698  0.17070  0.57698  Biso   1.000  C
  C1412    1.0000 0.60460  0.21780  0.60460  Biso   1.000  C
  N189     1.0000 0.61870  0.24140  0.61870  Biso   1.000  N
  C1413    1.0000 0.59000  0.22810  0.59000  Biso   1.000  C
  N190     1.0000 0.59710  0.25740  0.59710  Biso   1.000  N
  C1414    1.0000 0.57698  0.67070  0.07698  Biso   1.000  C
  C1415    1.0000 0.60460  0.71780  0.10460  Biso   1.000  C
  N191     1.0000 0.61870  0.74140  0.11870  Biso   1.000  N
  C1416    1.0000 0.59000  0.72810  0.09000  Biso   1.000  C
  N192     1.0000 0.59710  0.75740  0.09710  Biso   1.000  N
  C1417    1.0000 0.07698  0.82930  0.92302  Biso   1.000  C
  C1418    1.0000 0.10460  0.78220  0.89540  Biso   1.000  C
  N193     1.0000 0.11870  0.75860  0.88130  Biso   1.000  N
  C1419    1.0000 0.09000  0.77190  0.91000  Biso   1.000  C
  N194     1.0000 0.09710  0.74260  0.90290  Biso   1.000  N
  C1420    1.0000 0.07698  0.32930  0.42302  Biso   1.000  C
  C1421    1.0000 0.10460  0.28220  0.39540  Biso   1.000  C
  N195     1.0000 0.11870  0.25860  0.38130  Biso   1.000  N
  C1422    1.0000 0.09000  0.27190  0.41000  Biso   1.000  C
  N196     1.0000 0.09710  0.24260  0.40290  Biso   1.000  N
  C1423    1.0000 0.57698  0.82930  0.42302  Biso   1.000  C
  C1424    1.0000 0.60460  0.78220  0.39540  Biso   1.000  C
  N197     1.0000 0.61870  0.75860  0.38130  Biso   1.000  N
  C1425    1.0000 0.59000  0.77190  0.41000  Biso   1.000  C
  N198     1.0000 0.59710  0.74260  0.40290  Biso   1.000  N
  C1426    1.0000 0.57698  0.32930  0.92302  Biso   1.000  C
  C1427    1.0000 0.60460  0.28220  0.89540  Biso   1.000  C
  N199     1.0000 0.61870  0.25860  0.88130  Biso   1.000  N
  C1428    1.0000 0.59000  0.27190  0.91000  Biso   1.000  C
  N200     1.0000 0.59710  0.24260  0.90290  Biso   1.000  N
  C1429    1.0000 0.92302  0.82930  0.07698  Biso   1.000  C
  C1430    1.0000 0.89540  0.78220  0.10460  Biso   1.000  C
  N201     1.0000 0.88130  0.75860  0.11870  Biso   1.000  N
  C1431    1.0000 0.91000  0.77190  0.09000  Biso   1.000  C
  N202     1.0000 0.90290  0.74260  0.09710  Biso   1.000  N
  C1432    1.0000 0.92302  0.32930  0.57698  Biso   1.000  C
  C1433    1.0000 0.89540  0.28220  0.60460  Biso   1.000  C
  N203     1.0000 0.88130  0.25860  0.61870  Biso   1.000  N
  C1434    1.0000 0.91000  0.27190  0.59000  Biso   1.000  C
  N204     1.0000 0.90290  0.24260  0.59710  Biso   1.000  N
  C1435    1.0000 0.42302  0.82930  0.57698  Biso   1.000  C
  C1436    1.0000 0.39540  0.78220  0.60460  Biso   1.000  C
  N205     1.0000 0.38130  0.75860  0.61870  Biso   1.000  N
  C1437    1.0000 0.41000  0.77190  0.59000  Biso   1.000  C
  N206     1.0000 0.40290  0.74260  0.59710  Biso   1.000  N
  C1438    1.0000 0.42302  0.32930  0.07698  Biso   1.000  C
  C1439    1.0000 0.39540  0.28220  0.10460  Biso   1.000  C
  N207     1.0000 0.38130  0.25860  0.11870  Biso   1.000  N
  C1440    1.0000 0.41000  0.27190  0.09000  Biso   1.000  C
  N208     1.0000 0.40290  0.24260  0.09710  Biso   1.000  N
  C1441    1.0000 0.17070  0.07698  0.07698  Biso   1.000  C
  C1442    1.0000 0.21780  0.10460  0.10460  Biso   1.000  C
  N209     1.0000 0.24140  0.11870  0.11870  Biso   1.000  N
  C1443    1.0000 0.22810  0.09000  0.09000  Biso   1.000  C
  N210     1.0000 0.25740  0.09710  0.09710  Biso   1.000  N
  C1444    1.0000 0.17070  0.57698  0.57698  Biso   1.000  C
  C1445    1.0000 0.21780  0.60460  0.60460  Biso   1.000  C
  N211     1.0000 0.24140  0.61870  0.61870  Biso   1.000  N
  C1446    1.0000 0.22810  0.59000  0.59000  Biso   1.000  C
  N212     1.0000 0.25740  0.59710  0.59710  Biso   1.000  N
  C1447    1.0000 0.67070  0.07698  0.57698  Biso   1.000  C
  C1448    1.0000 0.71780  0.10460  0.60460  Biso   1.000  C
  N213     1.0000 0.74140  0.11870  0.61870  Biso   1.000  N
  C1449    1.0000 0.72810  0.09000  0.59000  Biso   1.000  C
  N214     1.0000 0.75740  0.09710  0.59710  Biso   1.000  N
  C1450    1.0000 0.67070  0.57698  0.07698  Biso   1.000  C
  C1451    1.0000 0.71780  0.60460  0.10460  Biso   1.000  C
  N215     1.0000 0.74140  0.61870  0.11870  Biso   1.000  N
  C1452    1.0000 0.72810  0.59000  0.09000  Biso   1.000  C
  N216     1.0000 0.75740  0.59710  0.09710  Biso   1.000  N
  C1453    1.0000 0.17070  0.92302  0.92302  Biso   1.000  C
  C1454    1.0000 0.21780  0.89540  0.89540  Biso   1.000  C
  N217     1.0000 0.24140  0.88130  0.88130  Biso   1.000  N
  C1455    1.0000 0.22810  0.91000  0.91000  Biso   1.000  C
  N218     1.0000 0.25740  0.90290  0.90290  Biso   1.000  N
  C1456    1.0000 0.17070  0.42302  0.42302  Biso   1.000  C
  C1457    1.0000 0.21780  0.39540  0.39540  Biso   1.000  C
  N219     1.0000 0.24140  0.38130  0.38130  Biso   1.000  N
  C1458    1.0000 0.22810  0.41000  0.41000  Biso   1.000  C
  N220     1.0000 0.25740  0.40290  0.40290  Biso   1.000  N
  C1459    1.0000 0.67070  0.92302  0.42302  Biso   1.000  C
  C1460    1.0000 0.71780  0.89540  0.39540  Biso   1.000  C
  N221     1.0000 0.74140  0.88130  0.38130  Biso   1.000  N
  C1461    1.0000 0.72810  0.91000  0.41000  Biso   1.000  C
  N222     1.0000 0.75740  0.90290  0.40290  Biso   1.000  N
  C1462    1.0000 0.67070  0.42302  0.92302  Biso   1.000  C
  C1463    1.0000 0.71780  0.39540  0.89540  Biso   1.000  C
  N223     1.0000 0.74140  0.38130  0.88130  Biso   1.000  N
  C1464    1.0000 0.72810  0.41000  0.91000  Biso   1.000  C
  N224     1.0000 0.75740  0.40290  0.90290  Biso   1.000  N
  C1465    1.0000 0.82930  0.07698  0.92302  Biso   1.000  C
  C1466    1.0000 0.78220  0.10460  0.89540  Biso   1.000  C
  N225     1.0000 0.75860  0.11870  0.88130  Biso   1.000  N
  C1467    1.0000 0.77190  0.09000  0.91000  Biso   1.000  C
  N226     1.0000 0.74260  0.09710  0.90290  Biso   1.000  N
  C1468    1.0000 0.82930  0.57698  0.42302  Biso   1.000  C
  C1469    1.0000 0.78220  0.60460  0.39540  Biso   1.000  C
  N227     1.0000 0.75860  0.61870  0.38130  Biso   1.000  N
  C1470    1.0000 0.77190  0.59000  0.41000  Biso   1.000  C
  N228     1.0000 0.74260  0.59710  0.40290  Biso   1.000  N
  C1471    1.0000 0.32930  0.07698  0.42302  Biso   1.000  C
  C1472    1.0000 0.28220  0.10460  0.39540  Biso   1.000  C
  N229     1.0000 0.25860  0.11870  0.38130  Biso   1.000  N
  C1473    1.0000 0.27190  0.09000  0.41000  Biso   1.000  C
  N230     1.0000 0.24260  0.09710  0.40290  Biso   1.000  N
  C1474    1.0000 0.32930  0.57698  0.92302  Biso   1.000  C
  C1475    1.0000 0.28220  0.60460  0.89540  Biso   1.000  C
  N231     1.0000 0.25860  0.61870  0.88130  Biso   1.000  N
  C1476    1.0000 0.27190  0.59000  0.91000  Biso   1.000  C
  N232     1.0000 0.24260  0.59710  0.90290  Biso   1.000  N
  C1477    1.0000 0.82930  0.92302  0.07698  Biso   1.000  C
  C1478    1.0000 0.78220  0.89540  0.10460  Biso   1.000  C
  N233     1.0000 0.75860  0.88130  0.11870  Biso   1.000  N
  C1479    1.0000 0.77190  0.91000  0.09000  Biso   1.000  C
  N234     1.0000 0.74260  0.90290  0.09710  Biso   1.000  N
  C1480    1.0000 0.82930  0.42302  0.57698  Biso   1.000  C
  C1481    1.0000 0.78220  0.39540  0.60460  Biso   1.000  C
  N235     1.0000 0.75860  0.38130  0.61870  Biso   1.000  N
  C1482    1.0000 0.77190  0.41000  0.59000  Biso   1.000  C
  N236     1.0000 0.74260  0.40290  0.59710  Biso   1.000  N
  C1483    1.0000 0.32930  0.92302  0.57698  Biso   1.000  C
  C1484    1.0000 0.28220  0.89540  0.60460  Biso   1.000  C
  N237     1.0000 0.25860  0.88130  0.61870  Biso   1.000  N
  C1485    1.0000 0.27190  0.91000  0.59000  Biso   1.000  C
  N238     1.0000 0.24260  0.90290  0.59710  Biso   1.000  N
  C1486    1.0000 0.32930  0.42302  0.07698  Biso   1.000  C
  C1487    1.0000 0.28220  0.39540  0.10460  Biso   1.000  C
  N239     1.0000 0.25860  0.38130  0.11870  Biso   1.000  N
  C1488    1.0000 0.27190  0.41000  0.09000  Biso   1.000  C
  N240     1.0000 0.24260  0.40290  0.09710  Biso   1.000  N
  C1489    1.0000 0.02590  0.22790  0.22790  Biso   1.000  C
  C1490    1.0000 0.02590  0.72790  0.72790  Biso   1.000  C
  C1491    1.0000 0.52590  0.22790  0.72790  Biso   1.000  C
  C1492    1.0000 0.52590  0.72790  0.22790  Biso   1.000  C
  C1493    1.0000 0.97410  0.77210  0.22790  Biso   1.000  C
  C1494    1.0000 0.97410  0.27210  0.72790  Biso   1.000  C
  C1495    1.0000 0.47410  0.77210  0.72790  Biso   1.000  C
  C1496    1.0000 0.47410  0.27210  0.22790  Biso   1.000  C
  C1497    1.0000 0.97410  0.22790  0.77210  Biso   1.000  C
  C1498    1.0000 0.97410  0.72790  0.27210  Biso   1.000  C
  C1499    1.0000 0.47410  0.22790  0.27210  Biso   1.000  C
  C1500    1.0000 0.47410  0.72790  0.77210  Biso   1.000  C
  C1501    1.0000 0.02590  0.77210  0.77210  Biso   1.000  C
  C1502    1.0000 0.02590  0.27210  0.27210  Biso   1.000  C
  C1503    1.0000 0.52590  0.77210  0.27210  Biso   1.000  C
  C1504    1.0000 0.52590  0.27210  0.77210  Biso   1.000  C
  C1505    1.0000 0.22790  0.02590  0.22790  Biso   1.000  C
  C1506    1.0000 0.22790  0.52590  0.72790  Biso   1.000  C
  C1507    1.0000 0.72790  0.02590  0.72790  Biso   1.000  C
  C1508    1.0000 0.72790  0.52590  0.22790  Biso   1.000  C
  C1509    1.0000 0.22790  0.97410  0.77210  Biso   1.000  C
  C1510    1.0000 0.22790  0.47410  0.27210  Biso   1.000  C
  C1511    1.0000 0.72790  0.97410  0.27210  Biso   1.000  C
  C1512    1.0000 0.72790  0.47410  0.77210  Biso   1.000  C
  C1513    1.0000 0.77210  0.97410  0.22790  Biso   1.000  C
  C1514    1.0000 0.77210  0.47410  0.72790  Biso   1.000  C
  C1515    1.0000 0.27210  0.97410  0.72790  Biso   1.000  C
  C1516    1.0000 0.27210  0.47410  0.22790  Biso   1.000  C
  C1517    1.0000 0.77210  0.02590  0.77210  Biso   1.000  C
  C1518    1.0000 0.77210  0.52590  0.27210  Biso   1.000  C
  C1519    1.0000 0.27210  0.02590  0.27210  Biso   1.000  C
  C1520    1.0000 0.27210  0.52590  0.77210  Biso   1.000  C
  C1521    1.0000 0.22790  0.22790  0.02590  Biso   1.000  C
  C1522    1.0000 0.22790  0.72790  0.52590  Biso   1.000  C
  C1523    1.0000 0.72790  0.22790  0.52590  Biso   1.000  C
  C1524    1.0000 0.72790  0.72790  0.02590  Biso   1.000  C
  C1525    1.0000 0.77210  0.22790  0.97410  Biso   1.000  C
  C1526    1.0000 0.77210  0.72790  0.47410  Biso   1.000  C
  C1527    1.0000 0.27210  0.22790  0.47410  Biso   1.000  C
  C1528    1.0000 0.27210  0.72790  0.97410  Biso   1.000  C
  C1529    1.0000 0.22790  0.77210  0.97410  Biso   1.000  C
  C1530    1.0000 0.22790  0.27210  0.47410  Biso   1.000  C
  C1531    1.0000 0.72790  0.77210  0.47410  Biso   1.000  C
  C1532    1.0000 0.72790  0.27210  0.97410  Biso   1.000  C
  C1533    1.0000 0.77210  0.77210  0.02590  Biso   1.000  C
  C1534    1.0000 0.77210  0.27210  0.52590  Biso   1.000  C
  C1535    1.0000 0.27210  0.77210  0.52590  Biso   1.000  C
  C1536    1.0000 0.27210  0.27210  0.02590  Biso   1.000  C
  C1537    1.0000 0.22790  0.02590  0.77210  Biso   1.000  C
  C1538    1.0000 0.22790  0.52590  0.27210  Biso   1.000  C
  C1539    1.0000 0.72790  0.02590  0.27210  Biso   1.000  C
  C1540    1.0000 0.72790  0.52590  0.77210  Biso   1.000  C
  C1541    1.0000 0.77210  0.97410  0.77210  Biso   1.000  C
  C1542    1.0000 0.77210  0.47410  0.27210  Biso   1.000  C
  C1543    1.0000 0.27210  0.97410  0.27210  Biso   1.000  C
  C1544    1.0000 0.27210  0.47410  0.77210  Biso   1.000  C
  C1545    1.0000 0.22790  0.97410  0.22790  Biso   1.000  C
  C1546    1.0000 0.22790  0.47410  0.72790  Biso   1.000  C
  C1547    1.0000 0.72790  0.97410  0.72790  Biso   1.000  C
  C1548    1.0000 0.72790  0.47410  0.22790  Biso   1.000  C
  C1549    1.0000 0.77210  0.02590  0.22790  Biso   1.000  C
  C1550    1.0000 0.77210  0.52590  0.72790  Biso   1.000  C
  C1551    1.0000 0.27210  0.02590  0.72790  Biso   1.000  C
  C1552    1.0000 0.27210  0.52590  0.22790  Biso   1.000  C
  C1553    1.0000 0.02590  0.22790  0.77210  Biso   1.000  C
  C1554    1.0000 0.02590  0.72790  0.27210  Biso   1.000  C
  C1555    1.0000 0.52590  0.22790  0.27210  Biso   1.000  C
  C1556    1.0000 0.52590  0.72790  0.77210  Biso   1.000  C
  C1557    1.0000 0.97410  0.22790  0.22790  Biso   1.000  C
  C1558    1.0000 0.97410  0.72790  0.72790  Biso   1.000  C
  C1559    1.0000 0.47410  0.22790  0.72790  Biso   1.000  C
  C1560    1.0000 0.47410  0.72790  0.22790  Biso   1.000  C
  C1561    1.0000 0.97410  0.77210  0.77210  Biso   1.000  C
  C1562    1.0000 0.97410  0.27210  0.27210  Biso   1.000  C
  C1563    1.0000 0.47410  0.77210  0.27210  Biso   1.000  C
  C1564    1.0000 0.47410  0.27210  0.77210  Biso   1.000  C
  C1565    1.0000 0.02590  0.77210  0.22790  Biso   1.000  C
  C1566    1.0000 0.02590  0.27210  0.72790  Biso   1.000  C
  C1567    1.0000 0.52590  0.77210  0.72790  Biso   1.000  C
  C1568    1.0000 0.52590  0.27210  0.22790  Biso   1.000  C
  C1569    1.0000 0.22790  0.22790  0.97410  Biso   1.000  C
  C1570    1.0000 0.22790  0.72790  0.47410  Biso   1.000  C
  C1571    1.0000 0.72790  0.22790  0.47410  Biso   1.000  C
  C1572    1.0000 0.72790  0.72790  0.97410  Biso   1.000  C
  C1573    1.0000 0.22790  0.77210  0.02590  Biso   1.000  C
  C1574    1.0000 0.22790  0.27210  0.52590  Biso   1.000  C
  C1575    1.0000 0.72790  0.77210  0.52590  Biso   1.000  C
  C1576    1.0000 0.72790  0.27210  0.02590  Biso   1.000  C
  C1577    1.0000 0.77210  0.22790  0.02590  Biso   1.000  C
  C1578    1.0000 0.77210  0.72790  0.52590  Biso   1.000  C
  C1579    1.0000 0.27210  0.22790  0.52590  Biso   1.000  C
  C1580    1.0000 0.27210  0.72790  0.02590  Biso   1.000  C
  C1581    1.0000 0.77210  0.77210  0.97410  Biso   1.000  C
  C1582    1.0000 0.77210  0.27210  0.47410  Biso   1.000  C
  C1583    1.0000 0.27210  0.77210  0.47410  Biso   1.000  C
  C1584    1.0000 0.27210  0.27210  0.97410  Biso   1.000  C
