data_image0
_cell_length_a       35.5334
_cell_length_b       14.9227
_cell_length_c       30.6034
_cell_angle_alpha    90
_cell_angle_beta     102.176
_cell_angle_gamma    90

_symmetry_space_group_name_H-M    "P 1"
_symmetry_int_tables_number       1

loop_
  _symmetry_equiv_pos_as_xyz
  'x, y, z'

loop_
  _atom_site_label
  _atom_site_occupancy
  _atom_site_fract_x
  _atom_site_fract_y
  _atom_site_fract_z
  _atom_site_thermal_displace_type
  _atom_site_B_iso_or_equiv
  _atom_site_type_symbol
  C1       1.0000 0.56227  0.54030  0.52370  Biso   1.000  C
  H1       1.0000 0.57390  0.53830  0.49850  Biso   1.000  H
  C2       1.0000 0.53110  0.59730  0.52240  Biso   1.000  C
  H2       1.0000 0.52200  0.63370  0.49690  Biso   1.000  H
  C3       1.0000 0.51378  0.60060  0.55770  Biso   1.000  C
  C4       1.0000 0.52740  0.54680  0.59310  Biso   1.000  C
  H3       1.0000 0.51520  0.54480  0.61790  Biso   1.000  H
  C5       1.0000 0.55980  0.49400  0.59230  Biso   1.000  C
  H4       1.0000 0.57040  0.45980  0.61810  Biso   1.000  H
  C6       1.0000 0.48077  0.66120  0.55865  Biso   1.000  C
  C7       1.0000 0.43205  0.70530  0.58954  Biso   1.000  C
  C8       1.0000 0.44721  0.78570  0.53348  Biso   1.000  C
  C9       1.0000 0.39280  0.62210  0.68590  Biso   1.000  C
  H5       1.0000 0.40090  0.58470  0.71130  Biso   1.000  H
  C10      1.0000 0.41772  0.63540  0.65810  Biso   1.000  C
  H6       1.0000 0.44240  0.60790  0.66410  Biso   1.000  H
  C11      1.0000 0.40651  0.68960  0.62105  Biso   1.000  C
  C12      1.0000 0.36920  0.72710  0.61400  Biso   1.000  C
  H7       1.0000 0.36010  0.76360  0.58860  Biso   1.000  H
  C13      1.0000 0.34693  0.71120  0.64320  Biso   1.000  C
  H8       1.0000 0.32220  0.73810  0.63810  Biso   1.000  H
  C14      1.0000 0.40560  0.99500  0.47550  Biso   1.000  C
  H9       1.0000 0.38360  0.03180  0.47410  Biso   1.000  H
  C15      1.0000 0.40960  0.92120  0.50230  Biso   1.000  C
  H10      1.0000 0.39040  0.90660  0.51870  Biso   1.000  H
  C16      1.0000 0.44227  0.86710  0.50537  Biso   1.000  C
  C17      1.0000 0.46824  0.88990  0.47971  Biso   1.000  C
  H11      1.0000 0.49030  0.85370  0.48000  Biso   1.000  H
  C18      1.0000 0.46197  0.96630  0.45350  Biso   1.000  C
  H12      1.0000 0.48040  0.98250  0.43650  Biso   1.000  H
  C19      1.0000 0.67490  0.55460  0.59930  Biso   1.000  C
  H13      1.0000 0.66010  0.58510  0.57420  Biso   1.000  H
  C20      1.0000 0.70488  0.60000  0.62680  Biso   1.000  C
  H14      1.0000 0.71060  0.66020  0.62050  Biso   1.000  H
  C21      1.0000 0.72603  0.55700  0.66310  Biso   1.000  C
  C22      1.0000 0.71636  0.46880  0.67140  Biso   1.000  C
  H15      1.0000 0.73020  0.43710  0.69670  Biso   1.000  H
  C23      1.0000 0.68654  0.42880  0.64230  Biso   1.000  C
  H16      1.0000 0.68020  0.36870  0.64800  Biso   1.000  H
  C24      1.0000 0.75837  0.60140  0.69415  Biso   1.000  C
  C25      1.0000 0.79428  0.72330  0.71717  Biso   1.000  C
  C26      1.0000 0.80874  0.59140  0.75230  Biso   1.000  C
  C27      1.0000 0.78330  0.97080  0.69310  Biso   1.000  C
  H17      1.0000 0.76580  0.01000  0.67450  Biso   1.000  H
  C28      1.0000 0.77616  0.87910  0.69010  Biso   1.000  C
  H18      1.0000 0.75420  0.85650  0.66980  Biso   1.000  H
  C29      1.0000 0.80101  0.82170  0.71680  Biso   1.000  C
  C30      1.0000 0.83273  0.85750  0.74500  Biso   1.000  C
  H19      1.0000 0.85080  0.81960  0.76370  Biso   1.000  H
  C31      1.0000 0.83800  0.94920  0.74600  Biso   1.000  C
  H20      1.0000 0.86010  0.97330  0.76550  Biso   1.000  H
  C32      1.0000 0.84678  0.40790  0.83398  Biso   1.000  C
  H21      1.0000 0.83970  0.34930  0.84140  Biso   1.000  H
  C33      1.0000 0.82365  0.45270  0.79894  Biso   1.000  C
  H22      1.0000 0.80130  0.42440  0.78200  Biso   1.000  H
  C34      1.0000 0.83315  0.53930  0.78846  Biso   1.000  C
  C35      1.0000 0.86620  0.57670  0.81270  Biso   1.000  C
  H23      1.0000 0.87380  0.63530  0.80600  Biso   1.000  H
  C36      1.0000 0.88840  0.52730  0.84720  Biso   1.000  C
  H24      1.0000 0.91130  0.55340  0.86410  Biso   1.000  H
  N1       1.0000 0.76456  0.68920  0.68826  Biso   1.000  N
  N2       1.0000 0.81834  0.67710  0.74854  Biso   1.000  N
  N3       1.0000 0.42459  0.77690  0.56262  Biso   1.000  N
  N4       1.0000 0.77906  0.54990  0.72620  Biso   1.000  N
  N5       1.0000 0.47505  0.72850  0.52870  Biso   1.000  N
  N6       1.0000 0.46013  0.64640  0.58982  Biso   1.000  N
  N7       1.0000 0.43087  0.01810  0.45127  Biso   1.000  N
  N8       1.0000 0.87903  0.44500  0.85776  Biso   1.000  N
  N9       1.0000 0.66587  0.46980  0.60656  Biso   1.000  N
  N10      1.0000 0.35771  0.65890  0.67940  Biso   1.000  N
  N11      1.0000 0.81342  0.00560  0.72076  Biso   1.000  N
  N12      1.0000 0.57627  0.48930  0.55817  Biso   1.000  N
  Zn1      1.0000 0.82452  0.14168  0.72623  Biso   1.000  Zn
  Zn2      1.0000 0.91380  0.37580  0.90910  Biso   1.000  Zn
  Zn3      1.0000 0.62380  0.40460  0.56610  Biso   1.000  Zn
  I1       1.0000 0.86902  0.16635  0.80432  Biso   1.000  I
  I2       1.0000 0.76430  0.23410  0.70354  Biso   1.000  I
  I3       1.0000 0.97207  0.34190  0.87387  Biso   1.000  I
  I4       1.0000 0.87655  0.26740  0.94680  Biso   1.000  I
  I5       1.0000 0.60610  0.25990  0.60292  Biso   1.000  I
  I6       1.0000 0.64305  0.40880  0.49145  Biso   1.000  I
  I7       1.0000 0.86150  0.16660  0.79460  Biso   1.000  I
  I8       1.0000 0.76040  0.22550  0.69330  Biso   1.000  I
  I9       1.0000 0.97679  0.35520  0.86712  Biso   1.000  I
  I10      1.0000 0.88681  0.25798  0.94018  Biso   1.000  I
  I11      1.0000 0.61299  0.26140  0.58986  Biso   1.000  I
  I12      1.0000 0.64255  0.43610  0.48066  Biso   1.000  I
  Zn4      1.0000 0.92090  0.37750  0.90390  Biso   1.000  Zn
  Zn5      1.0000 0.62220  0.41020  0.55520  Biso   1.000  Zn
  C37      1.0000 0.06227  0.04030  0.52370  Biso   1.000  C
  H25      1.0000 0.07390  0.03830  0.49850  Biso   1.000  H
  C38      1.0000 0.03110  0.09730  0.52240  Biso   1.000  C
  H26      1.0000 0.02200  0.13370  0.49690  Biso   1.000  H
  C39      1.0000 0.01378  0.10060  0.55770  Biso   1.000  C
  C40      1.0000 0.02740  0.04680  0.59310  Biso   1.000  C
  H27      1.0000 0.01520  0.04480  0.61790  Biso   1.000  H
  C41      1.0000 0.05980  0.99400  0.59230  Biso   1.000  C
  H28      1.0000 0.07040  0.95980  0.61810  Biso   1.000  H
  C42      1.0000 0.98077  0.16120  0.55865  Biso   1.000  C
  C43      1.0000 0.93205  0.20530  0.58954  Biso   1.000  C
  C44      1.0000 0.94721  0.28570  0.53348  Biso   1.000  C
  C45      1.0000 0.89280  0.12210  0.68590  Biso   1.000  C
  H29      1.0000 0.90090  0.08470  0.71130  Biso   1.000  H
  C46      1.0000 0.91772  0.13540  0.65810  Biso   1.000  C
  H30      1.0000 0.94240  0.10790  0.66410  Biso   1.000  H
  C47      1.0000 0.90651  0.18960  0.62105  Biso   1.000  C
  C48      1.0000 0.86920  0.22710  0.61400  Biso   1.000  C
  H31      1.0000 0.86010  0.26360  0.58860  Biso   1.000  H
  C49      1.0000 0.84693  0.21120  0.64320  Biso   1.000  C
  H32      1.0000 0.82220  0.23810  0.63810  Biso   1.000  H
  C50      1.0000 0.90560  0.49500  0.47550  Biso   1.000  C
  H33      1.0000 0.88360  0.53180  0.47410  Biso   1.000  H
  C51      1.0000 0.90960  0.42120  0.50230  Biso   1.000  C
  H34      1.0000 0.89040  0.40660  0.51870  Biso   1.000  H
  C52      1.0000 0.94227  0.36710  0.50537  Biso   1.000  C
  C53      1.0000 0.96824  0.38990  0.47971  Biso   1.000  C
  H35      1.0000 0.99030  0.35370  0.48000  Biso   1.000  H
  C54      1.0000 0.96197  0.46630  0.45350  Biso   1.000  C
  H36      1.0000 0.98040  0.48250  0.43650  Biso   1.000  H
  C55      1.0000 0.17490  0.05460  0.59930  Biso   1.000  C
  H37      1.0000 0.16010  0.08510  0.57420  Biso   1.000  H
  C56      1.0000 0.20488  0.10000  0.62680  Biso   1.000  C
  H38      1.0000 0.21060  0.16020  0.62050  Biso   1.000  H
  C57      1.0000 0.22603  0.05700  0.66310  Biso   1.000  C
  C58      1.0000 0.21636  0.96880  0.67140  Biso   1.000  C
  H39      1.0000 0.23020  0.93710  0.69670  Biso   1.000  H
  C59      1.0000 0.18654  0.92880  0.64230  Biso   1.000  C
  H40      1.0000 0.18020  0.86870  0.64800  Biso   1.000  H
  C60      1.0000 0.25837  0.10140  0.69415  Biso   1.000  C
  C61      1.0000 0.29428  0.22330  0.71717  Biso   1.000  C
  C62      1.0000 0.30874  0.09140  0.75230  Biso   1.000  C
  C63      1.0000 0.28330  0.47080  0.69310  Biso   1.000  C
  H41      1.0000 0.26580  0.51000  0.67450  Biso   1.000  H
  C64      1.0000 0.27616  0.37910  0.69010  Biso   1.000  C
  H42      1.0000 0.25420  0.35650  0.66980  Biso   1.000  H
  C65      1.0000 0.30101  0.32170  0.71680  Biso   1.000  C
  C66      1.0000 0.33273  0.35750  0.74500  Biso   1.000  C
  H43      1.0000 0.35080  0.31960  0.76370  Biso   1.000  H
  C67      1.0000 0.33800  0.44920  0.74600  Biso   1.000  C
  H44      1.0000 0.36010  0.47330  0.76550  Biso   1.000  H
  C68      1.0000 0.34678  0.90790  0.83398  Biso   1.000  C
  H45      1.0000 0.33970  0.84930  0.84140  Biso   1.000  H
  C69      1.0000 0.32365  0.95270  0.79894  Biso   1.000  C
  H46      1.0000 0.30130  0.92440  0.78200  Biso   1.000  H
  C70      1.0000 0.33315  0.03930  0.78846  Biso   1.000  C
  C71      1.0000 0.36620  0.07670  0.81270  Biso   1.000  C
  H47      1.0000 0.37380  0.13530  0.80600  Biso   1.000  H
  C72      1.0000 0.38840  0.02730  0.84720  Biso   1.000  C
  H48      1.0000 0.41130  0.05340  0.86410  Biso   1.000  H
  N13      1.0000 0.26456  0.18920  0.68826  Biso   1.000  N
  N14      1.0000 0.31834  0.17710  0.74854  Biso   1.000  N
  N15      1.0000 0.92459  0.27690  0.56262  Biso   1.000  N
  N16      1.0000 0.27906  0.04990  0.72620  Biso   1.000  N
  N17      1.0000 0.97505  0.22850  0.52870  Biso   1.000  N
  N18      1.0000 0.96013  0.14640  0.58982  Biso   1.000  N
  N19      1.0000 0.93087  0.51810  0.45127  Biso   1.000  N
  N20      1.0000 0.37903  0.94500  0.85776  Biso   1.000  N
  N21      1.0000 0.16587  0.96980  0.60656  Biso   1.000  N
  N22      1.0000 0.85771  0.15890  0.67940  Biso   1.000  N
  N23      1.0000 0.31342  0.50560  0.72076  Biso   1.000  N
  N24      1.0000 0.07627  0.98930  0.55817  Biso   1.000  N
  Zn6      1.0000 0.32452  0.64168  0.72623  Biso   1.000  Zn
  Zn7      1.0000 0.41380  0.87580  0.90910  Biso   1.000  Zn
  Zn8      1.0000 0.12380  0.90460  0.56610  Biso   1.000  Zn
  I13      1.0000 0.36902  0.66635  0.80432  Biso   1.000  I
  I14      1.0000 0.26430  0.73410  0.70354  Biso   1.000  I
  I15      1.0000 0.47207  0.84190  0.87387  Biso   1.000  I
  I16      1.0000 0.37655  0.76740  0.94680  Biso   1.000  I
  I17      1.0000 0.10610  0.75990  0.60292  Biso   1.000  I
  I18      1.0000 0.14305  0.90880  0.49145  Biso   1.000  I
  I19      1.0000 0.36150  0.66660  0.79460  Biso   1.000  I
  I20      1.0000 0.26040  0.72550  0.69330  Biso   1.000  I
  I21      1.0000 0.47679  0.85520  0.86712  Biso   1.000  I
  I22      1.0000 0.38681  0.75798  0.94018  Biso   1.000  I
  I23      1.0000 0.11299  0.76140  0.58986  Biso   1.000  I
  I24      1.0000 0.14255  0.93610  0.48066  Biso   1.000  I
  Zn9      1.0000 0.42090  0.87750  0.90390  Biso   1.000  Zn
  Zn10     1.0000 0.12220  0.91020  0.55520  Biso   1.000  Zn
  C73      1.0000 0.56227  0.45970  0.02370  Biso   1.000  C
  H49      1.0000 0.57390  0.46170  0.99850  Biso   1.000  H
  C74      1.0000 0.53110  0.40270  0.02240  Biso   1.000  C
  H50      1.0000 0.52200  0.36630  0.99690  Biso   1.000  H
  C75      1.0000 0.51378  0.39940  0.05770  Biso   1.000  C
  C76      1.0000 0.52740  0.45320  0.09310  Biso   1.000  C
  H51      1.0000 0.51520  0.45520  0.11790  Biso   1.000  H
  C77      1.0000 0.55980  0.50600  0.09230  Biso   1.000  C
  H52      1.0000 0.57040  0.54020  0.11810  Biso   1.000  H
  C78      1.0000 0.48077  0.33880  0.05865  Biso   1.000  C
  C79      1.0000 0.43205  0.29470  0.08954  Biso   1.000  C
  C80      1.0000 0.44721  0.21430  0.03348  Biso   1.000  C
  C81      1.0000 0.39280  0.37790  0.18590  Biso   1.000  C
  H53      1.0000 0.40090  0.41530  0.21130  Biso   1.000  H
  C82      1.0000 0.41772  0.36460  0.15810  Biso   1.000  C
  H54      1.0000 0.44240  0.39210  0.16410  Biso   1.000  H
  C83      1.0000 0.40651  0.31040  0.12105  Biso   1.000  C
  C84      1.0000 0.36920  0.27290  0.11400  Biso   1.000  C
  H55      1.0000 0.36010  0.23640  0.08860  Biso   1.000  H
  C85      1.0000 0.34693  0.28880  0.14320  Biso   1.000  C
  H56      1.0000 0.32220  0.26190  0.13810  Biso   1.000  H
  C86      1.0000 0.40560  0.00500  0.97550  Biso   1.000  C
  H57      1.0000 0.38360  0.96820  0.97410  Biso   1.000  H
  C87      1.0000 0.40960  0.07880  0.00230  Biso   1.000  C
  H58      1.0000 0.39040  0.09340  0.01870  Biso   1.000  H
  C88      1.0000 0.44227  0.13290  0.00537  Biso   1.000  C
  C89      1.0000 0.46824  0.11010  0.97971  Biso   1.000  C
  H59      1.0000 0.49030  0.14630  0.98000  Biso   1.000  H
  C90      1.0000 0.46197  0.03370  0.95350  Biso   1.000  C
  H60      1.0000 0.48040  0.01750  0.93650  Biso   1.000  H
  C91      1.0000 0.67490  0.44540  0.09930  Biso   1.000  C
  H61      1.0000 0.66010  0.41490  0.07420  Biso   1.000  H
  C92      1.0000 0.70488  0.40000  0.12680  Biso   1.000  C
  H62      1.0000 0.71060  0.33980  0.12050  Biso   1.000  H
  C93      1.0000 0.72603  0.44300  0.16310  Biso   1.000  C
  C94      1.0000 0.71636  0.53120  0.17140  Biso   1.000  C
  H63      1.0000 0.73020  0.56290  0.19670  Biso   1.000  H
  C95      1.0000 0.68654  0.57120  0.14230  Biso   1.000  C
  H64      1.0000 0.68020  0.63130  0.14800  Biso   1.000  H
  C96      1.0000 0.75837  0.39860  0.19415  Biso   1.000  C
  C97      1.0000 0.79428  0.27670  0.21717  Biso   1.000  C
  C98      1.0000 0.80874  0.40860  0.25230  Biso   1.000  C
  C99      1.0000 0.78330  0.02920  0.19310  Biso   1.000  C
  H65      1.0000 0.76580  0.99000  0.17450  Biso   1.000  H
  C100     1.0000 0.77616  0.12090  0.19010  Biso   1.000  C
  H66      1.0000 0.75420  0.14350  0.16980  Biso   1.000  H
  C101     1.0000 0.80101  0.17830  0.21680  Biso   1.000  C
  C102     1.0000 0.83273  0.14250  0.24500  Biso   1.000  C
  H67      1.0000 0.85080  0.18040  0.26370  Biso   1.000  H
  C103     1.0000 0.83800  0.05080  0.24600  Biso   1.000  C
  H68      1.0000 0.86010  0.02670  0.26550  Biso   1.000  H
  C104     1.0000 0.84678  0.59210  0.33398  Biso   1.000  C
  H69      1.0000 0.83970  0.65070  0.34140  Biso   1.000  H
  C105     1.0000 0.82365  0.54730  0.29894  Biso   1.000  C
  H70      1.0000 0.80130  0.57560  0.28200  Biso   1.000  H
  C106     1.0000 0.83315  0.46070  0.28846  Biso   1.000  C
  C107     1.0000 0.86620  0.42330  0.31270  Biso   1.000  C
  H71      1.0000 0.87380  0.36470  0.30600  Biso   1.000  H
  C108     1.0000 0.88840  0.47270  0.34720  Biso   1.000  C
  H72      1.0000 0.91130  0.44660  0.36410  Biso   1.000  H
  N25      1.0000 0.76456  0.31080  0.18826  Biso   1.000  N
  N26      1.0000 0.81834  0.32290  0.24854  Biso   1.000  N
  N27      1.0000 0.42459  0.22310  0.06262  Biso   1.000  N
  N28      1.0000 0.77906  0.45010  0.22620  Biso   1.000  N
  N29      1.0000 0.47505  0.27150  0.02870  Biso   1.000  N
  N30      1.0000 0.46013  0.35360  0.08982  Biso   1.000  N
  N31      1.0000 0.43087  0.98190  0.95127  Biso   1.000  N
  N32      1.0000 0.87903  0.55500  0.35776  Biso   1.000  N
  N33      1.0000 0.66587  0.53020  0.10656  Biso   1.000  N
  N34      1.0000 0.35771  0.34110  0.17940  Biso   1.000  N
  N35      1.0000 0.81342  0.99440  0.22076  Biso   1.000  N
  N36      1.0000 0.57627  0.51070  0.05817  Biso   1.000  N
  Zn11     1.0000 0.82452  0.85832  0.22623  Biso   1.000  Zn
  Zn12     1.0000 0.91380  0.62420  0.40910  Biso   1.000  Zn
  Zn13     1.0000 0.62380  0.59540  0.06610  Biso   1.000  Zn
  I25      1.0000 0.86902  0.83365  0.30432  Biso   1.000  I
  I26      1.0000 0.76430  0.76590  0.20354  Biso   1.000  I
  I27      1.0000 0.97207  0.65810  0.37387  Biso   1.000  I
  I28      1.0000 0.87655  0.73260  0.44680  Biso   1.000  I
  I29      1.0000 0.60610  0.74010  0.10292  Biso   1.000  I
  I30      1.0000 0.64305  0.59120  0.99145  Biso   1.000  I
  I31      1.0000 0.86150  0.83340  0.29460  Biso   1.000  I
  I32      1.0000 0.76040  0.77450  0.19330  Biso   1.000  I
  I33      1.0000 0.97679  0.64480  0.36712  Biso   1.000  I
  I34      1.0000 0.88681  0.74202  0.44018  Biso   1.000  I
  I35      1.0000 0.61299  0.73860  0.08986  Biso   1.000  I
  I36      1.0000 0.64255  0.56390  0.98066  Biso   1.000  I
  Zn14     1.0000 0.92090  0.62250  0.40390  Biso   1.000  Zn
  Zn15     1.0000 0.62220  0.58980  0.05520  Biso   1.000  Zn
  C109     1.0000 0.06227  0.95970  0.02370  Biso   1.000  C
  H73      1.0000 0.07390  0.96170  0.99850  Biso   1.000  H
  C110     1.0000 0.03110  0.90270  0.02240  Biso   1.000  C
  H74      1.0000 0.02200  0.86630  0.99690  Biso   1.000  H
  C111     1.0000 0.01378  0.89940  0.05770  Biso   1.000  C
  C112     1.0000 0.02740  0.95320  0.09310  Biso   1.000  C
  H75      1.0000 0.01520  0.95520  0.11790  Biso   1.000  H
  C113     1.0000 0.05980  0.00600  0.09230  Biso   1.000  C
  H76      1.0000 0.07040  0.04020  0.11810  Biso   1.000  H
  C114     1.0000 0.98077  0.83880  0.05865  Biso   1.000  C
  C115     1.0000 0.93205  0.79470  0.08954  Biso   1.000  C
  C116     1.0000 0.94721  0.71430  0.03348  Biso   1.000  C
  C117     1.0000 0.89280  0.87790  0.18590  Biso   1.000  C
  H77      1.0000 0.90090  0.91530  0.21130  Biso   1.000  H
  C118     1.0000 0.91772  0.86460  0.15810  Biso   1.000  C
  H78      1.0000 0.94240  0.89210  0.16410  Biso   1.000  H
  C119     1.0000 0.90651  0.81040  0.12105  Biso   1.000  C
  C120     1.0000 0.86920  0.77290  0.11400  Biso   1.000  C
  H79      1.0000 0.86010  0.73640  0.08860  Biso   1.000  H
  C121     1.0000 0.84693  0.78880  0.14320  Biso   1.000  C
  H80      1.0000 0.82220  0.76190  0.13810  Biso   1.000  H
  C122     1.0000 0.90560  0.50500  0.97550  Biso   1.000  C
  H81      1.0000 0.88360  0.46820  0.97410  Biso   1.000  H
  C123     1.0000 0.90960  0.57880  0.00230  Biso   1.000  C
  H82      1.0000 0.89040  0.59340  0.01870  Biso   1.000  H
  C124     1.0000 0.94227  0.63290  0.00537  Biso   1.000  C
  C125     1.0000 0.96824  0.61010  0.97971  Biso   1.000  C
  H83      1.0000 0.99030  0.64630  0.98000  Biso   1.000  H
  C126     1.0000 0.96197  0.53370  0.95350  Biso   1.000  C
  H84      1.0000 0.98040  0.51750  0.93650  Biso   1.000  H
  C127     1.0000 0.17490  0.94540  0.09930  Biso   1.000  C
  H85      1.0000 0.16010  0.91490  0.07420  Biso   1.000  H
  C128     1.0000 0.20488  0.90000  0.12680  Biso   1.000  C
  H86      1.0000 0.21060  0.83980  0.12050  Biso   1.000  H
  C129     1.0000 0.22603  0.94300  0.16310  Biso   1.000  C
  C130     1.0000 0.21636  0.03120  0.17140  Biso   1.000  C
  H87      1.0000 0.23020  0.06290  0.19670  Biso   1.000  H
  C131     1.0000 0.18654  0.07120  0.14230  Biso   1.000  C
  H88      1.0000 0.18020  0.13130  0.14800  Biso   1.000  H
  C132     1.0000 0.25837  0.89860  0.19415  Biso   1.000  C
  C133     1.0000 0.29428  0.77670  0.21717  Biso   1.000  C
  C134     1.0000 0.30874  0.90860  0.25230  Biso   1.000  C
  C135     1.0000 0.28330  0.52920  0.19310  Biso   1.000  C
  H89      1.0000 0.26580  0.49000  0.17450  Biso   1.000  H
  C136     1.0000 0.27616  0.62090  0.19010  Biso   1.000  C
  H90      1.0000 0.25420  0.64350  0.16980  Biso   1.000  H
  C137     1.0000 0.30101  0.67830  0.21680  Biso   1.000  C
  C138     1.0000 0.33273  0.64250  0.24500  Biso   1.000  C
  H91      1.0000 0.35080  0.68040  0.26370  Biso   1.000  H
  C139     1.0000 0.33800  0.55080  0.24600  Biso   1.000  C
  H92      1.0000 0.36010  0.52670  0.26550  Biso   1.000  H
  C140     1.0000 0.34678  0.09210  0.33398  Biso   1.000  C
  H93      1.0000 0.33970  0.15070  0.34140  Biso   1.000  H
  C141     1.0000 0.32365  0.04730  0.29894  Biso   1.000  C
  H94      1.0000 0.30130  0.07560  0.28200  Biso   1.000  H
  C142     1.0000 0.33315  0.96070  0.28846  Biso   1.000  C
  C143     1.0000 0.36620  0.92330  0.31270  Biso   1.000  C
  H95      1.0000 0.37380  0.86470  0.30600  Biso   1.000  H
  C144     1.0000 0.38840  0.97270  0.34720  Biso   1.000  C
  H96      1.0000 0.41130  0.94660  0.36410  Biso   1.000  H
  N37      1.0000 0.26456  0.81080  0.18826  Biso   1.000  N
  N38      1.0000 0.31834  0.82290  0.24854  Biso   1.000  N
  N39      1.0000 0.92459  0.72310  0.06262  Biso   1.000  N
  N40      1.0000 0.27906  0.95010  0.22620  Biso   1.000  N
  N41      1.0000 0.97505  0.77150  0.02870  Biso   1.000  N
  N42      1.0000 0.96013  0.85360  0.08982  Biso   1.000  N
  N43      1.0000 0.93087  0.48190  0.95127  Biso   1.000  N
  N44      1.0000 0.37903  0.05500  0.35776  Biso   1.000  N
  N45      1.0000 0.16587  0.03020  0.10656  Biso   1.000  N
  N46      1.0000 0.85771  0.84110  0.17940  Biso   1.000  N
  N47      1.0000 0.31342  0.49440  0.22076  Biso   1.000  N
  N48      1.0000 0.07627  0.01070  0.05817  Biso   1.000  N
  Zn16     1.0000 0.32452  0.35832  0.22623  Biso   1.000  Zn
  Zn17     1.0000 0.41380  0.12420  0.40910  Biso   1.000  Zn
  Zn18     1.0000 0.12380  0.09540  0.06610  Biso   1.000  Zn
  I37      1.0000 0.36902  0.33365  0.30432  Biso   1.000  I
  I38      1.0000 0.26430  0.26590  0.20354  Biso   1.000  I
  I39      1.0000 0.47207  0.15810  0.37387  Biso   1.000  I
  I40      1.0000 0.37655  0.23260  0.44680  Biso   1.000  I
  I41      1.0000 0.10610  0.24010  0.10292  Biso   1.000  I
  I42      1.0000 0.14305  0.09120  0.99145  Biso   1.000  I
  I43      1.0000 0.36150  0.33340  0.29460  Biso   1.000  I
  I44      1.0000 0.26040  0.27450  0.19330  Biso   1.000  I
  I45      1.0000 0.47679  0.14480  0.36712  Biso   1.000  I
  I46      1.0000 0.38681  0.24202  0.44018  Biso   1.000  I
  I47      1.0000 0.11299  0.23860  0.08986  Biso   1.000  I
  I48      1.0000 0.14255  0.06390  0.98066  Biso   1.000  I
  Zn19     1.0000 0.42090  0.12250  0.40390  Biso   1.000  Zn
  Zn20     1.0000 0.12220  0.08980  0.05520  Biso   1.000  Zn
  C145     1.0000 0.43773  0.54030  0.97630  Biso   1.000  C
  H97      1.0000 0.42610  0.53830  0.00150  Biso   1.000  H
  C146     1.0000 0.46890  0.59730  0.97760  Biso   1.000  C
  H98      1.0000 0.47800  0.63370  0.00310  Biso   1.000  H
  C147     1.0000 0.48622  0.60060  0.94230  Biso   1.000  C
  C148     1.0000 0.47260  0.54680  0.90690  Biso   1.000  C
  H99      1.0000 0.48480  0.54480  0.88210  Biso   1.000  H
  C149     1.0000 0.44020  0.49400  0.90770  Biso   1.000  C
  H100     1.0000 0.42960  0.45980  0.88190  Biso   1.000  H
  C150     1.0000 0.51923  0.66120  0.94135  Biso   1.000  C
  C151     1.0000 0.56795  0.70530  0.91046  Biso   1.000  C
  C152     1.0000 0.55279  0.78570  0.96652  Biso   1.000  C
  C153     1.0000 0.60720  0.62210  0.81410  Biso   1.000  C
  H101     1.0000 0.59910  0.58470  0.78870  Biso   1.000  H
  C154     1.0000 0.58228  0.63540  0.84190  Biso   1.000  C
  H102     1.0000 0.55760  0.60790  0.83590  Biso   1.000  H
  C155     1.0000 0.59349  0.68960  0.87895  Biso   1.000  C
  C156     1.0000 0.63080  0.72710  0.88600  Biso   1.000  C
  H103     1.0000 0.63990  0.76360  0.91140  Biso   1.000  H
  C157     1.0000 0.65307  0.71120  0.85680  Biso   1.000  C
  H104     1.0000 0.67780  0.73810  0.86190  Biso   1.000  H
  C158     1.0000 0.59440  0.99500  0.02450  Biso   1.000  C
  H105     1.0000 0.61640  0.03180  0.02590  Biso   1.000  H
  C159     1.0000 0.59040  0.92120  0.99770  Biso   1.000  C
  H106     1.0000 0.60960  0.90660  0.98130  Biso   1.000  H
  C160     1.0000 0.55773  0.86710  0.99463  Biso   1.000  C
  C161     1.0000 0.53176  0.88990  0.02029  Biso   1.000  C
  H107     1.0000 0.50970  0.85370  0.02000  Biso   1.000  H
  C162     1.0000 0.53803  0.96630  0.04650  Biso   1.000  C
  H108     1.0000 0.51960  0.98250  0.06350  Biso   1.000  H
  C163     1.0000 0.32510  0.55460  0.90070  Biso   1.000  C
  H109     1.0000 0.33990  0.58510  0.92580  Biso   1.000  H
  C164     1.0000 0.29512  0.60000  0.87320  Biso   1.000  C
  H110     1.0000 0.28940  0.66020  0.87950  Biso   1.000  H
  C165     1.0000 0.27397  0.55700  0.83690  Biso   1.000  C
  C166     1.0000 0.28364  0.46880  0.82860  Biso   1.000  C
  H111     1.0000 0.26980  0.43710  0.80330  Biso   1.000  H
  C167     1.0000 0.31346  0.42880  0.85770  Biso   1.000  C
  H112     1.0000 0.31980  0.36870  0.85200  Biso   1.000  H
  C168     1.0000 0.24163  0.60140  0.80585  Biso   1.000  C
  C169     1.0000 0.20572  0.72330  0.78283  Biso   1.000  C
  C170     1.0000 0.19126  0.59140  0.74770  Biso   1.000  C
  C171     1.0000 0.21670  0.97080  0.80690  Biso   1.000  C
  H113     1.0000 0.23420  0.01000  0.82550  Biso   1.000  H
  C172     1.0000 0.22384  0.87910  0.80990  Biso   1.000  C
  H114     1.0000 0.24580  0.85650  0.83020  Biso   1.000  H
  C173     1.0000 0.19899  0.82170  0.78320  Biso   1.000  C
  C174     1.0000 0.16727  0.85750  0.75500  Biso   1.000  C
  H115     1.0000 0.14920  0.81960  0.73630  Biso   1.000  H
  C175     1.0000 0.16200  0.94920  0.75400  Biso   1.000  C
  H116     1.0000 0.13990  0.97330  0.73450  Biso   1.000  H
  C176     1.0000 0.15322  0.40790  0.66602  Biso   1.000  C
  H117     1.0000 0.16030  0.34930  0.65860  Biso   1.000  H
  C177     1.0000 0.17635  0.45270  0.70106  Biso   1.000  C
  H118     1.0000 0.19870  0.42440  0.71800  Biso   1.000  H
  C178     1.0000 0.16685  0.53930  0.71154  Biso   1.000  C
  C179     1.0000 0.13380  0.57670  0.68730  Biso   1.000  C
  H119     1.0000 0.12620  0.63530  0.69400  Biso   1.000  H
  C180     1.0000 0.11160  0.52730  0.65280  Biso   1.000  C
  H120     1.0000 0.08870  0.55340  0.63590  Biso   1.000  H
  N49      1.0000 0.23544  0.68920  0.81174  Biso   1.000  N
  N50      1.0000 0.18166  0.67710  0.75146  Biso   1.000  N
  N51      1.0000 0.57541  0.77690  0.93738  Biso   1.000  N
  N52      1.0000 0.22094  0.54990  0.77380  Biso   1.000  N
  N53      1.0000 0.52495  0.72850  0.97130  Biso   1.000  N
  N54      1.0000 0.53987  0.64640  0.91018  Biso   1.000  N
  N55      1.0000 0.56913  0.01810  0.04873  Biso   1.000  N
  N56      1.0000 0.12097  0.44500  0.64224  Biso   1.000  N
  N57      1.0000 0.33413  0.46980  0.89344  Biso   1.000  N
  N58      1.0000 0.64229  0.65890  0.82060  Biso   1.000  N
  N59      1.0000 0.18658  0.00560  0.77924  Biso   1.000  N
  N60      1.0000 0.42373  0.48930  0.94183  Biso   1.000  N
  Zn21     1.0000 0.17548  0.14168  0.77377  Biso   1.000  Zn
  Zn22     1.0000 0.08620  0.37580  0.59090  Biso   1.000  Zn
  Zn23     1.0000 0.37620  0.40460  0.93390  Biso   1.000  Zn
  I49      1.0000 0.13098  0.16635  0.69568  Biso   1.000  I
  I50      1.0000 0.23570  0.23410  0.79646  Biso   1.000  I
  I51      1.0000 0.02793  0.34190  0.62613  Biso   1.000  I
  I52      1.0000 0.12345  0.26740  0.55320  Biso   1.000  I
  I53      1.0000 0.39390  0.25990  0.89708  Biso   1.000  I
  I54      1.0000 0.35695  0.40880  0.00855  Biso   1.000  I
  I55      1.0000 0.13850  0.16660  0.70540  Biso   1.000  I
  I56      1.0000 0.23960  0.22550  0.80670  Biso   1.000  I
  I57      1.0000 0.02321  0.35520  0.63288  Biso   1.000  I
  I58      1.0000 0.11319  0.25798  0.55982  Biso   1.000  I
  I59      1.0000 0.38701  0.26140  0.91014  Biso   1.000  I
  I60      1.0000 0.35745  0.43610  0.01934  Biso   1.000  I
  Zn24     1.0000 0.07910  0.37750  0.59610  Biso   1.000  Zn
  Zn25     1.0000 0.37780  0.41020  0.94480  Biso   1.000  Zn
  C181     1.0000 0.93773  0.04030  0.97630  Biso   1.000  C
  H121     1.0000 0.92610  0.03830  0.00150  Biso   1.000  H
  C182     1.0000 0.96890  0.09730  0.97760  Biso   1.000  C
  H122     1.0000 0.97800  0.13370  0.00310  Biso   1.000  H
  C183     1.0000 0.98622  0.10060  0.94230  Biso   1.000  C
  C184     1.0000 0.97260  0.04680  0.90690  Biso   1.000  C
  H123     1.0000 0.98480  0.04480  0.88210  Biso   1.000  H
  C185     1.0000 0.94020  0.99400  0.90770  Biso   1.000  C
  H124     1.0000 0.92960  0.95980  0.88190  Biso   1.000  H
  C186     1.0000 0.01923  0.16120  0.94135  Biso   1.000  C
  C187     1.0000 0.06795  0.20530  0.91046  Biso   1.000  C
  C188     1.0000 0.05279  0.28570  0.96652  Biso   1.000  C
  C189     1.0000 0.10720  0.12210  0.81410  Biso   1.000  C
  H125     1.0000 0.09910  0.08470  0.78870  Biso   1.000  H
  C190     1.0000 0.08228  0.13540  0.84190  Biso   1.000  C
  H126     1.0000 0.05760  0.10790  0.83590  Biso   1.000  H
  C191     1.0000 0.09349  0.18960  0.87895  Biso   1.000  C
  C192     1.0000 0.13080  0.22710  0.88600  Biso   1.000  C
  H127     1.0000 0.13990  0.26360  0.91140  Biso   1.000  H
  C193     1.0000 0.15307  0.21120  0.85680  Biso   1.000  C
  H128     1.0000 0.17780  0.23810  0.86190  Biso   1.000  H
  C194     1.0000 0.09440  0.49500  0.02450  Biso   1.000  C
  H129     1.0000 0.11640  0.53180  0.02590  Biso   1.000  H
  C195     1.0000 0.09040  0.42120  0.99770  Biso   1.000  C
  H130     1.0000 0.10960  0.40660  0.98130  Biso   1.000  H
  C196     1.0000 0.05773  0.36710  0.99463  Biso   1.000  C
  C197     1.0000 0.03176  0.38990  0.02029  Biso   1.000  C
  H131     1.0000 0.00970  0.35370  0.02000  Biso   1.000  H
  C198     1.0000 0.03803  0.46630  0.04650  Biso   1.000  C
  H132     1.0000 0.01960  0.48250  0.06350  Biso   1.000  H
  C199     1.0000 0.82510  0.05460  0.90070  Biso   1.000  C
  H133     1.0000 0.83990  0.08510  0.92580  Biso   1.000  H
  C200     1.0000 0.79512  0.10000  0.87320  Biso   1.000  C
  H134     1.0000 0.78940  0.16020  0.87950  Biso   1.000  H
  C201     1.0000 0.77397  0.05700  0.83690  Biso   1.000  C
  C202     1.0000 0.78364  0.96880  0.82860  Biso   1.000  C
  H135     1.0000 0.76980  0.93710  0.80330  Biso   1.000  H
  C203     1.0000 0.81346  0.92880  0.85770  Biso   1.000  C
  H136     1.0000 0.81980  0.86870  0.85200  Biso   1.000  H
  C204     1.0000 0.74163  0.10140  0.80585  Biso   1.000  C
  C205     1.0000 0.70572  0.22330  0.78283  Biso   1.000  C
  C206     1.0000 0.69126  0.09140  0.74770  Biso   1.000  C
  C207     1.0000 0.71670  0.47080  0.80690  Biso   1.000  C
  H137     1.0000 0.73420  0.51000  0.82550  Biso   1.000  H
  C208     1.0000 0.72384  0.37910  0.80990  Biso   1.000  C
  H138     1.0000 0.74580  0.35650  0.83020  Biso   1.000  H
  C209     1.0000 0.69899  0.32170  0.78320  Biso   1.000  C
  C210     1.0000 0.66727  0.35750  0.75500  Biso   1.000  C
  H139     1.0000 0.64920  0.31960  0.73630  Biso   1.000  H
  C211     1.0000 0.66200  0.44920  0.75400  Biso   1.000  C
  H140     1.0000 0.63990  0.47330  0.73450  Biso   1.000  H
  C212     1.0000 0.65322  0.90790  0.66602  Biso   1.000  C
  H141     1.0000 0.66030  0.84930  0.65860  Biso   1.000  H
  C213     1.0000 0.67635  0.95270  0.70106  Biso   1.000  C
  H142     1.0000 0.69870  0.92440  0.71800  Biso   1.000  H
  C214     1.0000 0.66685  0.03930  0.71154  Biso   1.000  C
  C215     1.0000 0.63380  0.07670  0.68730  Biso   1.000  C
  H143     1.0000 0.62620  0.13530  0.69400  Biso   1.000  H
  C216     1.0000 0.61160  0.02730  0.65280  Biso   1.000  C
  H144     1.0000 0.58870  0.05340  0.63590  Biso   1.000  H
  N61      1.0000 0.73544  0.18920  0.81174  Biso   1.000  N
  N62      1.0000 0.68166  0.17710  0.75146  Biso   1.000  N
  N63      1.0000 0.07541  0.27690  0.93738  Biso   1.000  N
  N64      1.0000 0.72094  0.04990  0.77380  Biso   1.000  N
  N65      1.0000 0.02495  0.22850  0.97130  Biso   1.000  N
  N66      1.0000 0.03987  0.14640  0.91018  Biso   1.000  N
  N67      1.0000 0.06913  0.51810  0.04873  Biso   1.000  N
  N68      1.0000 0.62097  0.94500  0.64224  Biso   1.000  N
  N69      1.0000 0.83413  0.96980  0.89344  Biso   1.000  N
  N70      1.0000 0.14229  0.15890  0.82060  Biso   1.000  N
  N71      1.0000 0.68658  0.50560  0.77924  Biso   1.000  N
  N72      1.0000 0.92373  0.98930  0.94183  Biso   1.000  N
  Zn26     1.0000 0.67548  0.64168  0.77377  Biso   1.000  Zn
  Zn27     1.0000 0.58620  0.87580  0.59090  Biso   1.000  Zn
  Zn28     1.0000 0.87620  0.90460  0.93390  Biso   1.000  Zn
  I61      1.0000 0.63098  0.66635  0.69568  Biso   1.000  I
  I62      1.0000 0.73570  0.73410  0.79646  Biso   1.000  I
  I63      1.0000 0.52793  0.84190  0.62613  Biso   1.000  I
  I64      1.0000 0.62345  0.76740  0.55320  Biso   1.000  I
  I65      1.0000 0.89390  0.75990  0.89708  Biso   1.000  I
  I66      1.0000 0.85695  0.90880  0.00855  Biso   1.000  I
  I67      1.0000 0.63850  0.66660  0.70540  Biso   1.000  I
  I68      1.0000 0.73960  0.72550  0.80670  Biso   1.000  I
  I69      1.0000 0.52321  0.85520  0.63288  Biso   1.000  I
  I70      1.0000 0.61319  0.75798  0.55982  Biso   1.000  I
  I71      1.0000 0.88701  0.76140  0.91014  Biso   1.000  I
  I72      1.0000 0.85745  0.93610  0.01934  Biso   1.000  I
  Zn29     1.0000 0.57910  0.87750  0.59610  Biso   1.000  Zn
  Zn30     1.0000 0.87780  0.91020  0.94480  Biso   1.000  Zn
  C217     1.0000 0.43773  0.45970  0.47630  Biso   1.000  C
  H145     1.0000 0.42610  0.46170  0.50150  Biso   1.000  H
  C218     1.0000 0.46890  0.40270  0.47760  Biso   1.000  C
  H146     1.0000 0.47800  0.36630  0.50310  Biso   1.000  H
  C219     1.0000 0.48622  0.39940  0.44230  Biso   1.000  C
  C220     1.0000 0.47260  0.45320  0.40690  Biso   1.000  C
  H147     1.0000 0.48480  0.45520  0.38210  Biso   1.000  H
  C221     1.0000 0.44020  0.50600  0.40770  Biso   1.000  C
  H148     1.0000 0.42960  0.54020  0.38190  Biso   1.000  H
  C222     1.0000 0.51923  0.33880  0.44135  Biso   1.000  C
  C223     1.0000 0.56795  0.29470  0.41046  Biso   1.000  C
  C224     1.0000 0.55279  0.21430  0.46652  Biso   1.000  C
  C225     1.0000 0.60720  0.37790  0.31410  Biso   1.000  C
  H149     1.0000 0.59910  0.41530  0.28870  Biso   1.000  H
  C226     1.0000 0.58228  0.36460  0.34190  Biso   1.000  C
  H150     1.0000 0.55760  0.39210  0.33590  Biso   1.000  H
  C227     1.0000 0.59349  0.31040  0.37895  Biso   1.000  C
  C228     1.0000 0.63080  0.27290  0.38600  Biso   1.000  C
  H151     1.0000 0.63990  0.23640  0.41140  Biso   1.000  H
  C229     1.0000 0.65307  0.28880  0.35680  Biso   1.000  C
  H152     1.0000 0.67780  0.26190  0.36190  Biso   1.000  H
  C230     1.0000 0.59440  0.00500  0.52450  Biso   1.000  C
  H153     1.0000 0.61640  0.96820  0.52590  Biso   1.000  H
  C231     1.0000 0.59040  0.07880  0.49770  Biso   1.000  C
  H154     1.0000 0.60960  0.09340  0.48130  Biso   1.000  H
  C232     1.0000 0.55773  0.13290  0.49463  Biso   1.000  C
  C233     1.0000 0.53176  0.11010  0.52029  Biso   1.000  C
  H155     1.0000 0.50970  0.14630  0.52000  Biso   1.000  H
  C234     1.0000 0.53803  0.03370  0.54650  Biso   1.000  C
  H156     1.0000 0.51960  0.01750  0.56350  Biso   1.000  H
  C235     1.0000 0.32510  0.44540  0.40070  Biso   1.000  C
  H157     1.0000 0.33990  0.41490  0.42580  Biso   1.000  H
  C236     1.0000 0.29512  0.40000  0.37320  Biso   1.000  C
  H158     1.0000 0.28940  0.33980  0.37950  Biso   1.000  H
  C237     1.0000 0.27397  0.44300  0.33690  Biso   1.000  C
  C238     1.0000 0.28364  0.53120  0.32860  Biso   1.000  C
  H159     1.0000 0.26980  0.56290  0.30330  Biso   1.000  H
  C239     1.0000 0.31346  0.57120  0.35770  Biso   1.000  C
  H160     1.0000 0.31980  0.63130  0.35200  Biso   1.000  H
  C240     1.0000 0.24163  0.39860  0.30585  Biso   1.000  C
  C241     1.0000 0.20572  0.27670  0.28283  Biso   1.000  C
  C242     1.0000 0.19126  0.40860  0.24770  Biso   1.000  C
  C243     1.0000 0.21670  0.02920  0.30690  Biso   1.000  C
  H161     1.0000 0.23420  0.99000  0.32550  Biso   1.000  H
  C244     1.0000 0.22384  0.12090  0.30990  Biso   1.000  C
  H162     1.0000 0.24580  0.14350  0.33020  Biso   1.000  H
  C245     1.0000 0.19899  0.17830  0.28320  Biso   1.000  C
  C246     1.0000 0.16727  0.14250  0.25500  Biso   1.000  C
  H163     1.0000 0.14920  0.18040  0.23630  Biso   1.000  H
  C247     1.0000 0.16200  0.05080  0.25400  Biso   1.000  C
  H164     1.0000 0.13990  0.02670  0.23450  Biso   1.000  H
  C248     1.0000 0.15322  0.59210  0.16602  Biso   1.000  C
  H165     1.0000 0.16030  0.65070  0.15860  Biso   1.000  H
  C249     1.0000 0.17635  0.54730  0.20106  Biso   1.000  C
  H166     1.0000 0.19870  0.57560  0.21800  Biso   1.000  H
  C250     1.0000 0.16685  0.46070  0.21154  Biso   1.000  C
  C251     1.0000 0.13380  0.42330  0.18730  Biso   1.000  C
  H167     1.0000 0.12620  0.36470  0.19400  Biso   1.000  H
  C252     1.0000 0.11160  0.47270  0.15280  Biso   1.000  C
  H168     1.0000 0.08870  0.44660  0.13590  Biso   1.000  H
  N73      1.0000 0.23544  0.31080  0.31174  Biso   1.000  N
  N74      1.0000 0.18166  0.32290  0.25146  Biso   1.000  N
  N75      1.0000 0.57541  0.22310  0.43738  Biso   1.000  N
  N76      1.0000 0.22094  0.45010  0.27380  Biso   1.000  N
  N77      1.0000 0.52495  0.27150  0.47130  Biso   1.000  N
  N78      1.0000 0.53987  0.35360  0.41018  Biso   1.000  N
  N79      1.0000 0.56913  0.98190  0.54873  Biso   1.000  N
  N80      1.0000 0.12097  0.55500  0.14224  Biso   1.000  N
  N81      1.0000 0.33413  0.53020  0.39344  Biso   1.000  N
  N82      1.0000 0.64229  0.34110  0.32060  Biso   1.000  N
  N83      1.0000 0.18658  0.99440  0.27924  Biso   1.000  N
  N84      1.0000 0.42373  0.51070  0.44183  Biso   1.000  N
  Zn31     1.0000 0.17548  0.85832  0.27377  Biso   1.000  Zn
  Zn32     1.0000 0.08620  0.62420  0.09090  Biso   1.000  Zn
  Zn33     1.0000 0.37620  0.59540  0.43390  Biso   1.000  Zn
  I73      1.0000 0.13098  0.83365  0.19568  Biso   1.000  I
  I74      1.0000 0.23570  0.76590  0.29646  Biso   1.000  I
  I75      1.0000 0.02793  0.65810  0.12613  Biso   1.000  I
  I76      1.0000 0.12345  0.73260  0.05320  Biso   1.000  I
  I77      1.0000 0.39390  0.74010  0.39708  Biso   1.000  I
  I78      1.0000 0.35695  0.59120  0.50855  Biso   1.000  I
  I79      1.0000 0.13850  0.83340  0.20540  Biso   1.000  I
  I80      1.0000 0.23960  0.77450  0.30670  Biso   1.000  I
  I81      1.0000 0.02321  0.64480  0.13288  Biso   1.000  I
  I82      1.0000 0.11319  0.74202  0.05982  Biso   1.000  I
  I83      1.0000 0.38701  0.73860  0.41014  Biso   1.000  I
  I84      1.0000 0.35745  0.56390  0.51934  Biso   1.000  I
  Zn34     1.0000 0.07910  0.62250  0.09610  Biso   1.000  Zn
  Zn35     1.0000 0.37780  0.58980  0.44480  Biso   1.000  Zn
  C253     1.0000 0.93773  0.95970  0.47630  Biso   1.000  C
  H169     1.0000 0.92610  0.96170  0.50150  Biso   1.000  H
  C254     1.0000 0.96890  0.90270  0.47760  Biso   1.000  C
  H170     1.0000 0.97800  0.86630  0.50310  Biso   1.000  H
  C255     1.0000 0.98622  0.89940  0.44230  Biso   1.000  C
  C256     1.0000 0.97260  0.95320  0.40690  Biso   1.000  C
  H171     1.0000 0.98480  0.95520  0.38210  Biso   1.000  H
  C257     1.0000 0.94020  0.00600  0.40770  Biso   1.000  C
  H172     1.0000 0.92960  0.04020  0.38190  Biso   1.000  H
  C258     1.0000 0.01923  0.83880  0.44135  Biso   1.000  C
  C259     1.0000 0.06795  0.79470  0.41046  Biso   1.000  C
  C260     1.0000 0.05279  0.71430  0.46652  Biso   1.000  C
  C261     1.0000 0.10720  0.87790  0.31410  Biso   1.000  C
  H173     1.0000 0.09910  0.91530  0.28870  Biso   1.000  H
  C262     1.0000 0.08228  0.86460  0.34190  Biso   1.000  C
  H174     1.0000 0.05760  0.89210  0.33590  Biso   1.000  H
  C263     1.0000 0.09349  0.81040  0.37895  Biso   1.000  C
  C264     1.0000 0.13080  0.77290  0.38600  Biso   1.000  C
  H175     1.0000 0.13990  0.73640  0.41140  Biso   1.000  H
  C265     1.0000 0.15307  0.78880  0.35680  Biso   1.000  C
  H176     1.0000 0.17780  0.76190  0.36190  Biso   1.000  H
  C266     1.0000 0.09440  0.50500  0.52450  Biso   1.000  C
  H177     1.0000 0.11640  0.46820  0.52590  Biso   1.000  H
  C267     1.0000 0.09040  0.57880  0.49770  Biso   1.000  C
  H178     1.0000 0.10960  0.59340  0.48130  Biso   1.000  H
  C268     1.0000 0.05773  0.63290  0.49463  Biso   1.000  C
  C269     1.0000 0.03176  0.61010  0.52029  Biso   1.000  C
  H179     1.0000 0.00970  0.64630  0.52000  Biso   1.000  H
  C270     1.0000 0.03803  0.53370  0.54650  Biso   1.000  C
  H180     1.0000 0.01960  0.51750  0.56350  Biso   1.000  H
  C271     1.0000 0.82510  0.94540  0.40070  Biso   1.000  C
  H181     1.0000 0.83990  0.91490  0.42580  Biso   1.000  H
  C272     1.0000 0.79512  0.90000  0.37320  Biso   1.000  C
  H182     1.0000 0.78940  0.83980  0.37950  Biso   1.000  H
  C273     1.0000 0.77397  0.94300  0.33690  Biso   1.000  C
  C274     1.0000 0.78364  0.03120  0.32860  Biso   1.000  C
  H183     1.0000 0.76980  0.06290  0.30330  Biso   1.000  H
  C275     1.0000 0.81346  0.07120  0.35770  Biso   1.000  C
  H184     1.0000 0.81980  0.13130  0.35200  Biso   1.000  H
  C276     1.0000 0.74163  0.89860  0.30585  Biso   1.000  C
  C277     1.0000 0.70572  0.77670  0.28283  Biso   1.000  C
  C278     1.0000 0.69126  0.90860  0.24770  Biso   1.000  C
  C279     1.0000 0.71670  0.52920  0.30690  Biso   1.000  C
  H185     1.0000 0.73420  0.49000  0.32550  Biso   1.000  H
  C280     1.0000 0.72384  0.62090  0.30990  Biso   1.000  C
  H186     1.0000 0.74580  0.64350  0.33020  Biso   1.000  H
  C281     1.0000 0.69899  0.67830  0.28320  Biso   1.000  C
  C282     1.0000 0.66727  0.64250  0.25500  Biso   1.000  C
  H187     1.0000 0.64920  0.68040  0.23630  Biso   1.000  H
  C283     1.0000 0.66200  0.55080  0.25400  Biso   1.000  C
  H188     1.0000 0.63990  0.52670  0.23450  Biso   1.000  H
  C284     1.0000 0.65322  0.09210  0.16602  Biso   1.000  C
  H189     1.0000 0.66030  0.15070  0.15860  Biso   1.000  H
  C285     1.0000 0.67635  0.04730  0.20106  Biso   1.000  C
  H190     1.0000 0.69870  0.07560  0.21800  Biso   1.000  H
  C286     1.0000 0.66685  0.96070  0.21154  Biso   1.000  C
  C287     1.0000 0.63380  0.92330  0.18730  Biso   1.000  C
  H191     1.0000 0.62620  0.86470  0.19400  Biso   1.000  H
  C288     1.0000 0.61160  0.97270  0.15280  Biso   1.000  C
  H192     1.0000 0.58870  0.94660  0.13590  Biso   1.000  H
  N85      1.0000 0.73544  0.81080  0.31174  Biso   1.000  N
  N86      1.0000 0.68166  0.82290  0.25146  Biso   1.000  N
  N87      1.0000 0.07541  0.72310  0.43738  Biso   1.000  N
  N88      1.0000 0.72094  0.95010  0.27380  Biso   1.000  N
  N89      1.0000 0.02495  0.77150  0.47130  Biso   1.000  N
  N90      1.0000 0.03987  0.85360  0.41018  Biso   1.000  N
  N91      1.0000 0.06913  0.48190  0.54873  Biso   1.000  N
  N92      1.0000 0.62097  0.05500  0.14224  Biso   1.000  N
  N93      1.0000 0.83413  0.03020  0.39344  Biso   1.000  N
  N94      1.0000 0.14229  0.84110  0.32060  Biso   1.000  N
  N95      1.0000 0.68658  0.49440  0.27924  Biso   1.000  N
  N96      1.0000 0.92373  0.01070  0.44183  Biso   1.000  N
  Zn36     1.0000 0.67548  0.35832  0.27377  Biso   1.000  Zn
  Zn37     1.0000 0.58620  0.12420  0.09090  Biso   1.000  Zn
  Zn38     1.0000 0.87620  0.09540  0.43390  Biso   1.000  Zn
  I85      1.0000 0.63098  0.33365  0.19568  Biso   1.000  I
  I86      1.0000 0.73570  0.26590  0.29646  Biso   1.000  I
  I87      1.0000 0.52793  0.15810  0.12613  Biso   1.000  I
  I88      1.0000 0.62345  0.23260  0.05320  Biso   1.000  I
  I89      1.0000 0.89390  0.24010  0.39708  Biso   1.000  I
  I90      1.0000 0.85695  0.09120  0.50855  Biso   1.000  I
  I91      1.0000 0.63850  0.33340  0.20540  Biso   1.000  I
  I92      1.0000 0.73960  0.27450  0.30670  Biso   1.000  I
  I93      1.0000 0.52321  0.14480  0.13288  Biso   1.000  I
  I94      1.0000 0.61319  0.24202  0.05982  Biso   1.000  I
  I95      1.0000 0.88701  0.23860  0.41014  Biso   1.000  I
  I96      1.0000 0.85745  0.06390  0.51934  Biso   1.000  I
  Zn39     1.0000 0.57910  0.12250  0.09610  Biso   1.000  Zn
  Zn40     1.0000 0.87780  0.08980  0.44480  Biso   1.000  Zn
