data_image0
_cell_length_a       31.8903
_cell_length_b       31.8903
_cell_length_c       17.1915
_cell_angle_alpha    90
_cell_angle_beta     90
_cell_angle_gamma    120

_symmetry_space_group_name_H-M    "P 1"
_symmetry_int_tables_number       1

loop_
  _symmetry_equiv_pos_as_xyz
  'x, y, z'

loop_
  _atom_site_label
  _atom_site_occupancy
  _atom_site_fract_x
  _atom_site_fract_y
  _atom_site_fract_z
  _atom_site_thermal_displace_type
  _atom_site_B_iso_or_equiv
  _atom_site_type_symbol
  In1      1.0000 0.56038  0.49244  0.14792  Biso   1.000  In
  O1       1.0000 0.16520  0.48920  0.65430  Biso   1.000  O
  O2       1.0000 0.55930  0.43250  0.09530  Biso   1.000  O
  O3       1.0000 0.60360  0.40650  0.15840  Biso   1.000  O
  O4       1.0000 0.44720  0.99750  0.68380  Biso   1.000  O
  O5       1.0000 0.09420  0.46360  0.59220  Biso   1.000  O
  O6       1.0000 0.52470  0.49580  0.04390  Biso   1.000  O
  O7       1.0000 0.48740  0.45100  0.18530  Biso   1.000  O
  C1       1.0000 0.25550  0.42760  0.32060  Biso   1.000  C
  H1       1.0000 0.27130  0.42820  0.36710  Biso   1.000  H
  C2       1.0000 0.57140  0.30270  0.82110  Biso   1.000  C
  C3       1.0000 0.49430  0.09990  0.68210  Biso   1.000  C
  H2       1.0000 0.48750  0.08230  0.63540  Biso   1.000  H
  C4       1.0000 0.21070  0.42710  0.32130  Biso   1.000  C
  C5       1.0000 0.55760  0.36060  0.89560  Biso   1.000  C
  H3       1.0000 0.54440  0.36560  0.85000  Biso   1.000  H
  C6       1.0000 0.19120  0.43350  0.39540  Biso   1.000  C
  C7       1.0000 0.13890  0.41510  0.40560  Biso   1.000  C
  H4       1.0000 0.11700  0.39620  0.36640  Biso   1.000  H
  C8       1.0000 0.21950  0.45900  0.45270  Biso   1.000  C
  H5       1.0000 0.25290  0.47070  0.44730  Biso   1.000  H
  C9       1.0000 0.12190  0.42570  0.47380  Biso   1.000  C
  H6       1.0000 0.08860  0.41410  0.47980  Biso   1.000  H
  C10      1.0000 0.57930  0.40710  0.10090  Biso   1.000  C
  C11      1.0000 0.13620  0.46910  0.59740  Biso   1.000  C
  C12      1.0000 0.57630  0.37800  0.02840  Biso   1.000  C
  C13      1.0000 0.59210  0.32140  0.96190  Biso   1.000  C
  H7       1.0000 0.60300  0.29900  0.96280  Biso   1.000  H
  C14      1.0000 0.15250  0.45190  0.53020  Biso   1.000  C
  C15      1.0000 0.20360  0.47010  0.52190  Biso   1.000  C
  H8       1.0000 0.22550  0.48880  0.56120  Biso   1.000  H
  C16      1.0000 0.55770  0.25410  0.82240  Biso   1.000  C
  H9       1.0000 0.55260  0.23750  0.86970  Biso   1.000  H
  C17      1.0000 0.57460  0.32900  0.89330  Biso   1.000  C
  C18      1.0000 0.55910  0.38560  0.96150  Biso   1.000  C
  H10      1.0000 0.54810  0.40800  0.96000  Biso   1.000  H
  C19      1.0000 0.51630  0.14960  0.67850  Biso   1.000  C
  H11      1.0000 0.52150  0.16580  0.63080  Biso   1.000  H
  C20      1.0000 0.59410  0.34570  0.02940  Biso   1.000  C
  H12      1.0000 0.60720  0.34070  0.07520  Biso   1.000  H
  C21      1.0000 0.35500  0.44900  0.31500  Biso   1.000  C
  H13      1.0000 0.34350  0.45890  0.35750  Biso   1.000  H
  C22      1.0000 0.40200  0.45500  0.32200  Biso   1.000  C
  H14      1.0000 0.42210  0.46820  0.36580  Biso   1.000  H
  C23      1.0000 0.34000  0.41900  0.18900  Biso   1.000  C
  H15      1.0000 0.32030  0.40510  0.14550  Biso   1.000  H
  C24      1.0000 0.39200  0.42900  0.31000  Biso   1.000  C
  In2      1.0000 0.50756  0.06794  0.14792  Biso   1.000  In
  O8       1.0000 0.51080  0.67600  0.65430  Biso   1.000  O
  O9       1.0000 0.56750  0.12680  0.09530  Biso   1.000  O
  O10      1.0000 0.59350  0.19710  0.15840  Biso   1.000  O
  O11      1.0000 0.00250  0.44970  0.68380  Biso   1.000  O
  O12      1.0000 0.53640  0.63060  0.59220  Biso   1.000  O
  O13      1.0000 0.50420  0.02890  0.04390  Biso   1.000  O
  O14      1.0000 0.54900  0.03640  0.18530  Biso   1.000  O
  C25      1.0000 0.57240  0.82790  0.32060  Biso   1.000  C
  H16      1.0000 0.57180  0.84310  0.36710  Biso   1.000  H
  C26      1.0000 0.69730  0.26870  0.82110  Biso   1.000  C
  C27      1.0000 0.90010  0.39440  0.68210  Biso   1.000  C
  H17      1.0000 0.91770  0.40520  0.63540  Biso   1.000  H
  C28      1.0000 0.57290  0.78360  0.32130  Biso   1.000  C
  C29      1.0000 0.63940  0.19700  0.89560  Biso   1.000  C
  H18      1.0000 0.63440  0.17880  0.85000  Biso   1.000  H
  C30      1.0000 0.56650  0.75770  0.39540  Biso   1.000  C
  C31      1.0000 0.58490  0.72380  0.40560  Biso   1.000  C
  H19      1.0000 0.60380  0.72080  0.36640  Biso   1.000  H
  C32      1.0000 0.54100  0.76050  0.45270  Biso   1.000  C
  H20      1.0000 0.52930  0.78220  0.44730  Biso   1.000  H
  C33      1.0000 0.57430  0.69620  0.47380  Biso   1.000  C
  H21      1.0000 0.58590  0.67450  0.47980  Biso   1.000  H
  C34      1.0000 0.59290  0.17220  0.10090  Biso   1.000  C
  C35      1.0000 0.53090  0.66710  0.59740  Biso   1.000  C
  C36      1.0000 0.62200  0.19830  0.02840  Biso   1.000  C
  C37      1.0000 0.67860  0.27070  0.96190  Biso   1.000  C
  H22      1.0000 0.70100  0.30400  0.96280  Biso   1.000  H
  C38      1.0000 0.54810  0.70060  0.53020  Biso   1.000  C
  C39      1.0000 0.52990  0.73350  0.52190  Biso   1.000  C
  H23      1.0000 0.51120  0.73670  0.56120  Biso   1.000  H
  C40      1.0000 0.74590  0.30360  0.82240  Biso   1.000  C
  H24      1.0000 0.76250  0.31510  0.86970  Biso   1.000  H
  C41      1.0000 0.67100  0.24560  0.89330  Biso   1.000  C
  C42      1.0000 0.61440  0.17350  0.96150  Biso   1.000  C
  H25      1.0000 0.59200  0.14010  0.96000  Biso   1.000  H
  C43      1.0000 0.85040  0.36670  0.67850  Biso   1.000  C
  H26      1.0000 0.83420  0.35570  0.63080  Biso   1.000  H
  C44      1.0000 0.65430  0.24840  0.02940  Biso   1.000  C
  H27      1.0000 0.65930  0.26650  0.07520  Biso   1.000  H
  C45      1.0000 0.55100  0.90600  0.31500  Biso   1.000  C
  H28      1.0000 0.54110  0.88460  0.35750  Biso   1.000  H
  C46      1.0000 0.54500  0.94700  0.32200  Biso   1.000  C
  H29      1.0000 0.53180  0.95390  0.36580  Biso   1.000  H
  C47      1.0000 0.58100  0.92100  0.18900  Biso   1.000  C
  H30      1.0000 0.59490  0.91520  0.14550  Biso   1.000  H
  C48      1.0000 0.57100  0.96300  0.31000  Biso   1.000  C
  In3      1.0000 0.93206  0.43962  0.14792  Biso   1.000  In
  O15      1.0000 0.32400  0.83480  0.65430  Biso   1.000  O
  O16      1.0000 0.87320  0.44070  0.09530  Biso   1.000  O
  O17      1.0000 0.80290  0.39640  0.15840  Biso   1.000  O
  O18      1.0000 0.55030  0.55280  0.68380  Biso   1.000  O
  O19      1.0000 0.36940  0.90580  0.59220  Biso   1.000  O
  O20      1.0000 0.97110  0.47530  0.04390  Biso   1.000  O
  O21      1.0000 0.96360  0.51260  0.18530  Biso   1.000  O
  C49      1.0000 0.17210  0.74450  0.32060  Biso   1.000  C
  H31      1.0000 0.15690  0.72870  0.36710  Biso   1.000  H
  C50      1.0000 0.73130  0.42860  0.82110  Biso   1.000  C
  C51      1.0000 0.60560  0.50570  0.68210  Biso   1.000  C
  H32      1.0000 0.59480  0.51250  0.63540  Biso   1.000  H
  C52      1.0000 0.21640  0.78930  0.32130  Biso   1.000  C
  C53      1.0000 0.80300  0.44240  0.89560  Biso   1.000  C
  H33      1.0000 0.82120  0.45560  0.85000  Biso   1.000  H
  C54      1.0000 0.24230  0.80880  0.39540  Biso   1.000  C
  C55      1.0000 0.27620  0.86110  0.40560  Biso   1.000  C
  H34      1.0000 0.27920  0.88300  0.36640  Biso   1.000  H
  C56      1.0000 0.23950  0.78050  0.45270  Biso   1.000  C
  H35      1.0000 0.21780  0.74710  0.44730  Biso   1.000  H
  C57      1.0000 0.30380  0.87810  0.47380  Biso   1.000  C
  H36      1.0000 0.32550  0.91140  0.47980  Biso   1.000  H
  C58      1.0000 0.82780  0.42070  0.10090  Biso   1.000  C
  C59      1.0000 0.33290  0.86380  0.59740  Biso   1.000  C
  C60      1.0000 0.80170  0.42370  0.02840  Biso   1.000  C
  C61      1.0000 0.72930  0.40790  0.96190  Biso   1.000  C
  H37      1.0000 0.69600  0.39700  0.96280  Biso   1.000  H
  C62      1.0000 0.29940  0.84750  0.53020  Biso   1.000  C
  C63      1.0000 0.26650  0.79640  0.52190  Biso   1.000  C
  H38      1.0000 0.26330  0.77450  0.56120  Biso   1.000  H
  C64      1.0000 0.69640  0.44230  0.82240  Biso   1.000  C
  H39      1.0000 0.68490  0.44740  0.86970  Biso   1.000  H
  C65      1.0000 0.75440  0.42540  0.89330  Biso   1.000  C
  C66      1.0000 0.82650  0.44090  0.96150  Biso   1.000  C
  H40      1.0000 0.85990  0.45190  0.96000  Biso   1.000  H
  C67      1.0000 0.63330  0.48370  0.67850  Biso   1.000  C
  H41      1.0000 0.64430  0.47850  0.63080  Biso   1.000  H
  C68      1.0000 0.75160  0.40590  0.02940  Biso   1.000  C
  H42      1.0000 0.73350  0.39280  0.07520  Biso   1.000  H
  C69      1.0000 0.09400  0.64500  0.31500  Biso   1.000  C
  H43      1.0000 0.11540  0.65650  0.35750  Biso   1.000  H
  C70      1.0000 0.05300  0.59800  0.32200  Biso   1.000  C
  H44      1.0000 0.04610  0.57790  0.36580  Biso   1.000  H
  C71      1.0000 0.07900  0.66000  0.18900  Biso   1.000  C
  H45      1.0000 0.08480  0.67970  0.14550  Biso   1.000  H
  C72      1.0000 0.03700  0.60800  0.31000  Biso   1.000  C
  In4      1.0000 0.56038  0.49244  0.35208  Biso   1.000  In
  O22      1.0000 0.16520  0.48920  0.84570  Biso   1.000  O
  O23      1.0000 0.55930  0.43250  0.40470  Biso   1.000  O
  O24      1.0000 0.60360  0.40650  0.34160  Biso   1.000  O
  O25      1.0000 0.44720  0.99750  0.81620  Biso   1.000  O
  O26      1.0000 0.09420  0.46360  0.90780  Biso   1.000  O
  O27      1.0000 0.52470  0.49580  0.45610  Biso   1.000  O
  O28      1.0000 0.48740  0.45100  0.31470  Biso   1.000  O
  C73      1.0000 0.25550  0.42760  0.17940  Biso   1.000  C
  H46      1.0000 0.27130  0.42820  0.13290  Biso   1.000  H
  C74      1.0000 0.57140  0.30270  0.67890  Biso   1.000  C
  C75      1.0000 0.49430  0.09990  0.81790  Biso   1.000  C
  H47      1.0000 0.48750  0.08230  0.86460  Biso   1.000  H
  C76      1.0000 0.21070  0.42710  0.17870  Biso   1.000  C
  C77      1.0000 0.55760  0.36060  0.60440  Biso   1.000  C
  H48      1.0000 0.54440  0.36560  0.65000  Biso   1.000  H
  C78      1.0000 0.19120  0.43350  0.10460  Biso   1.000  C
  C79      1.0000 0.13890  0.41510  0.09440  Biso   1.000  C
  H49      1.0000 0.11700  0.39620  0.13360  Biso   1.000  H
  C80      1.0000 0.21950  0.45900  0.04730  Biso   1.000  C
  H50      1.0000 0.25290  0.47070  0.05270  Biso   1.000  H
  C81      1.0000 0.12190  0.42570  0.02620  Biso   1.000  C
  H51      1.0000 0.08860  0.41410  0.02020  Biso   1.000  H
  C82      1.0000 0.57930  0.40710  0.39910  Biso   1.000  C
  C83      1.0000 0.13620  0.46910  0.90260  Biso   1.000  C
  C84      1.0000 0.57630  0.37800  0.47160  Biso   1.000  C
  C85      1.0000 0.59210  0.32140  0.53810  Biso   1.000  C
  H52      1.0000 0.60300  0.29900  0.53720  Biso   1.000  H
  C86      1.0000 0.15250  0.45190  0.96980  Biso   1.000  C
  C87      1.0000 0.20360  0.47010  0.97810  Biso   1.000  C
  H53      1.0000 0.22550  0.48880  0.93880  Biso   1.000  H
  C88      1.0000 0.55770  0.25410  0.67760  Biso   1.000  C
  H54      1.0000 0.55260  0.23750  0.63030  Biso   1.000  H
  C89      1.0000 0.57460  0.32900  0.60670  Biso   1.000  C
  C90      1.0000 0.55910  0.38560  0.53850  Biso   1.000  C
  H55      1.0000 0.54810  0.40800  0.54000  Biso   1.000  H
  C91      1.0000 0.51630  0.14960  0.82150  Biso   1.000  C
  H56      1.0000 0.52150  0.16580  0.86920  Biso   1.000  H
  C92      1.0000 0.59410  0.34570  0.47060  Biso   1.000  C
  H57      1.0000 0.60720  0.34070  0.42480  Biso   1.000  H
  C93      1.0000 0.35500  0.44900  0.18500  Biso   1.000  C
  H58      1.0000 0.34350  0.45890  0.14250  Biso   1.000  H
  C94      1.0000 0.40200  0.45500  0.17800  Biso   1.000  C
  H59      1.0000 0.42210  0.46820  0.13420  Biso   1.000  H
  C95      1.0000 0.34000  0.41900  0.31100  Biso   1.000  C
  H60      1.0000 0.32030  0.40510  0.35450  Biso   1.000  H
  C96      1.0000 0.39200  0.42900  0.19000  Biso   1.000  C
  In5      1.0000 0.50756  0.06794  0.35208  Biso   1.000  In
  O29      1.0000 0.51080  0.67600  0.84570  Biso   1.000  O
  O30      1.0000 0.56750  0.12680  0.40470  Biso   1.000  O
  O31      1.0000 0.59350  0.19710  0.34160  Biso   1.000  O
  O32      1.0000 0.00250  0.44970  0.81620  Biso   1.000  O
  O33      1.0000 0.53640  0.63060  0.90780  Biso   1.000  O
  O34      1.0000 0.50420  0.02890  0.45610  Biso   1.000  O
  O35      1.0000 0.54900  0.03640  0.31470  Biso   1.000  O
  C97      1.0000 0.57240  0.82790  0.17940  Biso   1.000  C
  H61      1.0000 0.57180  0.84310  0.13290  Biso   1.000  H
  C98      1.0000 0.69730  0.26870  0.67890  Biso   1.000  C
  C99      1.0000 0.90010  0.39440  0.81790  Biso   1.000  C
  H62      1.0000 0.91770  0.40520  0.86460  Biso   1.000  H
  C100     1.0000 0.57290  0.78360  0.17870  Biso   1.000  C
  C101     1.0000 0.63940  0.19700  0.60440  Biso   1.000  C
  H63      1.0000 0.63440  0.17880  0.65000  Biso   1.000  H
  C102     1.0000 0.56650  0.75770  0.10460  Biso   1.000  C
  C103     1.0000 0.58490  0.72380  0.09440  Biso   1.000  C
  H64      1.0000 0.60380  0.72080  0.13360  Biso   1.000  H
  C104     1.0000 0.54100  0.76050  0.04730  Biso   1.000  C
  H65      1.0000 0.52930  0.78220  0.05270  Biso   1.000  H
  C105     1.0000 0.57430  0.69620  0.02620  Biso   1.000  C
  H66      1.0000 0.58590  0.67450  0.02020  Biso   1.000  H
  C106     1.0000 0.59290  0.17220  0.39910  Biso   1.000  C
  C107     1.0000 0.53090  0.66710  0.90260  Biso   1.000  C
  C108     1.0000 0.62200  0.19830  0.47160  Biso   1.000  C
  C109     1.0000 0.67860  0.27070  0.53810  Biso   1.000  C
  H67      1.0000 0.70100  0.30400  0.53720  Biso   1.000  H
  C110     1.0000 0.54810  0.70060  0.96980  Biso   1.000  C
  C111     1.0000 0.52990  0.73350  0.97810  Biso   1.000  C
  H68      1.0000 0.51120  0.73670  0.93880  Biso   1.000  H
  C112     1.0000 0.74590  0.30360  0.67760  Biso   1.000  C
  H69      1.0000 0.76250  0.31510  0.63030  Biso   1.000  H
  C113     1.0000 0.67100  0.24560  0.60670  Biso   1.000  C
  C114     1.0000 0.61440  0.17350  0.53850  Biso   1.000  C
  H70      1.0000 0.59200  0.14010  0.54000  Biso   1.000  H
  C115     1.0000 0.85040  0.36670  0.82150  Biso   1.000  C
  H71      1.0000 0.83420  0.35570  0.86920  Biso   1.000  H
  C116     1.0000 0.65430  0.24840  0.47060  Biso   1.000  C
  H72      1.0000 0.65930  0.26650  0.42480  Biso   1.000  H
  C117     1.0000 0.55100  0.90600  0.18500  Biso   1.000  C
  H73      1.0000 0.54110  0.88460  0.14250  Biso   1.000  H
  C118     1.0000 0.54500  0.94700  0.17800  Biso   1.000  C
  H74      1.0000 0.53180  0.95390  0.13420  Biso   1.000  H
  C119     1.0000 0.58100  0.92100  0.31100  Biso   1.000  C
  H75      1.0000 0.59490  0.91520  0.35450  Biso   1.000  H
  C120     1.0000 0.57100  0.96300  0.19000  Biso   1.000  C
  In6      1.0000 0.93206  0.43962  0.35208  Biso   1.000  In
  O36      1.0000 0.32400  0.83480  0.84570  Biso   1.000  O
  O37      1.0000 0.87320  0.44070  0.40470  Biso   1.000  O
  O38      1.0000 0.80290  0.39640  0.34160  Biso   1.000  O
  O39      1.0000 0.55030  0.55280  0.81620  Biso   1.000  O
  O40      1.0000 0.36940  0.90580  0.90780  Biso   1.000  O
  O41      1.0000 0.97110  0.47530  0.45610  Biso   1.000  O
  O42      1.0000 0.96360  0.51260  0.31470  Biso   1.000  O
  C121     1.0000 0.17210  0.74450  0.17940  Biso   1.000  C
  H76      1.0000 0.15690  0.72870  0.13290  Biso   1.000  H
  C122     1.0000 0.73130  0.42860  0.67890  Biso   1.000  C
  C123     1.0000 0.60560  0.50570  0.81790  Biso   1.000  C
  H77      1.0000 0.59480  0.51250  0.86460  Biso   1.000  H
  C124     1.0000 0.21640  0.78930  0.17870  Biso   1.000  C
  C125     1.0000 0.80300  0.44240  0.60440  Biso   1.000  C
  H78      1.0000 0.82120  0.45560  0.65000  Biso   1.000  H
  C126     1.0000 0.24230  0.80880  0.10460  Biso   1.000  C
  C127     1.0000 0.27620  0.86110  0.09440  Biso   1.000  C
  H79      1.0000 0.27920  0.88300  0.13360  Biso   1.000  H
  C128     1.0000 0.23950  0.78050  0.04730  Biso   1.000  C
  H80      1.0000 0.21780  0.74710  0.05270  Biso   1.000  H
  C129     1.0000 0.30380  0.87810  0.02620  Biso   1.000  C
  H81      1.0000 0.32550  0.91140  0.02020  Biso   1.000  H
  C130     1.0000 0.82780  0.42070  0.39910  Biso   1.000  C
  C131     1.0000 0.33290  0.86380  0.90260  Biso   1.000  C
  C132     1.0000 0.80170  0.42370  0.47160  Biso   1.000  C
  C133     1.0000 0.72930  0.40790  0.53810  Biso   1.000  C
  H82      1.0000 0.69600  0.39700  0.53720  Biso   1.000  H
  C134     1.0000 0.29940  0.84750  0.96980  Biso   1.000  C
  C135     1.0000 0.26650  0.79640  0.97810  Biso   1.000  C
  H83      1.0000 0.26330  0.77450  0.93880  Biso   1.000  H
  C136     1.0000 0.69640  0.44230  0.67760  Biso   1.000  C
  H84      1.0000 0.68490  0.44740  0.63030  Biso   1.000  H
  C137     1.0000 0.75440  0.42540  0.60670  Biso   1.000  C
  C138     1.0000 0.82650  0.44090  0.53850  Biso   1.000  C
  H85      1.0000 0.85990  0.45190  0.54000  Biso   1.000  H
  C139     1.0000 0.63330  0.48370  0.82150  Biso   1.000  C
  H86      1.0000 0.64430  0.47850  0.86920  Biso   1.000  H
  C140     1.0000 0.75160  0.40590  0.47060  Biso   1.000  C
  H87      1.0000 0.73350  0.39280  0.42480  Biso   1.000  H
  C141     1.0000 0.09400  0.64500  0.18500  Biso   1.000  C
  H88      1.0000 0.11540  0.65650  0.14250  Biso   1.000  H
  C142     1.0000 0.05300  0.59800  0.17800  Biso   1.000  C
  H89      1.0000 0.04610  0.57790  0.13420  Biso   1.000  H
  C143     1.0000 0.07900  0.66000  0.31100  Biso   1.000  C
  H90      1.0000 0.08480  0.67970  0.35450  Biso   1.000  H
  C144     1.0000 0.03700  0.60800  0.19000  Biso   1.000  C
  In7      1.0000 0.49244  0.56038  0.85208  Biso   1.000  In
  O43      1.0000 0.48920  0.16520  0.34570  Biso   1.000  O
  O44      1.0000 0.43250  0.55930  0.90470  Biso   1.000  O
  O45      1.0000 0.40650  0.60360  0.84160  Biso   1.000  O
  O46      1.0000 0.99750  0.44720  0.31620  Biso   1.000  O
  O47      1.0000 0.46360  0.09420  0.40780  Biso   1.000  O
  O48      1.0000 0.49580  0.52470  0.95610  Biso   1.000  O
  O49      1.0000 0.45100  0.48740  0.81470  Biso   1.000  O
  C145     1.0000 0.42760  0.25550  0.67940  Biso   1.000  C
  H91      1.0000 0.42820  0.27130  0.63290  Biso   1.000  H
  C146     1.0000 0.30270  0.57140  0.17890  Biso   1.000  C
  C147     1.0000 0.09990  0.49430  0.31790  Biso   1.000  C
  H92      1.0000 0.08230  0.48750  0.36460  Biso   1.000  H
  C148     1.0000 0.42710  0.21070  0.67870  Biso   1.000  C
  C149     1.0000 0.36060  0.55760  0.10440  Biso   1.000  C
  H93      1.0000 0.36560  0.54440  0.15000  Biso   1.000  H
  C150     1.0000 0.43350  0.19120  0.60460  Biso   1.000  C
  C151     1.0000 0.41510  0.13890  0.59440  Biso   1.000  C
  H94      1.0000 0.39620  0.11700  0.63360  Biso   1.000  H
  C152     1.0000 0.45900  0.21950  0.54730  Biso   1.000  C
  H95      1.0000 0.47070  0.25290  0.55270  Biso   1.000  H
  C153     1.0000 0.42570  0.12190  0.52620  Biso   1.000  C
  H96      1.0000 0.41410  0.08860  0.52020  Biso   1.000  H
  C154     1.0000 0.40710  0.57930  0.89910  Biso   1.000  C
  C155     1.0000 0.46910  0.13620  0.40260  Biso   1.000  C
  C156     1.0000 0.37800  0.57630  0.97160  Biso   1.000  C
  C157     1.0000 0.32140  0.59210  0.03810  Biso   1.000  C
  H97      1.0000 0.29900  0.60300  0.03720  Biso   1.000  H
  C158     1.0000 0.45190  0.15250  0.46980  Biso   1.000  C
  C159     1.0000 0.47010  0.20360  0.47810  Biso   1.000  C
  H98      1.0000 0.48880  0.22550  0.43880  Biso   1.000  H
  C160     1.0000 0.25410  0.55770  0.17760  Biso   1.000  C
  H99      1.0000 0.23750  0.55260  0.13030  Biso   1.000  H
  C161     1.0000 0.32900  0.57460  0.10670  Biso   1.000  C
  C162     1.0000 0.38560  0.55910  0.03850  Biso   1.000  C
  H100     1.0000 0.40800  0.54810  0.04000  Biso   1.000  H
  C163     1.0000 0.14960  0.51630  0.32150  Biso   1.000  C
  H101     1.0000 0.16580  0.52150  0.36920  Biso   1.000  H
  C164     1.0000 0.34570  0.59410  0.97060  Biso   1.000  C
  H102     1.0000 0.34070  0.60720  0.92480  Biso   1.000  H
  C165     1.0000 0.44900  0.35500  0.68500  Biso   1.000  C
  H103     1.0000 0.45890  0.34350  0.64250  Biso   1.000  H
  C166     1.0000 0.45500  0.40200  0.67800  Biso   1.000  C
  H104     1.0000 0.46820  0.42210  0.63420  Biso   1.000  H
  C167     1.0000 0.41900  0.34000  0.81100  Biso   1.000  C
  H105     1.0000 0.40510  0.32030  0.85450  Biso   1.000  H
  C168     1.0000 0.42900  0.39200  0.69000  Biso   1.000  C
  In8      1.0000 0.06794  0.50756  0.85208  Biso   1.000  In
  O50      1.0000 0.67600  0.51080  0.34570  Biso   1.000  O
  O51      1.0000 0.12680  0.56750  0.90470  Biso   1.000  O
  O52      1.0000 0.19710  0.59350  0.84160  Biso   1.000  O
  O53      1.0000 0.44970  0.00250  0.31620  Biso   1.000  O
  O54      1.0000 0.63060  0.53640  0.40780  Biso   1.000  O
  O55      1.0000 0.02890  0.50420  0.95610  Biso   1.000  O
  O56      1.0000 0.03640  0.54900  0.81470  Biso   1.000  O
  C169     1.0000 0.82790  0.57240  0.67940  Biso   1.000  C
  H106     1.0000 0.84310  0.57180  0.63290  Biso   1.000  H
  C170     1.0000 0.26870  0.69730  0.17890  Biso   1.000  C
  C171     1.0000 0.39440  0.90010  0.31790  Biso   1.000  C
  H107     1.0000 0.40520  0.91770  0.36460  Biso   1.000  H
  C172     1.0000 0.78360  0.57290  0.67870  Biso   1.000  C
  C173     1.0000 0.19700  0.63940  0.10440  Biso   1.000  C
  H108     1.0000 0.17880  0.63440  0.15000  Biso   1.000  H
  C174     1.0000 0.75770  0.56650  0.60460  Biso   1.000  C
  C175     1.0000 0.72380  0.58490  0.59440  Biso   1.000  C
  H109     1.0000 0.72080  0.60380  0.63360  Biso   1.000  H
  C176     1.0000 0.76050  0.54100  0.54730  Biso   1.000  C
  H110     1.0000 0.78220  0.52930  0.55270  Biso   1.000  H
  C177     1.0000 0.69620  0.57430  0.52620  Biso   1.000  C
  H111     1.0000 0.67450  0.58590  0.52020  Biso   1.000  H
  C178     1.0000 0.17220  0.59290  0.89910  Biso   1.000  C
  C179     1.0000 0.66710  0.53090  0.40260  Biso   1.000  C
  C180     1.0000 0.19830  0.62200  0.97160  Biso   1.000  C
  C181     1.0000 0.27070  0.67860  0.03810  Biso   1.000  C
  H112     1.0000 0.30400  0.70100  0.03720  Biso   1.000  H
  C182     1.0000 0.70060  0.54810  0.46980  Biso   1.000  C
  C183     1.0000 0.73350  0.52990  0.47810  Biso   1.000  C
  H113     1.0000 0.73670  0.51120  0.43880  Biso   1.000  H
  C184     1.0000 0.30360  0.74590  0.17760  Biso   1.000  C
  H114     1.0000 0.31510  0.76250  0.13030  Biso   1.000  H
  C185     1.0000 0.24560  0.67100  0.10670  Biso   1.000  C
  C186     1.0000 0.17350  0.61440  0.03850  Biso   1.000  C
  H115     1.0000 0.14010  0.59200  0.04000  Biso   1.000  H
  C187     1.0000 0.36670  0.85040  0.32150  Biso   1.000  C
  H116     1.0000 0.35570  0.83420  0.36920  Biso   1.000  H
  C188     1.0000 0.24840  0.65430  0.97060  Biso   1.000  C
  H117     1.0000 0.26650  0.65930  0.92480  Biso   1.000  H
  C189     1.0000 0.90600  0.55100  0.68500  Biso   1.000  C
  H118     1.0000 0.88460  0.54110  0.64250  Biso   1.000  H
  C190     1.0000 0.94700  0.54500  0.67800  Biso   1.000  C
  H119     1.0000 0.95390  0.53180  0.63420  Biso   1.000  H
  C191     1.0000 0.92100  0.58100  0.81100  Biso   1.000  C
  H120     1.0000 0.91520  0.59490  0.85450  Biso   1.000  H
  C192     1.0000 0.96300  0.57100  0.69000  Biso   1.000  C
  In9      1.0000 0.43962  0.93206  0.85208  Biso   1.000  In
  O57      1.0000 0.83480  0.32400  0.34570  Biso   1.000  O
  O58      1.0000 0.44070  0.87320  0.90470  Biso   1.000  O
  O59      1.0000 0.39640  0.80290  0.84160  Biso   1.000  O
  O60      1.0000 0.55280  0.55030  0.31620  Biso   1.000  O
  O61      1.0000 0.90580  0.36940  0.40780  Biso   1.000  O
  O62      1.0000 0.47530  0.97110  0.95610  Biso   1.000  O
  O63      1.0000 0.51260  0.96360  0.81470  Biso   1.000  O
  C193     1.0000 0.74450  0.17210  0.67940  Biso   1.000  C
  H121     1.0000 0.72870  0.15690  0.63290  Biso   1.000  H
  C194     1.0000 0.42860  0.73130  0.17890  Biso   1.000  C
  C195     1.0000 0.50570  0.60560  0.31790  Biso   1.000  C
  H122     1.0000 0.51250  0.59480  0.36460  Biso   1.000  H
  C196     1.0000 0.78930  0.21640  0.67870  Biso   1.000  C
  C197     1.0000 0.44240  0.80300  0.10440  Biso   1.000  C
  H123     1.0000 0.45560  0.82120  0.15000  Biso   1.000  H
  C198     1.0000 0.80880  0.24230  0.60460  Biso   1.000  C
  C199     1.0000 0.86110  0.27620  0.59440  Biso   1.000  C
  H124     1.0000 0.88300  0.27920  0.63360  Biso   1.000  H
  C200     1.0000 0.78050  0.23950  0.54730  Biso   1.000  C
  H125     1.0000 0.74710  0.21780  0.55270  Biso   1.000  H
  C201     1.0000 0.87810  0.30380  0.52620  Biso   1.000  C
  H126     1.0000 0.91140  0.32550  0.52020  Biso   1.000  H
  C202     1.0000 0.42070  0.82780  0.89910  Biso   1.000  C
  C203     1.0000 0.86380  0.33290  0.40260  Biso   1.000  C
  C204     1.0000 0.42370  0.80170  0.97160  Biso   1.000  C
  C205     1.0000 0.40790  0.72930  0.03810  Biso   1.000  C
  H127     1.0000 0.39700  0.69600  0.03720  Biso   1.000  H
  C206     1.0000 0.84750  0.29940  0.46980  Biso   1.000  C
  C207     1.0000 0.79640  0.26650  0.47810  Biso   1.000  C
  H128     1.0000 0.77450  0.26330  0.43880  Biso   1.000  H
  C208     1.0000 0.44230  0.69640  0.17760  Biso   1.000  C
  H129     1.0000 0.44740  0.68490  0.13030  Biso   1.000  H
  C209     1.0000 0.42540  0.75440  0.10670  Biso   1.000  C
  C210     1.0000 0.44090  0.82650  0.03850  Biso   1.000  C
  H130     1.0000 0.45190  0.85990  0.04000  Biso   1.000  H
  C211     1.0000 0.48370  0.63330  0.32150  Biso   1.000  C
  H131     1.0000 0.47850  0.64430  0.36920  Biso   1.000  H
  C212     1.0000 0.40590  0.75160  0.97060  Biso   1.000  C
  H132     1.0000 0.39280  0.73350  0.92480  Biso   1.000  H
  C213     1.0000 0.64500  0.09400  0.68500  Biso   1.000  C
  H133     1.0000 0.65650  0.11540  0.64250  Biso   1.000  H
  C214     1.0000 0.59800  0.05300  0.67800  Biso   1.000  C
  H134     1.0000 0.57790  0.04610  0.63420  Biso   1.000  H
  C215     1.0000 0.66000  0.07900  0.81100  Biso   1.000  C
  H135     1.0000 0.67970  0.08480  0.85450  Biso   1.000  H
  C216     1.0000 0.60800  0.03700  0.69000  Biso   1.000  C
  In10     1.0000 0.49244  0.56038  0.64792  Biso   1.000  In
  O64      1.0000 0.48920  0.16520  0.15430  Biso   1.000  O
  O65      1.0000 0.43250  0.55930  0.59530  Biso   1.000  O
  O66      1.0000 0.40650  0.60360  0.65840  Biso   1.000  O
  O67      1.0000 0.99750  0.44720  0.18380  Biso   1.000  O
  O68      1.0000 0.46360  0.09420  0.09220  Biso   1.000  O
  O69      1.0000 0.49580  0.52470  0.54390  Biso   1.000  O
  O70      1.0000 0.45100  0.48740  0.68530  Biso   1.000  O
  C217     1.0000 0.42760  0.25550  0.82060  Biso   1.000  C
  H136     1.0000 0.42820  0.27130  0.86710  Biso   1.000  H
  C218     1.0000 0.30270  0.57140  0.32110  Biso   1.000  C
  C219     1.0000 0.09990  0.49430  0.18210  Biso   1.000  C
  H137     1.0000 0.08230  0.48750  0.13540  Biso   1.000  H
  C220     1.0000 0.42710  0.21070  0.82130  Biso   1.000  C
  C221     1.0000 0.36060  0.55760  0.39560  Biso   1.000  C
  H138     1.0000 0.36560  0.54440  0.35000  Biso   1.000  H
  C222     1.0000 0.43350  0.19120  0.89540  Biso   1.000  C
  C223     1.0000 0.41510  0.13890  0.90560  Biso   1.000  C
  H139     1.0000 0.39620  0.11700  0.86640  Biso   1.000  H
  C224     1.0000 0.45900  0.21950  0.95270  Biso   1.000  C
  H140     1.0000 0.47070  0.25290  0.94730  Biso   1.000  H
  C225     1.0000 0.42570  0.12190  0.97380  Biso   1.000  C
  H141     1.0000 0.41410  0.08860  0.97980  Biso   1.000  H
  C226     1.0000 0.40710  0.57930  0.60090  Biso   1.000  C
  C227     1.0000 0.46910  0.13620  0.09740  Biso   1.000  C
  C228     1.0000 0.37800  0.57630  0.52840  Biso   1.000  C
  C229     1.0000 0.32140  0.59210  0.46190  Biso   1.000  C
  H142     1.0000 0.29900  0.60300  0.46280  Biso   1.000  H
  C230     1.0000 0.45190  0.15250  0.03020  Biso   1.000  C
  C231     1.0000 0.47010  0.20360  0.02190  Biso   1.000  C
  H143     1.0000 0.48880  0.22550  0.06120  Biso   1.000  H
  C232     1.0000 0.25410  0.55770  0.32240  Biso   1.000  C
  H144     1.0000 0.23750  0.55260  0.36970  Biso   1.000  H
  C233     1.0000 0.32900  0.57460  0.39330  Biso   1.000  C
  C234     1.0000 0.38560  0.55910  0.46150  Biso   1.000  C
  H145     1.0000 0.40800  0.54810  0.46000  Biso   1.000  H
  C235     1.0000 0.14960  0.51630  0.17850  Biso   1.000  C
  H146     1.0000 0.16580  0.52150  0.13080  Biso   1.000  H
  C236     1.0000 0.34570  0.59410  0.52940  Biso   1.000  C
  H147     1.0000 0.34070  0.60720  0.57520  Biso   1.000  H
  C237     1.0000 0.44900  0.35500  0.81500  Biso   1.000  C
  H148     1.0000 0.45890  0.34350  0.85750  Biso   1.000  H
  C238     1.0000 0.45500  0.40200  0.82200  Biso   1.000  C
  H149     1.0000 0.46820  0.42210  0.86580  Biso   1.000  H
  C239     1.0000 0.41900  0.34000  0.68900  Biso   1.000  C
  H150     1.0000 0.40510  0.32030  0.64550  Biso   1.000  H
  C240     1.0000 0.42900  0.39200  0.81000  Biso   1.000  C
  In11     1.0000 0.06794  0.50756  0.64792  Biso   1.000  In
  O71      1.0000 0.67600  0.51080  0.15430  Biso   1.000  O
  O72      1.0000 0.12680  0.56750  0.59530  Biso   1.000  O
  O73      1.0000 0.19710  0.59350  0.65840  Biso   1.000  O
  O74      1.0000 0.44970  0.00250  0.18380  Biso   1.000  O
  O75      1.0000 0.63060  0.53640  0.09220  Biso   1.000  O
  O76      1.0000 0.02890  0.50420  0.54390  Biso   1.000  O
  O77      1.0000 0.03640  0.54900  0.68530  Biso   1.000  O
  C241     1.0000 0.82790  0.57240  0.82060  Biso   1.000  C
  H151     1.0000 0.84310  0.57180  0.86710  Biso   1.000  H
  C242     1.0000 0.26870  0.69730  0.32110  Biso   1.000  C
  C243     1.0000 0.39440  0.90010  0.18210  Biso   1.000  C
  H152     1.0000 0.40520  0.91770  0.13540  Biso   1.000  H
  C244     1.0000 0.78360  0.57290  0.82130  Biso   1.000  C
  C245     1.0000 0.19700  0.63940  0.39560  Biso   1.000  C
  H153     1.0000 0.17880  0.63440  0.35000  Biso   1.000  H
  C246     1.0000 0.75770  0.56650  0.89540  Biso   1.000  C
  C247     1.0000 0.72380  0.58490  0.90560  Biso   1.000  C
  H154     1.0000 0.72080  0.60380  0.86640  Biso   1.000  H
  C248     1.0000 0.76050  0.54100  0.95270  Biso   1.000  C
  H155     1.0000 0.78220  0.52930  0.94730  Biso   1.000  H
  C249     1.0000 0.69620  0.57430  0.97380  Biso   1.000  C
  H156     1.0000 0.67450  0.58590  0.97980  Biso   1.000  H
  C250     1.0000 0.17220  0.59290  0.60090  Biso   1.000  C
  C251     1.0000 0.66710  0.53090  0.09740  Biso   1.000  C
  C252     1.0000 0.19830  0.62200  0.52840  Biso   1.000  C
  C253     1.0000 0.27070  0.67860  0.46190  Biso   1.000  C
  H157     1.0000 0.30400  0.70100  0.46280  Biso   1.000  H
  C254     1.0000 0.70060  0.54810  0.03020  Biso   1.000  C
  C255     1.0000 0.73350  0.52990  0.02190  Biso   1.000  C
  H158     1.0000 0.73670  0.51120  0.06120  Biso   1.000  H
  C256     1.0000 0.30360  0.74590  0.32240  Biso   1.000  C
  H159     1.0000 0.31510  0.76250  0.36970  Biso   1.000  H
  C257     1.0000 0.24560  0.67100  0.39330  Biso   1.000  C
  C258     1.0000 0.17350  0.61440  0.46150  Biso   1.000  C
  H160     1.0000 0.14010  0.59200  0.46000  Biso   1.000  H
  C259     1.0000 0.36670  0.85040  0.17850  Biso   1.000  C
  H161     1.0000 0.35570  0.83420  0.13080  Biso   1.000  H
  C260     1.0000 0.24840  0.65430  0.52940  Biso   1.000  C
  H162     1.0000 0.26650  0.65930  0.57520  Biso   1.000  H
  C261     1.0000 0.90600  0.55100  0.81500  Biso   1.000  C
  H163     1.0000 0.88460  0.54110  0.85750  Biso   1.000  H
  C262     1.0000 0.94700  0.54500  0.82200  Biso   1.000  C
  H164     1.0000 0.95390  0.53180  0.86580  Biso   1.000  H
  C263     1.0000 0.92100  0.58100  0.68900  Biso   1.000  C
  H165     1.0000 0.91520  0.59490  0.64550  Biso   1.000  H
  C264     1.0000 0.96300  0.57100  0.81000  Biso   1.000  C
  In12     1.0000 0.43962  0.93206  0.64792  Biso   1.000  In
  O78      1.0000 0.83480  0.32400  0.15430  Biso   1.000  O
  O79      1.0000 0.44070  0.87320  0.59530  Biso   1.000  O
  O80      1.0000 0.39640  0.80290  0.65840  Biso   1.000  O
  O81      1.0000 0.55280  0.55030  0.18380  Biso   1.000  O
  O82      1.0000 0.90580  0.36940  0.09220  Biso   1.000  O
  O83      1.0000 0.47530  0.97110  0.54390  Biso   1.000  O
  O84      1.0000 0.51260  0.96360  0.68530  Biso   1.000  O
  C265     1.0000 0.74450  0.17210  0.82060  Biso   1.000  C
  H166     1.0000 0.72870  0.15690  0.86710  Biso   1.000  H
  C266     1.0000 0.42860  0.73130  0.32110  Biso   1.000  C
  C267     1.0000 0.50570  0.60560  0.18210  Biso   1.000  C
  H167     1.0000 0.51250  0.59480  0.13540  Biso   1.000  H
  C268     1.0000 0.78930  0.21640  0.82130  Biso   1.000  C
  C269     1.0000 0.44240  0.80300  0.39560  Biso   1.000  C
  H168     1.0000 0.45560  0.82120  0.35000  Biso   1.000  H
  C270     1.0000 0.80880  0.24230  0.89540  Biso   1.000  C
  C271     1.0000 0.86110  0.27620  0.90560  Biso   1.000  C
  H169     1.0000 0.88300  0.27920  0.86640  Biso   1.000  H
  C272     1.0000 0.78050  0.23950  0.95270  Biso   1.000  C
  H170     1.0000 0.74710  0.21780  0.94730  Biso   1.000  H
  C273     1.0000 0.87810  0.30380  0.97380  Biso   1.000  C
  H171     1.0000 0.91140  0.32550  0.97980  Biso   1.000  H
  C274     1.0000 0.42070  0.82780  0.60090  Biso   1.000  C
  C275     1.0000 0.86380  0.33290  0.09740  Biso   1.000  C
  C276     1.0000 0.42370  0.80170  0.52840  Biso   1.000  C
  C277     1.0000 0.40790  0.72930  0.46190  Biso   1.000  C
  H172     1.0000 0.39700  0.69600  0.46280  Biso   1.000  H
  C278     1.0000 0.84750  0.29940  0.03020  Biso   1.000  C
  C279     1.0000 0.79640  0.26650  0.02190  Biso   1.000  C
  H173     1.0000 0.77450  0.26330  0.06120  Biso   1.000  H
  C280     1.0000 0.44230  0.69640  0.32240  Biso   1.000  C
  H174     1.0000 0.44740  0.68490  0.36970  Biso   1.000  H
  C281     1.0000 0.42540  0.75440  0.39330  Biso   1.000  C
  C282     1.0000 0.44090  0.82650  0.46150  Biso   1.000  C
  H175     1.0000 0.45190  0.85990  0.46000  Biso   1.000  H
  C283     1.0000 0.48370  0.63330  0.17850  Biso   1.000  C
  H176     1.0000 0.47850  0.64430  0.13080  Biso   1.000  H
  C284     1.0000 0.40590  0.75160  0.52940  Biso   1.000  C
  H177     1.0000 0.39280  0.73350  0.57520  Biso   1.000  H
  C285     1.0000 0.64500  0.09400  0.81500  Biso   1.000  C
  H178     1.0000 0.65650  0.11540  0.85750  Biso   1.000  H
  C286     1.0000 0.59800  0.05300  0.82200  Biso   1.000  C
  H179     1.0000 0.57790  0.04610  0.86580  Biso   1.000  H
  C287     1.0000 0.66000  0.07900  0.68900  Biso   1.000  C
  H180     1.0000 0.67970  0.08480  0.64550  Biso   1.000  H
  C288     1.0000 0.60800  0.03700  0.81000  Biso   1.000  C
  In13     1.0000 0.63708  0.46141  0.25000  Biso   1.000  In
  O85      1.0000 0.58920  0.48470  0.25000  Biso   1.000  O
  C289     1.0000 0.27450  0.42720  0.25000  Biso   1.000  C
  C290     1.0000 0.32530  0.43040  0.25000  Biso   1.000  C
  C291     1.0000 0.18840  0.42710  0.25000  Biso   1.000  C
  H181     1.0000 0.15890  0.42700  0.25000  Biso   1.000  H
  C292     1.0000 0.46920  0.44830  0.25000  Biso   1.000  C
  C293     1.0000 0.41450  0.43690  0.25000  Biso   1.000  C
  In14     1.0000 0.53859  0.17567  0.25000  Biso   1.000  In
  O86      1.0000 0.51530  0.10450  0.25000  Biso   1.000  O
  C294     1.0000 0.57280  0.84730  0.25000  Biso   1.000  C
  C295     1.0000 0.56960  0.89490  0.25000  Biso   1.000  C
  C296     1.0000 0.57290  0.76130  0.25000  Biso   1.000  C
  H182     1.0000 0.57300  0.73190  0.25000  Biso   1.000  H
  C297     1.0000 0.55170  0.02090  0.25000  Biso   1.000  C
  C298     1.0000 0.56310  0.97760  0.25000  Biso   1.000  C
  In15     1.0000 0.82433  0.36292  0.25000  Biso   1.000  In
  O87      1.0000 0.89550  0.41080  0.25000  Biso   1.000  O
  C299     1.0000 0.15270  0.72550  0.25000  Biso   1.000  C
  C300     1.0000 0.10510  0.67470  0.25000  Biso   1.000  C
  C301     1.0000 0.23870  0.81160  0.25000  Biso   1.000  C
  H183     1.0000 0.26810  0.84110  0.25000  Biso   1.000  H
  C302     1.0000 0.97910  0.53080  0.25000  Biso   1.000  C
  C303     1.0000 0.02240  0.58550  0.25000  Biso   1.000  C
  In16     1.0000 0.46141  0.63708  0.75000  Biso   1.000  In
  O88      1.0000 0.48470  0.58920  0.75000  Biso   1.000  O
  C304     1.0000 0.42720  0.27450  0.75000  Biso   1.000  C
  C305     1.0000 0.43040  0.32530  0.75000  Biso   1.000  C
  C306     1.0000 0.42710  0.18840  0.75000  Biso   1.000  C
  H184     1.0000 0.42700  0.15890  0.75000  Biso   1.000  H
  C307     1.0000 0.44830  0.46920  0.75000  Biso   1.000  C
  C308     1.0000 0.43690  0.41450  0.75000  Biso   1.000  C
  In17     1.0000 0.17567  0.53859  0.75000  Biso   1.000  In
  O89      1.0000 0.10450  0.51530  0.75000  Biso   1.000  O
  C309     1.0000 0.84730  0.57280  0.75000  Biso   1.000  C
  C310     1.0000 0.89490  0.56960  0.75000  Biso   1.000  C
  C311     1.0000 0.76130  0.57290  0.75000  Biso   1.000  C
  H185     1.0000 0.73190  0.57300  0.75000  Biso   1.000  H
  C312     1.0000 0.02090  0.55170  0.75000  Biso   1.000  C
  C313     1.0000 0.97760  0.56310  0.75000  Biso   1.000  C
  In18     1.0000 0.36292  0.82433  0.75000  Biso   1.000  In
  O90      1.0000 0.41080  0.89550  0.75000  Biso   1.000  O
  C314     1.0000 0.72550  0.15270  0.75000  Biso   1.000  C
  C315     1.0000 0.67470  0.10510  0.75000  Biso   1.000  C
  C316     1.0000 0.81160  0.23870  0.75000  Biso   1.000  C
  H186     1.0000 0.84110  0.26810  0.75000  Biso   1.000  H
  C317     1.0000 0.53080  0.97910  0.75000  Biso   1.000  C
  C318     1.0000 0.58550  0.02240  0.75000  Biso   1.000  C
  C319     1.0000 0.57670  0.32500  0.75000  Biso   1.000  C
  H187     1.0000 0.58450  0.35760  0.75000  Biso   1.000  H
  C320     1.0000 0.55140  0.23020  0.75000  Biso   1.000  C
  C321     1.0000 0.53080  0.17540  0.75000  Biso   1.000  C
  C322     1.0000 0.48210  0.07530  0.75000  Biso   1.000  C
  C323     1.0000 0.45230  0.01730  0.75000  Biso   1.000  C
  C324     1.0000 0.67500  0.25170  0.75000  Biso   1.000  C
  H188     1.0000 0.64240  0.22690  0.75000  Biso   1.000  H
  C325     1.0000 0.76980  0.32120  0.75000  Biso   1.000  C
  C326     1.0000 0.82460  0.35540  0.75000  Biso   1.000  C
  C327     1.0000 0.92470  0.40680  0.75000  Biso   1.000  C
  C328     1.0000 0.98270  0.43500  0.75000  Biso   1.000  C
  C329     1.0000 0.74830  0.42330  0.75000  Biso   1.000  C
  H189     1.0000 0.77310  0.41550  0.75000  Biso   1.000  H
  C330     1.0000 0.67880  0.44860  0.75000  Biso   1.000  C
  C331     1.0000 0.64460  0.46920  0.75000  Biso   1.000  C
  C332     1.0000 0.59320  0.51790  0.75000  Biso   1.000  C
  C333     1.0000 0.56500  0.54770  0.75000  Biso   1.000  C
  C334     1.0000 0.32500  0.57670  0.25000  Biso   1.000  C
  H190     1.0000 0.35760  0.58450  0.25000  Biso   1.000  H
  C335     1.0000 0.23020  0.55140  0.25000  Biso   1.000  C
  C336     1.0000 0.17540  0.53080  0.25000  Biso   1.000  C
  C337     1.0000 0.07530  0.48210  0.25000  Biso   1.000  C
  C338     1.0000 0.01730  0.45230  0.25000  Biso   1.000  C
  C339     1.0000 0.25170  0.67500  0.25000  Biso   1.000  C
  H191     1.0000 0.22690  0.64240  0.25000  Biso   1.000  H
  C340     1.0000 0.32120  0.76980  0.25000  Biso   1.000  C
  C341     1.0000 0.35540  0.82460  0.25000  Biso   1.000  C
  C342     1.0000 0.40680  0.92470  0.25000  Biso   1.000  C
  C343     1.0000 0.43500  0.98270  0.25000  Biso   1.000  C
  C344     1.0000 0.42330  0.74830  0.25000  Biso   1.000  C
  H192     1.0000 0.41550  0.77310  0.25000  Biso   1.000  H
  C345     1.0000 0.44860  0.67880  0.25000  Biso   1.000  C
  C346     1.0000 0.46920  0.64460  0.25000  Biso   1.000  C
  C347     1.0000 0.51790  0.59320  0.25000  Biso   1.000  C
  C348     1.0000 0.54770  0.56500  0.25000  Biso   1.000  C
  C349     1.0000 0.53360  0.53360  0.00000  Biso   1.000  C
  H193     1.0000 0.56300  0.56300  0.00000  Biso   1.000  H
  C350     1.0000 0.46640  0.00000  0.00000  Biso   1.000  C
  H194     1.0000 0.43700  0.00000  0.00000  Biso   1.000  H
  C351     1.0000 0.00000  0.46640  0.00000  Biso   1.000  C
  H195     1.0000 0.00000  0.43700  0.00000  Biso   1.000  H
  C352     1.0000 0.53360  0.53360  0.50000  Biso   1.000  C
  H196     1.0000 0.56300  0.56300  0.50000  Biso   1.000  H
  C353     1.0000 0.46640  0.00000  0.50000  Biso   1.000  C
  H197     1.0000 0.43700  0.00000  0.50000  Biso   1.000  H
  C354     1.0000 0.00000  0.46640  0.50000  Biso   1.000  C
  H198     1.0000 0.00000  0.43700  0.50000  Biso   1.000  H
