data_image0
_cell_length_a       34.44
_cell_length_b       14.9178
_cell_length_c       29.894
_cell_angle_alpha    90
_cell_angle_beta     99.307
_cell_angle_gamma    90

_symmetry_space_group_name_H-M    "P 1"
_symmetry_int_tables_number       1

loop_
  _symmetry_equiv_pos_as_xyz
  'x, y, z'

loop_
  _atom_site_label
  _atom_site_occupancy
  _atom_site_fract_x
  _atom_site_fract_y
  _atom_site_fract_z
  _atom_site_thermal_displace_type
  _atom_site_B_iso_or_equiv
  _atom_site_type_symbol
  C1       1.0000 0.30690  0.57740  0.36480  Biso   1.000  C
  H1       1.0000 0.31280  0.63840  0.35970  Biso   1.000  H
  C2       1.0000 0.27810  0.53580  0.33600  Biso   1.000  C
  H2       1.0000 0.26400  0.56840  0.31130  Biso   1.000  H
  C3       1.0000 0.26900  0.44840  0.34170  Biso   1.000  C
  C4       1.0000 0.28980  0.40280  0.37800  Biso   1.000  C
  H3       1.0000 0.28430  0.34180  0.38370  Biso   1.000  H
  C5       1.0000 0.31880  0.44890  0.40560  Biso   1.000  C
  H4       1.0000 0.33370  0.41710  0.43000  Biso   1.000  H
  C6       1.0000 0.23790  0.40400  0.30980  Biso   1.000  C
  C7       1.0000 0.18870  0.41490  0.24970  Biso   1.000  C
  C8       1.0000 0.20260  0.28300  0.28430  Biso   1.000  C
  C9       1.0000 0.21260  0.03400  0.30570  Biso   1.000  C
  H5       1.0000 0.22970  0.99380  0.32410  Biso   1.000  H
  C10      1.0000 0.22030  0.12560  0.31100  Biso   1.000  C
  H6       1.0000 0.24220  0.14620  0.33180  Biso   1.000  H
  C11      1.0000 0.19560  0.18550  0.28550  Biso   1.000  C
  C12      1.0000 0.16390  0.14720  0.25560  Biso   1.000  C
  H7       1.0000 0.14560  0.18510  0.23730  Biso   1.000  H
  C13      1.0000 0.15910  0.05630  0.25260  Biso   1.000  C
  H8       1.0000 0.13760  0.03230  0.23220  Biso   1.000  H
  C14      1.0000 0.14810  0.60010  0.17060  Biso   1.000  C
  H9       1.0000 0.15300  0.66170  0.16580  Biso   1.000  H
  C15      1.0000 0.17110  0.55590  0.20650  Biso   1.000  C
  H10      1.0000 0.19050  0.58740  0.22680  Biso   1.000  H
  C16      1.0000 0.16530  0.46750  0.21180  Biso   1.000  C
  C17      1.0000 0.13710  0.42600  0.18310  Biso   1.000  C
  H11      1.0000 0.13190  0.36410  0.18700  Biso   1.000  H
  C18      1.0000 0.11530  0.47350  0.14780  Biso   1.000  C
  H12      1.0000 0.09660  0.44260  0.12640  Biso   1.000  H
  N1       1.0000 0.32740  0.53320  0.40080  Biso   1.000  N
  N2       1.0000 0.21820  0.45590  0.27680  Biso   1.000  N
  N3       1.0000 0.17930  0.32830  0.25220  Biso   1.000  N
  N4       1.0000 0.23130  0.31720  0.31450  Biso   1.000  N
  N5       1.0000 0.18420  0.00000  0.27790  Biso   1.000  N
  N6       1.0000 0.11990  0.55960  0.14320  Biso   1.000  N
  C19      1.0000 0.43030  0.46760  0.48940  Biso   1.000  C
  H13      1.0000 0.41940  0.47450  0.51640  Biso   1.000  H
  C20      1.0000 0.46340  0.40970  0.48920  Biso   1.000  C
  H14      1.0000 0.47450  0.37910  0.51610  Biso   1.000  H
  C21      1.0000 0.47800  0.39900  0.45260  Biso   1.000  C
  C22      1.0000 0.46070  0.44440  0.41510  Biso   1.000  C
  H15      1.0000 0.47120  0.43840  0.38780  Biso   1.000  H
  C23      1.0000 0.42960  0.49670  0.41560  Biso   1.000  C
  H16      1.0000 0.41780  0.52400  0.38800  Biso   1.000  H
  C24      1.0000 0.51210  0.34090  0.45150  Biso   1.000  C
  C25      1.0000 0.54540  0.21360  0.47220  Biso   1.000  C
  C26      1.0000 0.56380  0.30000  0.41780  Biso   1.000  C
  C27      1.0000 0.53280  0.02930  0.55330  Biso   1.000  C
  H17      1.0000 0.51500  0.01350  0.57320  Biso   1.000  H
  C28      1.0000 0.52590  0.10620  0.52790  Biso   1.000  C
  H18      1.0000 0.50360  0.14230  0.53020  Biso   1.000  H
  C29      1.0000 0.55080  0.12980  0.49970  Biso   1.000  C
  C30      1.0000 0.58230  0.07660  0.49820  Biso   1.000  C
  H19      1.0000 0.60120  0.09230  0.47960  Biso   1.000  H
  C31      1.0000 0.58690  0.99870  0.52410  Biso   1.000  C
  H20      1.0000 0.60850  0.96070  0.52130  Biso   1.000  H
  C32      1.0000 0.64380  0.27990  0.35030  Biso   1.000  C
  H21      1.0000 0.66570  0.24150  0.34910  Biso   1.000  H
  C33      1.0000 0.62080  0.26240  0.38440  Biso   1.000  C
  H22      1.0000 0.62770  0.21620  0.40620  Biso   1.000  H
  C34      1.0000 0.58860  0.31440  0.38490  Biso   1.000  C
  C35      1.0000 0.58570  0.38630  0.35220  Biso   1.000  C
  H23      1.0000 0.56530  0.42880  0.35300  Biso   1.000  H
  C36      1.0000 0.60770  0.39850  0.32240  Biso   1.000  C
  H24      1.0000 0.60240  0.44700  0.30170  Biso   1.000  H
  N7       1.0000 0.41470  0.51200  0.45220  Biso   1.000  N
  N8       1.0000 0.51610  0.26860  0.47950  Biso   1.000  N
  N9       1.0000 0.57070  0.22460  0.44140  Biso   1.000  N
  N10      1.0000 0.53560  0.35700  0.42030  Biso   1.000  N
  N11      1.0000 0.56390  0.97540  0.55120  Biso   1.000  N
  N12      1.0000 0.63770  0.34490  0.31980  Biso   1.000  N
  Zn1      1.0000 0.35855  0.58940  0.46370  Biso   1.000  Zn
  Zn2      1.0000 0.17160  0.86330  0.26830  Biso   1.000  Zn
  Zn3      1.0000 0.08051  0.62977  0.09563  Biso   1.000  Zn
  I1       1.0000 0.33247  0.55990  0.53530  Biso   1.000  I
  I2       1.0000 0.23406  0.76910  0.28890  Biso   1.000  I
  I3       1.0000 0.12737  0.84909  0.19295  Biso   1.000  I
  I4       1.0000 0.11955  0.73890  0.05211  Biso   1.000  I
  I5       1.0000 0.02285  0.66358  0.13581  Biso   1.000  I
  I6       1.0000 0.37660  0.74220  0.42830  Biso   1.000  I
  Zn4      1.0000 0.37422  0.60100  0.43833  Biso   1.000  Zn
  Zn5      1.0000 0.17810  0.86740  0.28050  Biso   1.000  Zn
  I7       1.0000 0.34841  0.60680  0.51220  Biso   1.000  I
  I8       1.0000 0.36260  0.73750  0.45360  Biso   1.000  I
  I9       1.0000 0.23350  0.78120  0.30740  Biso   1.000  I
  I10      1.0000 0.25240  0.79330  0.33170  Biso   1.000  I
  I11      1.0000 0.14470  0.83200  0.20400  Biso   1.000  I
  I12      1.0000 0.16860  0.80600  0.21510  Biso   1.000  I
  I13      1.0000 0.11060  0.74110  0.06520  Biso   1.000  I
  I14      1.0000 0.02590  0.66350  0.13690  Biso   1.000  I
  I15      1.0000 0.39592  0.73756  0.39816  Biso   1.000  I
  C37      1.0000 0.80690  0.07740  0.36480  Biso   1.000  C
  H25      1.0000 0.81280  0.13840  0.35970  Biso   1.000  H
  C38      1.0000 0.77810  0.03580  0.33600  Biso   1.000  C
  H26      1.0000 0.76400  0.06840  0.31130  Biso   1.000  H
  C39      1.0000 0.76900  0.94840  0.34170  Biso   1.000  C
  C40      1.0000 0.78980  0.90280  0.37800  Biso   1.000  C
  H27      1.0000 0.78430  0.84180  0.38370  Biso   1.000  H
  C41      1.0000 0.81880  0.94890  0.40560  Biso   1.000  C
  H28      1.0000 0.83370  0.91710  0.43000  Biso   1.000  H
  C42      1.0000 0.73790  0.90400  0.30980  Biso   1.000  C
  C43      1.0000 0.68870  0.91490  0.24970  Biso   1.000  C
  C44      1.0000 0.70260  0.78300  0.28430  Biso   1.000  C
  C45      1.0000 0.71260  0.53400  0.30570  Biso   1.000  C
  H29      1.0000 0.72970  0.49380  0.32410  Biso   1.000  H
  C46      1.0000 0.72030  0.62560  0.31100  Biso   1.000  C
  H30      1.0000 0.74220  0.64620  0.33180  Biso   1.000  H
  C47      1.0000 0.69560  0.68550  0.28550  Biso   1.000  C
  C48      1.0000 0.66390  0.64720  0.25560  Biso   1.000  C
  H31      1.0000 0.64560  0.68510  0.23730  Biso   1.000  H
  C49      1.0000 0.65910  0.55630  0.25260  Biso   1.000  C
  H32      1.0000 0.63760  0.53230  0.23220  Biso   1.000  H
  C50      1.0000 0.64810  0.10010  0.17060  Biso   1.000  C
  H33      1.0000 0.65300  0.16170  0.16580  Biso   1.000  H
  C51      1.0000 0.67110  0.05590  0.20650  Biso   1.000  C
  H34      1.0000 0.69050  0.08740  0.22680  Biso   1.000  H
  C52      1.0000 0.66530  0.96750  0.21180  Biso   1.000  C
  C53      1.0000 0.63710  0.92600  0.18310  Biso   1.000  C
  H35      1.0000 0.63190  0.86410  0.18700  Biso   1.000  H
  C54      1.0000 0.61530  0.97350  0.14780  Biso   1.000  C
  H36      1.0000 0.59660  0.94260  0.12640  Biso   1.000  H
  N13      1.0000 0.82740  0.03320  0.40080  Biso   1.000  N
  N14      1.0000 0.71820  0.95590  0.27680  Biso   1.000  N
  N15      1.0000 0.67930  0.82830  0.25220  Biso   1.000  N
  N16      1.0000 0.73130  0.81720  0.31450  Biso   1.000  N
  N17      1.0000 0.68420  0.50000  0.27790  Biso   1.000  N
  N18      1.0000 0.61990  0.05960  0.14320  Biso   1.000  N
  C55      1.0000 0.93030  0.96760  0.48940  Biso   1.000  C
  H37      1.0000 0.91940  0.97450  0.51640  Biso   1.000  H
  C56      1.0000 0.96340  0.90970  0.48920  Biso   1.000  C
  H38      1.0000 0.97450  0.87910  0.51610  Biso   1.000  H
  C57      1.0000 0.97800  0.89900  0.45260  Biso   1.000  C
  C58      1.0000 0.96070  0.94440  0.41510  Biso   1.000  C
  H39      1.0000 0.97120  0.93840  0.38780  Biso   1.000  H
  C59      1.0000 0.92960  0.99670  0.41560  Biso   1.000  C
  H40      1.0000 0.91780  0.02400  0.38800  Biso   1.000  H
  C60      1.0000 0.01210  0.84090  0.45150  Biso   1.000  C
  C61      1.0000 0.04540  0.71360  0.47220  Biso   1.000  C
  C62      1.0000 0.06380  0.80000  0.41780  Biso   1.000  C
  C63      1.0000 0.03280  0.52930  0.55330  Biso   1.000  C
  H41      1.0000 0.01500  0.51350  0.57320  Biso   1.000  H
  C64      1.0000 0.02590  0.60620  0.52790  Biso   1.000  C
  H42      1.0000 0.00360  0.64230  0.53020  Biso   1.000  H
  C65      1.0000 0.05080  0.62980  0.49970  Biso   1.000  C
  C66      1.0000 0.08230  0.57660  0.49820  Biso   1.000  C
  H43      1.0000 0.10120  0.59230  0.47960  Biso   1.000  H
  C67      1.0000 0.08690  0.49870  0.52410  Biso   1.000  C
  H44      1.0000 0.10850  0.46070  0.52130  Biso   1.000  H
  C68      1.0000 0.14380  0.77990  0.35030  Biso   1.000  C
  H45      1.0000 0.16570  0.74150  0.34910  Biso   1.000  H
  C69      1.0000 0.12080  0.76240  0.38440  Biso   1.000  C
  H46      1.0000 0.12770  0.71620  0.40620  Biso   1.000  H
  C70      1.0000 0.08860  0.81440  0.38490  Biso   1.000  C
  C71      1.0000 0.08570  0.88630  0.35220  Biso   1.000  C
  H47      1.0000 0.06530  0.92880  0.35300  Biso   1.000  H
  C72      1.0000 0.10770  0.89850  0.32240  Biso   1.000  C
  H48      1.0000 0.10240  0.94700  0.30170  Biso   1.000  H
  N19      1.0000 0.91470  0.01200  0.45220  Biso   1.000  N
  N20      1.0000 0.01610  0.76860  0.47950  Biso   1.000  N
  N21      1.0000 0.07070  0.72460  0.44140  Biso   1.000  N
  N22      1.0000 0.03560  0.85700  0.42030  Biso   1.000  N
  N23      1.0000 0.06390  0.47540  0.55120  Biso   1.000  N
  N24      1.0000 0.13770  0.84490  0.31980  Biso   1.000  N
  Zn6      1.0000 0.85855  0.08940  0.46370  Biso   1.000  Zn
  Zn7      1.0000 0.67160  0.36330  0.26830  Biso   1.000  Zn
  Zn8      1.0000 0.58051  0.12977  0.09563  Biso   1.000  Zn
  I16      1.0000 0.83247  0.05990  0.53530  Biso   1.000  I
  I17      1.0000 0.73406  0.26910  0.28890  Biso   1.000  I
  I18      1.0000 0.62737  0.34909  0.19295  Biso   1.000  I
  I19      1.0000 0.61955  0.23890  0.05211  Biso   1.000  I
  I20      1.0000 0.52285  0.16358  0.13581  Biso   1.000  I
  I21      1.0000 0.87660  0.24220  0.42830  Biso   1.000  I
  Zn9      1.0000 0.87422  0.10100  0.43833  Biso   1.000  Zn
  Zn10     1.0000 0.67810  0.36740  0.28050  Biso   1.000  Zn
  I22      1.0000 0.84841  0.10680  0.51220  Biso   1.000  I
  I23      1.0000 0.86260  0.23750  0.45360  Biso   1.000  I
  I24      1.0000 0.73350  0.28120  0.30740  Biso   1.000  I
  I25      1.0000 0.75240  0.29330  0.33170  Biso   1.000  I
  I26      1.0000 0.64470  0.33200  0.20400  Biso   1.000  I
  I27      1.0000 0.66860  0.30600  0.21510  Biso   1.000  I
  I28      1.0000 0.61060  0.24110  0.06520  Biso   1.000  I
  I29      1.0000 0.52590  0.16350  0.13690  Biso   1.000  I
  I30      1.0000 0.89592  0.23756  0.39816  Biso   1.000  I
  C73      1.0000 0.30690  0.42260  0.86480  Biso   1.000  C
  H49      1.0000 0.31280  0.36160  0.85970  Biso   1.000  H
  C74      1.0000 0.27810  0.46420  0.83600  Biso   1.000  C
  H50      1.0000 0.26400  0.43160  0.81130  Biso   1.000  H
  C75      1.0000 0.26900  0.55160  0.84170  Biso   1.000  C
  C76      1.0000 0.28980  0.59720  0.87800  Biso   1.000  C
  H51      1.0000 0.28430  0.65820  0.88370  Biso   1.000  H
  C77      1.0000 0.31880  0.55110  0.90560  Biso   1.000  C
  H52      1.0000 0.33370  0.58290  0.93000  Biso   1.000  H
  C78      1.0000 0.23790  0.59600  0.80980  Biso   1.000  C
  C79      1.0000 0.18870  0.58510  0.74970  Biso   1.000  C
  C80      1.0000 0.20260  0.71700  0.78430  Biso   1.000  C
  C81      1.0000 0.21260  0.96600  0.80570  Biso   1.000  C
  H53      1.0000 0.22970  0.00620  0.82410  Biso   1.000  H
  C82      1.0000 0.22030  0.87440  0.81100  Biso   1.000  C
  H54      1.0000 0.24220  0.85380  0.83180  Biso   1.000  H
  C83      1.0000 0.19560  0.81450  0.78550  Biso   1.000  C
  C84      1.0000 0.16390  0.85280  0.75560  Biso   1.000  C
  H55      1.0000 0.14560  0.81490  0.73730  Biso   1.000  H
  C85      1.0000 0.15910  0.94370  0.75260  Biso   1.000  C
  H56      1.0000 0.13760  0.96770  0.73220  Biso   1.000  H
  C86      1.0000 0.14810  0.39990  0.67060  Biso   1.000  C
  H57      1.0000 0.15300  0.33830  0.66580  Biso   1.000  H
  C87      1.0000 0.17110  0.44410  0.70650  Biso   1.000  C
  H58      1.0000 0.19050  0.41260  0.72680  Biso   1.000  H
  C88      1.0000 0.16530  0.53250  0.71180  Biso   1.000  C
  C89      1.0000 0.13710  0.57400  0.68310  Biso   1.000  C
  H59      1.0000 0.13190  0.63590  0.68700  Biso   1.000  H
  C90      1.0000 0.11530  0.52650  0.64780  Biso   1.000  C
  H60      1.0000 0.09660  0.55740  0.62640  Biso   1.000  H
  N25      1.0000 0.32740  0.46680  0.90080  Biso   1.000  N
  N26      1.0000 0.21820  0.54410  0.77680  Biso   1.000  N
  N27      1.0000 0.17930  0.67170  0.75220  Biso   1.000  N
  N28      1.0000 0.23130  0.68280  0.81450  Biso   1.000  N
  N29      1.0000 0.18420  0.00000  0.77790  Biso   1.000  N
  N30      1.0000 0.11990  0.44040  0.64320  Biso   1.000  N
  C91      1.0000 0.43030  0.53240  0.98940  Biso   1.000  C
  H61      1.0000 0.41940  0.52550  0.01640  Biso   1.000  H
  C92      1.0000 0.46340  0.59030  0.98920  Biso   1.000  C
  H62      1.0000 0.47450  0.62090  0.01610  Biso   1.000  H
  C93      1.0000 0.47800  0.60100  0.95260  Biso   1.000  C
  C94      1.0000 0.46070  0.55560  0.91510  Biso   1.000  C
  H63      1.0000 0.47120  0.56160  0.88780  Biso   1.000  H
  C95      1.0000 0.42960  0.50330  0.91560  Biso   1.000  C
  H64      1.0000 0.41780  0.47600  0.88800  Biso   1.000  H
  C96      1.0000 0.51210  0.65910  0.95150  Biso   1.000  C
  C97      1.0000 0.54540  0.78640  0.97220  Biso   1.000  C
  C98      1.0000 0.56380  0.70000  0.91780  Biso   1.000  C
  C99      1.0000 0.53280  0.97070  0.05330  Biso   1.000  C
  H65      1.0000 0.51500  0.98650  0.07320  Biso   1.000  H
  C100     1.0000 0.52590  0.89380  0.02790  Biso   1.000  C
  H66      1.0000 0.50360  0.85770  0.03020  Biso   1.000  H
  C101     1.0000 0.55080  0.87020  0.99970  Biso   1.000  C
  C102     1.0000 0.58230  0.92340  0.99820  Biso   1.000  C
  H67      1.0000 0.60120  0.90770  0.97960  Biso   1.000  H
  C103     1.0000 0.58690  0.00130  0.02410  Biso   1.000  C
  H68      1.0000 0.60850  0.03930  0.02130  Biso   1.000  H
  C104     1.0000 0.64380  0.72010  0.85030  Biso   1.000  C
  H69      1.0000 0.66570  0.75850  0.84910  Biso   1.000  H
  C105     1.0000 0.62080  0.73760  0.88440  Biso   1.000  C
  H70      1.0000 0.62770  0.78380  0.90620  Biso   1.000  H
  C106     1.0000 0.58860  0.68560  0.88490  Biso   1.000  C
  C107     1.0000 0.58570  0.61370  0.85220  Biso   1.000  C
  H71      1.0000 0.56530  0.57120  0.85300  Biso   1.000  H
  C108     1.0000 0.60770  0.60150  0.82240  Biso   1.000  C
  H72      1.0000 0.60240  0.55300  0.80170  Biso   1.000  H
  N31      1.0000 0.41470  0.48800  0.95220  Biso   1.000  N
  N32      1.0000 0.51610  0.73140  0.97950  Biso   1.000  N
  N33      1.0000 0.57070  0.77540  0.94140  Biso   1.000  N
  N34      1.0000 0.53560  0.64300  0.92030  Biso   1.000  N
  N35      1.0000 0.56390  0.02460  0.05120  Biso   1.000  N
  N36      1.0000 0.63770  0.65510  0.81980  Biso   1.000  N
  Zn11     1.0000 0.35855  0.41060  0.96370  Biso   1.000  Zn
  Zn12     1.0000 0.17160  0.13670  0.76830  Biso   1.000  Zn
  Zn13     1.0000 0.08051  0.37023  0.59563  Biso   1.000  Zn
  I31      1.0000 0.33247  0.44010  0.03530  Biso   1.000  I
  I32      1.0000 0.23406  0.23090  0.78890  Biso   1.000  I
  I33      1.0000 0.12737  0.15091  0.69295  Biso   1.000  I
  I34      1.0000 0.11955  0.26110  0.55211  Biso   1.000  I
  I35      1.0000 0.02285  0.33642  0.63581  Biso   1.000  I
  I36      1.0000 0.37660  0.25780  0.92830  Biso   1.000  I
  Zn14     1.0000 0.37422  0.39900  0.93833  Biso   1.000  Zn
  Zn15     1.0000 0.17810  0.13260  0.78050  Biso   1.000  Zn
  I37      1.0000 0.34841  0.39320  0.01220  Biso   1.000  I
  I38      1.0000 0.36260  0.26250  0.95360  Biso   1.000  I
  I39      1.0000 0.23350  0.21880  0.80740  Biso   1.000  I
  I40      1.0000 0.25240  0.20670  0.83170  Biso   1.000  I
  I41      1.0000 0.14470  0.16800  0.70400  Biso   1.000  I
  I42      1.0000 0.16860  0.19400  0.71510  Biso   1.000  I
  I43      1.0000 0.11060  0.25890  0.56520  Biso   1.000  I
  I44      1.0000 0.02590  0.33650  0.63690  Biso   1.000  I
  I45      1.0000 0.39592  0.26244  0.89816  Biso   1.000  I
  C109     1.0000 0.80690  0.92260  0.86480  Biso   1.000  C
  H73      1.0000 0.81280  0.86160  0.85970  Biso   1.000  H
  C110     1.0000 0.77810  0.96420  0.83600  Biso   1.000  C
  H74      1.0000 0.76400  0.93160  0.81130  Biso   1.000  H
  C111     1.0000 0.76900  0.05160  0.84170  Biso   1.000  C
  C112     1.0000 0.78980  0.09720  0.87800  Biso   1.000  C
  H75      1.0000 0.78430  0.15820  0.88370  Biso   1.000  H
  C113     1.0000 0.81880  0.05110  0.90560  Biso   1.000  C
  H76      1.0000 0.83370  0.08290  0.93000  Biso   1.000  H
  C114     1.0000 0.73790  0.09600  0.80980  Biso   1.000  C
  C115     1.0000 0.68870  0.08510  0.74970  Biso   1.000  C
  C116     1.0000 0.70260  0.21700  0.78430  Biso   1.000  C
  C117     1.0000 0.71260  0.46600  0.80570  Biso   1.000  C
  H77      1.0000 0.72970  0.50620  0.82410  Biso   1.000  H
  C118     1.0000 0.72030  0.37440  0.81100  Biso   1.000  C
  H78      1.0000 0.74220  0.35380  0.83180  Biso   1.000  H
  C119     1.0000 0.69560  0.31450  0.78550  Biso   1.000  C
  C120     1.0000 0.66390  0.35280  0.75560  Biso   1.000  C
  H79      1.0000 0.64560  0.31490  0.73730  Biso   1.000  H
  C121     1.0000 0.65910  0.44370  0.75260  Biso   1.000  C
  H80      1.0000 0.63760  0.46770  0.73220  Biso   1.000  H
  C122     1.0000 0.64810  0.89990  0.67060  Biso   1.000  C
  H81      1.0000 0.65300  0.83830  0.66580  Biso   1.000  H
  C123     1.0000 0.67110  0.94410  0.70650  Biso   1.000  C
  H82      1.0000 0.69050  0.91260  0.72680  Biso   1.000  H
  C124     1.0000 0.66530  0.03250  0.71180  Biso   1.000  C
  C125     1.0000 0.63710  0.07400  0.68310  Biso   1.000  C
  H83      1.0000 0.63190  0.13590  0.68700  Biso   1.000  H
  C126     1.0000 0.61530  0.02650  0.64780  Biso   1.000  C
  H84      1.0000 0.59660  0.05740  0.62640  Biso   1.000  H
  N37      1.0000 0.82740  0.96680  0.90080  Biso   1.000  N
  N38      1.0000 0.71820  0.04410  0.77680  Biso   1.000  N
  N39      1.0000 0.67930  0.17170  0.75220  Biso   1.000  N
  N40      1.0000 0.73130  0.18280  0.81450  Biso   1.000  N
  N41      1.0000 0.68420  0.50000  0.77790  Biso   1.000  N
  N42      1.0000 0.61990  0.94040  0.64320  Biso   1.000  N
  C127     1.0000 0.93030  0.03240  0.98940  Biso   1.000  C
  H85      1.0000 0.91940  0.02550  0.01640  Biso   1.000  H
  C128     1.0000 0.96340  0.09030  0.98920  Biso   1.000  C
  H86      1.0000 0.97450  0.12090  0.01610  Biso   1.000  H
  C129     1.0000 0.97800  0.10100  0.95260  Biso   1.000  C
  C130     1.0000 0.96070  0.05560  0.91510  Biso   1.000  C
  H87      1.0000 0.97120  0.06160  0.88780  Biso   1.000  H
  C131     1.0000 0.92960  0.00330  0.91560  Biso   1.000  C
  H88      1.0000 0.91780  0.97600  0.88800  Biso   1.000  H
  C132     1.0000 0.01210  0.15910  0.95150  Biso   1.000  C
  C133     1.0000 0.04540  0.28640  0.97220  Biso   1.000  C
  C134     1.0000 0.06380  0.20000  0.91780  Biso   1.000  C
  C135     1.0000 0.03280  0.47070  0.05330  Biso   1.000  C
  H89      1.0000 0.01500  0.48650  0.07320  Biso   1.000  H
  C136     1.0000 0.02590  0.39380  0.02790  Biso   1.000  C
  H90      1.0000 0.00360  0.35770  0.03020  Biso   1.000  H
  C137     1.0000 0.05080  0.37020  0.99970  Biso   1.000  C
  C138     1.0000 0.08230  0.42340  0.99820  Biso   1.000  C
  H91      1.0000 0.10120  0.40770  0.97960  Biso   1.000  H
  C139     1.0000 0.08690  0.50130  0.02410  Biso   1.000  C
  H92      1.0000 0.10850  0.53930  0.02130  Biso   1.000  H
  C140     1.0000 0.14380  0.22010  0.85030  Biso   1.000  C
  H93      1.0000 0.16570  0.25850  0.84910  Biso   1.000  H
  C141     1.0000 0.12080  0.23760  0.88440  Biso   1.000  C
  H94      1.0000 0.12770  0.28380  0.90620  Biso   1.000  H
  C142     1.0000 0.08860  0.18560  0.88490  Biso   1.000  C
  C143     1.0000 0.08570  0.11370  0.85220  Biso   1.000  C
  H95      1.0000 0.06530  0.07120  0.85300  Biso   1.000  H
  C144     1.0000 0.10770  0.10150  0.82240  Biso   1.000  C
  H96      1.0000 0.10240  0.05300  0.80170  Biso   1.000  H
  N43      1.0000 0.91470  0.98800  0.95220  Biso   1.000  N
  N44      1.0000 0.01610  0.23140  0.97950  Biso   1.000  N
  N45      1.0000 0.07070  0.27540  0.94140  Biso   1.000  N
  N46      1.0000 0.03560  0.14300  0.92030  Biso   1.000  N
  N47      1.0000 0.06390  0.52460  0.05120  Biso   1.000  N
  N48      1.0000 0.13770  0.15510  0.81980  Biso   1.000  N
  Zn16     1.0000 0.85855  0.91060  0.96370  Biso   1.000  Zn
  Zn17     1.0000 0.67160  0.63670  0.76830  Biso   1.000  Zn
  Zn18     1.0000 0.58051  0.87023  0.59563  Biso   1.000  Zn
  I46      1.0000 0.83247  0.94010  0.03530  Biso   1.000  I
  I47      1.0000 0.73406  0.73090  0.78890  Biso   1.000  I
  I48      1.0000 0.62737  0.65091  0.69295  Biso   1.000  I
  I49      1.0000 0.61955  0.76110  0.55211  Biso   1.000  I
  I50      1.0000 0.52285  0.83642  0.63581  Biso   1.000  I
  I51      1.0000 0.87660  0.75780  0.92830  Biso   1.000  I
  Zn19     1.0000 0.87422  0.89900  0.93833  Biso   1.000  Zn
  Zn20     1.0000 0.67810  0.63260  0.78050  Biso   1.000  Zn
  I52      1.0000 0.84841  0.89320  0.01220  Biso   1.000  I
  I53      1.0000 0.86260  0.76250  0.95360  Biso   1.000  I
  I54      1.0000 0.73350  0.71880  0.80740  Biso   1.000  I
  I55      1.0000 0.75240  0.70670  0.83170  Biso   1.000  I
  I56      1.0000 0.64470  0.66800  0.70400  Biso   1.000  I
  I57      1.0000 0.66860  0.69400  0.71510  Biso   1.000  I
  I58      1.0000 0.61060  0.75890  0.56520  Biso   1.000  I
  I59      1.0000 0.52590  0.83650  0.63690  Biso   1.000  I
  I60      1.0000 0.89592  0.76244  0.89816  Biso   1.000  I
  C145     1.0000 0.69310  0.57740  0.13520  Biso   1.000  C
  H97      1.0000 0.68720  0.63840  0.14030  Biso   1.000  H
  C146     1.0000 0.72190  0.53580  0.16400  Biso   1.000  C
  H98      1.0000 0.73600  0.56840  0.18870  Biso   1.000  H
  C147     1.0000 0.73100  0.44840  0.15830  Biso   1.000  C
  C148     1.0000 0.71020  0.40280  0.12200  Biso   1.000  C
  H99      1.0000 0.71570  0.34180  0.11630  Biso   1.000  H
  C149     1.0000 0.68120  0.44890  0.09440  Biso   1.000  C
  H100     1.0000 0.66630  0.41710  0.07000  Biso   1.000  H
  C150     1.0000 0.76210  0.40400  0.19020  Biso   1.000  C
  C151     1.0000 0.81130  0.41490  0.25030  Biso   1.000  C
  C152     1.0000 0.79740  0.28300  0.21570  Biso   1.000  C
  C153     1.0000 0.78740  0.03400  0.19430  Biso   1.000  C
  H101     1.0000 0.77030  0.99380  0.17590  Biso   1.000  H
  C154     1.0000 0.77970  0.12560  0.18900  Biso   1.000  C
  H102     1.0000 0.75780  0.14620  0.16820  Biso   1.000  H
  C155     1.0000 0.80440  0.18550  0.21450  Biso   1.000  C
  C156     1.0000 0.83610  0.14720  0.24440  Biso   1.000  C
  H103     1.0000 0.85440  0.18510  0.26270  Biso   1.000  H
  C157     1.0000 0.84090  0.05630  0.24740  Biso   1.000  C
  H104     1.0000 0.86240  0.03230  0.26780  Biso   1.000  H
  C158     1.0000 0.85190  0.60010  0.32940  Biso   1.000  C
  H105     1.0000 0.84700  0.66170  0.33420  Biso   1.000  H
  C159     1.0000 0.82890  0.55590  0.29350  Biso   1.000  C
  H106     1.0000 0.80950  0.58740  0.27320  Biso   1.000  H
  C160     1.0000 0.83470  0.46750  0.28820  Biso   1.000  C
  C161     1.0000 0.86290  0.42600  0.31690  Biso   1.000  C
  H107     1.0000 0.86810  0.36410  0.31300  Biso   1.000  H
  C162     1.0000 0.88470  0.47350  0.35220  Biso   1.000  C
  H108     1.0000 0.90340  0.44260  0.37360  Biso   1.000  H
  N49      1.0000 0.67260  0.53320  0.09920  Biso   1.000  N
  N50      1.0000 0.78180  0.45590  0.22320  Biso   1.000  N
  N51      1.0000 0.82070  0.32830  0.24780  Biso   1.000  N
  N52      1.0000 0.76870  0.31720  0.18550  Biso   1.000  N
  N53      1.0000 0.81580  0.00000  0.22210  Biso   1.000  N
  N54      1.0000 0.88010  0.55960  0.35680  Biso   1.000  N
  C163     1.0000 0.56970  0.46760  0.01060  Biso   1.000  C
  H109     1.0000 0.58060  0.47450  0.98360  Biso   1.000  H
  C164     1.0000 0.53660  0.40970  0.01080  Biso   1.000  C
  H110     1.0000 0.52550  0.37910  0.98390  Biso   1.000  H
  C165     1.0000 0.52200  0.39900  0.04740  Biso   1.000  C
  C166     1.0000 0.53930  0.44440  0.08490  Biso   1.000  C
  H111     1.0000 0.52880  0.43840  0.11220  Biso   1.000  H
  C167     1.0000 0.57040  0.49670  0.08440  Biso   1.000  C
  H112     1.0000 0.58220  0.52400  0.11200  Biso   1.000  H
  C168     1.0000 0.48790  0.34090  0.04850  Biso   1.000  C
  C169     1.0000 0.45460  0.21360  0.02780  Biso   1.000  C
  C170     1.0000 0.43620  0.30000  0.08220  Biso   1.000  C
  C171     1.0000 0.46720  0.02930  0.94670  Biso   1.000  C
  H113     1.0000 0.48500  0.01350  0.92680  Biso   1.000  H
  C172     1.0000 0.47410  0.10620  0.97210  Biso   1.000  C
  H114     1.0000 0.49640  0.14230  0.96980  Biso   1.000  H
  C173     1.0000 0.44920  0.12980  0.00030  Biso   1.000  C
  C174     1.0000 0.41770  0.07660  0.00180  Biso   1.000  C
  H115     1.0000 0.39880  0.09230  0.02040  Biso   1.000  H
  C175     1.0000 0.41310  0.99870  0.97590  Biso   1.000  C
  H116     1.0000 0.39150  0.96070  0.97870  Biso   1.000  H
  C176     1.0000 0.35620  0.27990  0.14970  Biso   1.000  C
  H117     1.0000 0.33430  0.24150  0.15090  Biso   1.000  H
  C177     1.0000 0.37920  0.26240  0.11560  Biso   1.000  C
  H118     1.0000 0.37230  0.21620  0.09380  Biso   1.000  H
  C178     1.0000 0.41140  0.31440  0.11510  Biso   1.000  C
  C179     1.0000 0.41430  0.38630  0.14780  Biso   1.000  C
  H119     1.0000 0.43470  0.42880  0.14700  Biso   1.000  H
  C180     1.0000 0.39230  0.39850  0.17760  Biso   1.000  C
  H120     1.0000 0.39760  0.44700  0.19830  Biso   1.000  H
  N55      1.0000 0.58530  0.51200  0.04780  Biso   1.000  N
  N56      1.0000 0.48390  0.26860  0.02050  Biso   1.000  N
  N57      1.0000 0.42930  0.22460  0.05860  Biso   1.000  N
  N58      1.0000 0.46440  0.35700  0.07970  Biso   1.000  N
  N59      1.0000 0.43610  0.97540  0.94880  Biso   1.000  N
  N60      1.0000 0.36230  0.34490  0.18020  Biso   1.000  N
  Zn21     1.0000 0.64145  0.58940  0.03630  Biso   1.000  Zn
  Zn22     1.0000 0.82840  0.86330  0.23170  Biso   1.000  Zn
  Zn23     1.0000 0.91949  0.62977  0.40437  Biso   1.000  Zn
  I61      1.0000 0.66753  0.55990  0.96470  Biso   1.000  I
  I62      1.0000 0.76594  0.76910  0.21110  Biso   1.000  I
  I63      1.0000 0.87263  0.84909  0.30705  Biso   1.000  I
  I64      1.0000 0.88045  0.73890  0.44789  Biso   1.000  I
  I65      1.0000 0.97715  0.66358  0.36419  Biso   1.000  I
  I66      1.0000 0.62340  0.74220  0.07170  Biso   1.000  I
  Zn24     1.0000 0.62578  0.60100  0.06167  Biso   1.000  Zn
  Zn25     1.0000 0.82190  0.86740  0.21950  Biso   1.000  Zn
  I67      1.0000 0.65159  0.60680  0.98780  Biso   1.000  I
  I68      1.0000 0.63740  0.73750  0.04640  Biso   1.000  I
  I69      1.0000 0.76650  0.78120  0.19260  Biso   1.000  I
  I70      1.0000 0.74760  0.79330  0.16830  Biso   1.000  I
  I71      1.0000 0.85530  0.83200  0.29600  Biso   1.000  I
  I72      1.0000 0.83140  0.80600  0.28490  Biso   1.000  I
  I73      1.0000 0.88940  0.74110  0.43480  Biso   1.000  I
  I74      1.0000 0.97410  0.66350  0.36310  Biso   1.000  I
  I75      1.0000 0.60408  0.73756  0.10184  Biso   1.000  I
  C181     1.0000 0.19310  0.07740  0.13520  Biso   1.000  C
  H121     1.0000 0.18720  0.13840  0.14030  Biso   1.000  H
  C182     1.0000 0.22190  0.03580  0.16400  Biso   1.000  C
  H122     1.0000 0.23600  0.06840  0.18870  Biso   1.000  H
  C183     1.0000 0.23100  0.94840  0.15830  Biso   1.000  C
  C184     1.0000 0.21020  0.90280  0.12200  Biso   1.000  C
  H123     1.0000 0.21570  0.84180  0.11630  Biso   1.000  H
  C185     1.0000 0.18120  0.94890  0.09440  Biso   1.000  C
  H124     1.0000 0.16630  0.91710  0.07000  Biso   1.000  H
  C186     1.0000 0.26210  0.90400  0.19020  Biso   1.000  C
  C187     1.0000 0.31130  0.91490  0.25030  Biso   1.000  C
  C188     1.0000 0.29740  0.78300  0.21570  Biso   1.000  C
  C189     1.0000 0.28740  0.53400  0.19430  Biso   1.000  C
  H125     1.0000 0.27030  0.49380  0.17590  Biso   1.000  H
  C190     1.0000 0.27970  0.62560  0.18900  Biso   1.000  C
  H126     1.0000 0.25780  0.64620  0.16820  Biso   1.000  H
  C191     1.0000 0.30440  0.68550  0.21450  Biso   1.000  C
  C192     1.0000 0.33610  0.64720  0.24440  Biso   1.000  C
  H127     1.0000 0.35440  0.68510  0.26270  Biso   1.000  H
  C193     1.0000 0.34090  0.55630  0.24740  Biso   1.000  C
  H128     1.0000 0.36240  0.53230  0.26780  Biso   1.000  H
  C194     1.0000 0.35190  0.10010  0.32940  Biso   1.000  C
  H129     1.0000 0.34700  0.16170  0.33420  Biso   1.000  H
  C195     1.0000 0.32890  0.05590  0.29350  Biso   1.000  C
  H130     1.0000 0.30950  0.08740  0.27320  Biso   1.000  H
  C196     1.0000 0.33470  0.96750  0.28820  Biso   1.000  C
  C197     1.0000 0.36290  0.92600  0.31690  Biso   1.000  C
  H131     1.0000 0.36810  0.86410  0.31300  Biso   1.000  H
  C198     1.0000 0.38470  0.97350  0.35220  Biso   1.000  C
  H132     1.0000 0.40340  0.94260  0.37360  Biso   1.000  H
  N61      1.0000 0.17260  0.03320  0.09920  Biso   1.000  N
  N62      1.0000 0.28180  0.95590  0.22320  Biso   1.000  N
  N63      1.0000 0.32070  0.82830  0.24780  Biso   1.000  N
  N64      1.0000 0.26870  0.81720  0.18550  Biso   1.000  N
  N65      1.0000 0.31580  0.50000  0.22210  Biso   1.000  N
  N66      1.0000 0.38010  0.05960  0.35680  Biso   1.000  N
  C199     1.0000 0.06970  0.96760  0.01060  Biso   1.000  C
  H133     1.0000 0.08060  0.97450  0.98360  Biso   1.000  H
  C200     1.0000 0.03660  0.90970  0.01080  Biso   1.000  C
  H134     1.0000 0.02550  0.87910  0.98390  Biso   1.000  H
  C201     1.0000 0.02200  0.89900  0.04740  Biso   1.000  C
  C202     1.0000 0.03930  0.94440  0.08490  Biso   1.000  C
  H135     1.0000 0.02880  0.93840  0.11220  Biso   1.000  H
  C203     1.0000 0.07040  0.99670  0.08440  Biso   1.000  C
  H136     1.0000 0.08220  0.02400  0.11200  Biso   1.000  H
  C204     1.0000 0.98790  0.84090  0.04850  Biso   1.000  C
  C205     1.0000 0.95460  0.71360  0.02780  Biso   1.000  C
  C206     1.0000 0.93620  0.80000  0.08220  Biso   1.000  C
  C207     1.0000 0.96720  0.52930  0.94670  Biso   1.000  C
  H137     1.0000 0.98500  0.51350  0.92680  Biso   1.000  H
  C208     1.0000 0.97410  0.60620  0.97210  Biso   1.000  C
  H138     1.0000 0.99640  0.64230  0.96980  Biso   1.000  H
  C209     1.0000 0.94920  0.62980  0.00030  Biso   1.000  C
  C210     1.0000 0.91770  0.57660  0.00180  Biso   1.000  C
  H139     1.0000 0.89880  0.59230  0.02040  Biso   1.000  H
  C211     1.0000 0.91310  0.49870  0.97590  Biso   1.000  C
  H140     1.0000 0.89150  0.46070  0.97870  Biso   1.000  H
  C212     1.0000 0.85620  0.77990  0.14970  Biso   1.000  C
  H141     1.0000 0.83430  0.74150  0.15090  Biso   1.000  H
  C213     1.0000 0.87920  0.76240  0.11560  Biso   1.000  C
  H142     1.0000 0.87230  0.71620  0.09380  Biso   1.000  H
  C214     1.0000 0.91140  0.81440  0.11510  Biso   1.000  C
  C215     1.0000 0.91430  0.88630  0.14780  Biso   1.000  C
  H143     1.0000 0.93470  0.92880  0.14700  Biso   1.000  H
  C216     1.0000 0.89230  0.89850  0.17760  Biso   1.000  C
  H144     1.0000 0.89760  0.94700  0.19830  Biso   1.000  H
  N67      1.0000 0.08530  0.01200  0.04780  Biso   1.000  N
  N68      1.0000 0.98390  0.76860  0.02050  Biso   1.000  N
  N69      1.0000 0.92930  0.72460  0.05860  Biso   1.000  N
  N70      1.0000 0.96440  0.85700  0.07970  Biso   1.000  N
  N71      1.0000 0.93610  0.47540  0.94880  Biso   1.000  N
  N72      1.0000 0.86230  0.84490  0.18020  Biso   1.000  N
  Zn26     1.0000 0.14145  0.08940  0.03630  Biso   1.000  Zn
  Zn27     1.0000 0.32840  0.36330  0.23170  Biso   1.000  Zn
  Zn28     1.0000 0.41949  0.12977  0.40437  Biso   1.000  Zn
  I76      1.0000 0.16753  0.05990  0.96470  Biso   1.000  I
  I77      1.0000 0.26594  0.26910  0.21110  Biso   1.000  I
  I78      1.0000 0.37263  0.34909  0.30705  Biso   1.000  I
  I79      1.0000 0.38045  0.23890  0.44789  Biso   1.000  I
  I80      1.0000 0.47715  0.16358  0.36419  Biso   1.000  I
  I81      1.0000 0.12340  0.24220  0.07170  Biso   1.000  I
  Zn29     1.0000 0.12578  0.10100  0.06167  Biso   1.000  Zn
  Zn30     1.0000 0.32190  0.36740  0.21950  Biso   1.000  Zn
  I82      1.0000 0.15159  0.10680  0.98780  Biso   1.000  I
  I83      1.0000 0.13740  0.23750  0.04640  Biso   1.000  I
  I84      1.0000 0.26650  0.28120  0.19260  Biso   1.000  I
  I85      1.0000 0.24760  0.29330  0.16830  Biso   1.000  I
  I86      1.0000 0.35530  0.33200  0.29600  Biso   1.000  I
  I87      1.0000 0.33140  0.30600  0.28490  Biso   1.000  I
  I88      1.0000 0.38940  0.24110  0.43480  Biso   1.000  I
  I89      1.0000 0.47410  0.16350  0.36310  Biso   1.000  I
  I90      1.0000 0.10408  0.23756  0.10184  Biso   1.000  I
  C217     1.0000 0.69310  0.42260  0.63520  Biso   1.000  C
  H145     1.0000 0.68720  0.36160  0.64030  Biso   1.000  H
  C218     1.0000 0.72190  0.46420  0.66400  Biso   1.000  C
  H146     1.0000 0.73600  0.43160  0.68870  Biso   1.000  H
  C219     1.0000 0.73100  0.55160  0.65830  Biso   1.000  C
  C220     1.0000 0.71020  0.59720  0.62200  Biso   1.000  C
  H147     1.0000 0.71570  0.65820  0.61630  Biso   1.000  H
  C221     1.0000 0.68120  0.55110  0.59440  Biso   1.000  C
  H148     1.0000 0.66630  0.58290  0.57000  Biso   1.000  H
  C222     1.0000 0.76210  0.59600  0.69020  Biso   1.000  C
  C223     1.0000 0.81130  0.58510  0.75030  Biso   1.000  C
  C224     1.0000 0.79740  0.71700  0.71570  Biso   1.000  C
  C225     1.0000 0.78740  0.96600  0.69430  Biso   1.000  C
  H149     1.0000 0.77030  0.00620  0.67590  Biso   1.000  H
  C226     1.0000 0.77970  0.87440  0.68900  Biso   1.000  C
  H150     1.0000 0.75780  0.85380  0.66820  Biso   1.000  H
  C227     1.0000 0.80440  0.81450  0.71450  Biso   1.000  C
  C228     1.0000 0.83610  0.85280  0.74440  Biso   1.000  C
  H151     1.0000 0.85440  0.81490  0.76270  Biso   1.000  H
  C229     1.0000 0.84090  0.94370  0.74740  Biso   1.000  C
  H152     1.0000 0.86240  0.96770  0.76780  Biso   1.000  H
  C230     1.0000 0.85190  0.39990  0.82940  Biso   1.000  C
  H153     1.0000 0.84700  0.33830  0.83420  Biso   1.000  H
  C231     1.0000 0.82890  0.44410  0.79350  Biso   1.000  C
  H154     1.0000 0.80950  0.41260  0.77320  Biso   1.000  H
  C232     1.0000 0.83470  0.53250  0.78820  Biso   1.000  C
  C233     1.0000 0.86290  0.57400  0.81690  Biso   1.000  C
  H155     1.0000 0.86810  0.63590  0.81300  Biso   1.000  H
  C234     1.0000 0.88470  0.52650  0.85220  Biso   1.000  C
  H156     1.0000 0.90340  0.55740  0.87360  Biso   1.000  H
  N73      1.0000 0.67260  0.46680  0.59920  Biso   1.000  N
  N74      1.0000 0.78180  0.54410  0.72320  Biso   1.000  N
  N75      1.0000 0.82070  0.67170  0.74780  Biso   1.000  N
  N76      1.0000 0.76870  0.68280  0.68550  Biso   1.000  N
  N77      1.0000 0.81580  0.00000  0.72210  Biso   1.000  N
  N78      1.0000 0.88010  0.44040  0.85680  Biso   1.000  N
  C235     1.0000 0.56970  0.53240  0.51060  Biso   1.000  C
  H157     1.0000 0.58060  0.52550  0.48360  Biso   1.000  H
  C236     1.0000 0.53660  0.59030  0.51080  Biso   1.000  C
  H158     1.0000 0.52550  0.62090  0.48390  Biso   1.000  H
  C237     1.0000 0.52200  0.60100  0.54740  Biso   1.000  C
  C238     1.0000 0.53930  0.55560  0.58490  Biso   1.000  C
  H159     1.0000 0.52880  0.56160  0.61220  Biso   1.000  H
  C239     1.0000 0.57040  0.50330  0.58440  Biso   1.000  C
  H160     1.0000 0.58220  0.47600  0.61200  Biso   1.000  H
  C240     1.0000 0.48790  0.65910  0.54850  Biso   1.000  C
  C241     1.0000 0.45460  0.78640  0.52780  Biso   1.000  C
  C242     1.0000 0.43620  0.70000  0.58220  Biso   1.000  C
  C243     1.0000 0.46720  0.97070  0.44670  Biso   1.000  C
  H161     1.0000 0.48500  0.98650  0.42680  Biso   1.000  H
  C244     1.0000 0.47410  0.89380  0.47210  Biso   1.000  C
  H162     1.0000 0.49640  0.85770  0.46980  Biso   1.000  H
  C245     1.0000 0.44920  0.87020  0.50030  Biso   1.000  C
  C246     1.0000 0.41770  0.92340  0.50180  Biso   1.000  C
  H163     1.0000 0.39880  0.90770  0.52040  Biso   1.000  H
  C247     1.0000 0.41310  0.00130  0.47590  Biso   1.000  C
  H164     1.0000 0.39150  0.03930  0.47870  Biso   1.000  H
  C248     1.0000 0.35620  0.72010  0.64970  Biso   1.000  C
  H165     1.0000 0.33430  0.75850  0.65090  Biso   1.000  H
  C249     1.0000 0.37920  0.73760  0.61560  Biso   1.000  C
  H166     1.0000 0.37230  0.78380  0.59380  Biso   1.000  H
  C250     1.0000 0.41140  0.68560  0.61510  Biso   1.000  C
  C251     1.0000 0.41430  0.61370  0.64780  Biso   1.000  C
  H167     1.0000 0.43470  0.57120  0.64700  Biso   1.000  H
  C252     1.0000 0.39230  0.60150  0.67760  Biso   1.000  C
  H168     1.0000 0.39760  0.55300  0.69830  Biso   1.000  H
  N79      1.0000 0.58530  0.48800  0.54780  Biso   1.000  N
  N80      1.0000 0.48390  0.73140  0.52050  Biso   1.000  N
  N81      1.0000 0.42930  0.77540  0.55860  Biso   1.000  N
  N82      1.0000 0.46440  0.64300  0.57970  Biso   1.000  N
  N83      1.0000 0.43610  0.02460  0.44880  Biso   1.000  N
  N84      1.0000 0.36230  0.65510  0.68020  Biso   1.000  N
  Zn31     1.0000 0.64145  0.41060  0.53630  Biso   1.000  Zn
  Zn32     1.0000 0.82840  0.13670  0.73170  Biso   1.000  Zn
  Zn33     1.0000 0.91949  0.37023  0.90437  Biso   1.000  Zn
  I91      1.0000 0.66753  0.44010  0.46470  Biso   1.000  I
  I92      1.0000 0.76594  0.23090  0.71110  Biso   1.000  I
  I93      1.0000 0.87263  0.15091  0.80705  Biso   1.000  I
  I94      1.0000 0.88045  0.26110  0.94789  Biso   1.000  I
  I95      1.0000 0.97715  0.33642  0.86419  Biso   1.000  I
  I96      1.0000 0.62340  0.25780  0.57170  Biso   1.000  I
  Zn34     1.0000 0.62578  0.39900  0.56167  Biso   1.000  Zn
  Zn35     1.0000 0.82190  0.13260  0.71950  Biso   1.000  Zn
  I97      1.0000 0.65159  0.39320  0.48780  Biso   1.000  I
  I98      1.0000 0.63740  0.26250  0.54640  Biso   1.000  I
  I99      1.0000 0.76650  0.21880  0.69260  Biso   1.000  I
  I100     1.0000 0.74760  0.20670  0.66830  Biso   1.000  I
  I101     1.0000 0.85530  0.16800  0.79600  Biso   1.000  I
  I102     1.0000 0.83140  0.19400  0.78490  Biso   1.000  I
  I103     1.0000 0.88940  0.25890  0.93480  Biso   1.000  I
  I104     1.0000 0.97410  0.33650  0.86310  Biso   1.000  I
  I105     1.0000 0.60408  0.26244  0.60184  Biso   1.000  I
  C253     1.0000 0.19310  0.92260  0.63520  Biso   1.000  C
  H169     1.0000 0.18720  0.86160  0.64030  Biso   1.000  H
  C254     1.0000 0.22190  0.96420  0.66400  Biso   1.000  C
  H170     1.0000 0.23600  0.93160  0.68870  Biso   1.000  H
  C255     1.0000 0.23100  0.05160  0.65830  Biso   1.000  C
  C256     1.0000 0.21020  0.09720  0.62200  Biso   1.000  C
  H171     1.0000 0.21570  0.15820  0.61630  Biso   1.000  H
  C257     1.0000 0.18120  0.05110  0.59440  Biso   1.000  C
  H172     1.0000 0.16630  0.08290  0.57000  Biso   1.000  H
  C258     1.0000 0.26210  0.09600  0.69020  Biso   1.000  C
  C259     1.0000 0.31130  0.08510  0.75030  Biso   1.000  C
  C260     1.0000 0.29740  0.21700  0.71570  Biso   1.000  C
  C261     1.0000 0.28740  0.46600  0.69430  Biso   1.000  C
  H173     1.0000 0.27030  0.50620  0.67590  Biso   1.000  H
  C262     1.0000 0.27970  0.37440  0.68900  Biso   1.000  C
  H174     1.0000 0.25780  0.35380  0.66820  Biso   1.000  H
  C263     1.0000 0.30440  0.31450  0.71450  Biso   1.000  C
  C264     1.0000 0.33610  0.35280  0.74440  Biso   1.000  C
  H175     1.0000 0.35440  0.31490  0.76270  Biso   1.000  H
  C265     1.0000 0.34090  0.44370  0.74740  Biso   1.000  C
  H176     1.0000 0.36240  0.46770  0.76780  Biso   1.000  H
  C266     1.0000 0.35190  0.89990  0.82940  Biso   1.000  C
  H177     1.0000 0.34700  0.83830  0.83420  Biso   1.000  H
  C267     1.0000 0.32890  0.94410  0.79350  Biso   1.000  C
  H178     1.0000 0.30950  0.91260  0.77320  Biso   1.000  H
  C268     1.0000 0.33470  0.03250  0.78820  Biso   1.000  C
  C269     1.0000 0.36290  0.07400  0.81690  Biso   1.000  C
  H179     1.0000 0.36810  0.13590  0.81300  Biso   1.000  H
  C270     1.0000 0.38470  0.02650  0.85220  Biso   1.000  C
  H180     1.0000 0.40340  0.05740  0.87360  Biso   1.000  H
  N85      1.0000 0.17260  0.96680  0.59920  Biso   1.000  N
  N86      1.0000 0.28180  0.04410  0.72320  Biso   1.000  N
  N87      1.0000 0.32070  0.17170  0.74780  Biso   1.000  N
  N88      1.0000 0.26870  0.18280  0.68550  Biso   1.000  N
  N89      1.0000 0.31580  0.50000  0.72210  Biso   1.000  N
  N90      1.0000 0.38010  0.94040  0.85680  Biso   1.000  N
  C271     1.0000 0.06970  0.03240  0.51060  Biso   1.000  C
  H181     1.0000 0.08060  0.02550  0.48360  Biso   1.000  H
  C272     1.0000 0.03660  0.09030  0.51080  Biso   1.000  C
  H182     1.0000 0.02550  0.12090  0.48390  Biso   1.000  H
  C273     1.0000 0.02200  0.10100  0.54740  Biso   1.000  C
  C274     1.0000 0.03930  0.05560  0.58490  Biso   1.000  C
  H183     1.0000 0.02880  0.06160  0.61220  Biso   1.000  H
  C275     1.0000 0.07040  0.00330  0.58440  Biso   1.000  C
  H184     1.0000 0.08220  0.97600  0.61200  Biso   1.000  H
  C276     1.0000 0.98790  0.15910  0.54850  Biso   1.000  C
  C277     1.0000 0.95460  0.28640  0.52780  Biso   1.000  C
  C278     1.0000 0.93620  0.20000  0.58220  Biso   1.000  C
  C279     1.0000 0.96720  0.47070  0.44670  Biso   1.000  C
  H185     1.0000 0.98500  0.48650  0.42680  Biso   1.000  H
  C280     1.0000 0.97410  0.39380  0.47210  Biso   1.000  C
  H186     1.0000 0.99640  0.35770  0.46980  Biso   1.000  H
  C281     1.0000 0.94920  0.37020  0.50030  Biso   1.000  C
  C282     1.0000 0.91770  0.42340  0.50180  Biso   1.000  C
  H187     1.0000 0.89880  0.40770  0.52040  Biso   1.000  H
  C283     1.0000 0.91310  0.50130  0.47590  Biso   1.000  C
  H188     1.0000 0.89150  0.53930  0.47870  Biso   1.000  H
  C284     1.0000 0.85620  0.22010  0.64970  Biso   1.000  C
  H189     1.0000 0.83430  0.25850  0.65090  Biso   1.000  H
  C285     1.0000 0.87920  0.23760  0.61560  Biso   1.000  C
  H190     1.0000 0.87230  0.28380  0.59380  Biso   1.000  H
  C286     1.0000 0.91140  0.18560  0.61510  Biso   1.000  C
  C287     1.0000 0.91430  0.11370  0.64780  Biso   1.000  C
  H191     1.0000 0.93470  0.07120  0.64700  Biso   1.000  H
  C288     1.0000 0.89230  0.10150  0.67760  Biso   1.000  C
  H192     1.0000 0.89760  0.05300  0.69830  Biso   1.000  H
  N91      1.0000 0.08530  0.98800  0.54780  Biso   1.000  N
  N92      1.0000 0.98390  0.23140  0.52050  Biso   1.000  N
  N93      1.0000 0.92930  0.27540  0.55860  Biso   1.000  N
  N94      1.0000 0.96440  0.14300  0.57970  Biso   1.000  N
  N95      1.0000 0.93610  0.52460  0.44880  Biso   1.000  N
  N96      1.0000 0.86230  0.15510  0.68020  Biso   1.000  N
  Zn36     1.0000 0.14145  0.91060  0.53630  Biso   1.000  Zn
  Zn37     1.0000 0.32840  0.63670  0.73170  Biso   1.000  Zn
  Zn38     1.0000 0.41949  0.87023  0.90437  Biso   1.000  Zn
  I106     1.0000 0.16753  0.94010  0.46470  Biso   1.000  I
  I107     1.0000 0.26594  0.73090  0.71110  Biso   1.000  I
  I108     1.0000 0.37263  0.65091  0.80705  Biso   1.000  I
  I109     1.0000 0.38045  0.76110  0.94789  Biso   1.000  I
  I110     1.0000 0.47715  0.83642  0.86419  Biso   1.000  I
  I111     1.0000 0.12340  0.75780  0.57170  Biso   1.000  I
  Zn39     1.0000 0.12578  0.89900  0.56167  Biso   1.000  Zn
  Zn40     1.0000 0.32190  0.63260  0.71950  Biso   1.000  Zn
  I112     1.0000 0.15159  0.89320  0.48780  Biso   1.000  I
  I113     1.0000 0.13740  0.76250  0.54640  Biso   1.000  I
  I114     1.0000 0.26650  0.71880  0.69260  Biso   1.000  I
  I115     1.0000 0.24760  0.70670  0.66830  Biso   1.000  I
  I116     1.0000 0.35530  0.66800  0.79600  Biso   1.000  I
  I117     1.0000 0.33140  0.69400  0.78490  Biso   1.000  I
  I118     1.0000 0.38940  0.75890  0.93480  Biso   1.000  I
  I119     1.0000 0.47410  0.83650  0.86310  Biso   1.000  I
  I120     1.0000 0.10408  0.76244  0.60184  Biso   1.000  I
