data_image0
_cell_length_a       34.8492
_cell_length_b       14.8584
_cell_length_c       31.0351
_cell_angle_alpha    90
_cell_angle_beta     101.858
_cell_angle_gamma    90

_symmetry_space_group_name_H-M    "P 1"
_symmetry_int_tables_number       1

loop_
  _symmetry_equiv_pos_as_xyz
  'x, y, z'

loop_
  _atom_site_label
  _atom_site_occupancy
  _atom_site_fract_x
  _atom_site_fract_y
  _atom_site_fract_z
  _atom_site_thermal_displace_type
  _atom_site_B_iso_or_equiv
  _atom_site_type_symbol
  C1       1.0000 0.33790  0.54660  0.74760  Biso   1.000  C
  H1       1.0000 0.35910  0.52130  0.76820  Biso   1.000  H
  C2       1.0000 0.33340  0.63910  0.74710  Biso   1.000  C
  H2       1.0000 0.35070  0.67600  0.76740  Biso   1.000  H
  C3       1.0000 0.30330  0.67670  0.71650  Biso   1.000  C
  C4       1.0000 0.27900  0.61910  0.68780  Biso   1.000  C
  H3       1.0000 0.25800  0.64210  0.66610  Biso   1.000  H
  C5       1.0000 0.28600  0.52700  0.69150  Biso   1.000  C
  H4       1.0000 0.26950  0.48770  0.67170  Biso   1.000  H
  N1       1.0000 0.31450  0.49200  0.72140  Biso   1.000  N
  C6       1.0000 0.29620  0.77560  0.71660  Biso   1.000  C
  N2       1.0000 0.32103  0.82100  0.74770  Biso   1.000  N
  C7       1.0000 0.31180  0.90720  0.75090  Biso   1.000  C
  N3       1.0000 0.28146  0.94830  0.72630  Biso   1.000  N
  C8       1.0000 0.26000  0.89840  0.69440  Biso   1.000  C
  N4       1.0000 0.26629  0.81040  0.68830  Biso   1.000  N
  C9       1.0000 0.39450  0.97310  0.84270  Biso   1.000  C
  H5       1.0000 0.41930  0.94970  0.85680  Biso   1.000  H
  C10      1.0000 0.37130  0.92350  0.80930  Biso   1.000  C
  H6       1.0000 0.37940  0.86570  0.80170  Biso   1.000  H
  C11      1.0000 0.33690  0.95900  0.78780  Biso   1.000  C
  C12      1.0000 0.32550  0.04250  0.80000  Biso   1.000  C
  H7       1.0000 0.30150  0.06870  0.78510  Biso   1.000  H
  C13      1.0000 0.34930  0.08730  0.83420  Biso   1.000  C
  H8       1.0000 0.34140  0.14470  0.84260  Biso   1.000  H
  N5       1.0000 0.38300  0.05280  0.85580  Biso   1.000  N
  C14      1.0000 0.17440  0.94730  0.60270  Biso   1.000  C
  H9       1.0000 0.15840  0.91640  0.57870  Biso   1.000  H
  C15      1.0000 0.20360  0.90010  0.62960  Biso   1.000  C
  H10      1.0000 0.20690  0.83780  0.62470  Biso   1.000  H
  C16      1.0000 0.22780  0.94290  0.66370  Biso   1.000  C
  C17      1.0000 0.22020  0.03400  0.66970  Biso   1.000  C
  H11      1.0000 0.23610  0.06660  0.69310  Biso   1.000  H
  C18      1.0000 0.18990  0.07620  0.64180  Biso   1.000  C
  H12      1.0000 0.18490  0.13780  0.64670  Biso   1.000  H
  N6       1.0000 0.16719  0.03380  0.60820  Biso   1.000  N
  C19      1.0000 0.34610  0.28530  0.64420  Biso   1.000  C
  H13      1.0000 0.32060  0.25960  0.63950  Biso   1.000  H
  C20      1.0000 0.36920  0.26870  0.61370  Biso   1.000  C
  H14      1.0000 0.36000  0.23200  0.58860  Biso   1.000  H
  C21      1.0000 0.40630  0.30750  0.62070  Biso   1.000  C
  C22      1.0000 0.41890  0.35850  0.65770  Biso   1.000  C
  H15      1.0000 0.44420  0.38540  0.66340  Biso   1.000  H
  C23      1.0000 0.39340  0.36990  0.68670  Biso   1.000  C
  H16      1.0000 0.40220  0.40420  0.71270  Biso   1.000  H
  C24      1.0000 0.43190  0.29450  0.58850  Biso   1.000  C
  C25      1.0000 0.44810  0.21580  0.53320  Biso   1.000  C
  C26      1.0000 0.48110  0.34100  0.55810  Biso   1.000  C
  C27      1.0000 0.53300  0.40800  0.52270  Biso   1.000  C
  H17      1.0000 0.52470  0.37120  0.49740  Biso   1.000  H
  C28      1.0000 0.56370  0.46560  0.52500  Biso   1.000  C
  H18      1.0000 0.57640  0.46830  0.50080  Biso   1.000  H
  C29      1.0000 0.51390  0.40410  0.55780  Biso   1.000  C
  C30      1.0000 0.52590  0.46330  0.59260  Biso   1.000  C
  H19      1.0000 0.51250  0.46640  0.61630  Biso   1.000  H
  C31      1.0000 0.55800  0.51740  0.59190  Biso   1.000  C
  H20      1.0000 0.56680  0.55620  0.61630  Biso   1.000  H
  C32      1.0000 0.46350  0.03850  0.45200  Biso   1.000  C
  H21      1.0000 0.48200  0.02430  0.43450  Biso   1.000  H
  C33      1.0000 0.46960  0.11500  0.47840  Biso   1.000  C
  H22      1.0000 0.49160  0.15270  0.47860  Biso   1.000  H
  C34      1.0000 0.44310  0.13460  0.50400  Biso   1.000  C
  C35      1.0000 0.41140  0.07950  0.50250  Biso   1.000  C
  H23      1.0000 0.39240  0.09230  0.51970  Biso   1.000  H
  C36      1.0000 0.40760  0.00460  0.47530  Biso   1.000  C
  H24      1.0000 0.38580  0.96580  0.47460  Biso   1.000  H
  N7       1.0000 0.35800  0.33570  0.67970  Biso   1.000  N
  N8       1.0000 0.42420  0.22340  0.56180  Biso   1.000  N
  N9       1.0000 0.47610  0.27490  0.52864  Biso   1.000  N
  N10      1.0000 0.46034  0.35430  0.58910  Biso   1.000  N
  N11      1.0000 0.57700  0.51840  0.55960  Biso   1.000  N
  N12      1.0000 0.43280  0.98460  0.45030  Biso   1.000  N
  Zn1      1.0000 0.32610  0.35640  0.72940  Biso   1.000  Zn
  I1       1.0000 0.37157  0.33100  0.80341  Biso   1.000  I
  I2       1.0000 0.26312  0.26750  0.70295  Biso   1.000  I
  Zn2      1.0000 0.12360  0.10360  0.56750  Biso   1.000  Zn
  I3       1.0000 0.10764  0.24463  0.60669  Biso   1.000  I
  I4       1.0000 0.14528  0.09880  0.49434  Biso   1.000  I
  Zn3      1.0000 0.42060  0.87920  0.40544  Biso   1.000  Zn
  I5       1.0000 0.48013  0.85576  0.37197  Biso   1.000  I
  I6       1.0000 0.37893  0.76850  0.43640  Biso   1.000  I
  Zn4      1.0000 0.31960  0.34890  0.71990  Biso   1.000  Zn
  I7       1.0000 0.35920  0.31400  0.79660  Biso   1.000  I
  I8       1.0000 0.25230  0.28210  0.68920  Biso   1.000  I
  Zn5      1.0000 0.12790  0.09790  0.55720  Biso   1.000  Zn
  I9       1.0000 0.11681  0.24970  0.59128  Biso   1.000  I
  I10      1.0000 0.14817  0.07960  0.48365  Biso   1.000  I
  I11      1.0000 0.38560  0.75970  0.44293  Biso   1.000  I
  C37      1.0000 0.83790  0.04660  0.74760  Biso   1.000  C
  H25      1.0000 0.85910  0.02130  0.76820  Biso   1.000  H
  C38      1.0000 0.83340  0.13910  0.74710  Biso   1.000  C
  H26      1.0000 0.85070  0.17600  0.76740  Biso   1.000  H
  C39      1.0000 0.80330  0.17670  0.71650  Biso   1.000  C
  C40      1.0000 0.77900  0.11910  0.68780  Biso   1.000  C
  H27      1.0000 0.75800  0.14210  0.66610  Biso   1.000  H
  C41      1.0000 0.78600  0.02700  0.69150  Biso   1.000  C
  H28      1.0000 0.76950  0.98770  0.67170  Biso   1.000  H
  N13      1.0000 0.81450  0.99200  0.72140  Biso   1.000  N
  C42      1.0000 0.79620  0.27560  0.71660  Biso   1.000  C
  N14      1.0000 0.82103  0.32100  0.74770  Biso   1.000  N
  C43      1.0000 0.81180  0.40720  0.75090  Biso   1.000  C
  N15      1.0000 0.78146  0.44830  0.72630  Biso   1.000  N
  C44      1.0000 0.76000  0.39840  0.69440  Biso   1.000  C
  N16      1.0000 0.76629  0.31040  0.68830  Biso   1.000  N
  C45      1.0000 0.89450  0.47310  0.84270  Biso   1.000  C
  H29      1.0000 0.91930  0.44970  0.85680  Biso   1.000  H
  C46      1.0000 0.87130  0.42350  0.80930  Biso   1.000  C
  H30      1.0000 0.87940  0.36570  0.80170  Biso   1.000  H
  C47      1.0000 0.83690  0.45900  0.78780  Biso   1.000  C
  C48      1.0000 0.82550  0.54250  0.80000  Biso   1.000  C
  H31      1.0000 0.80150  0.56870  0.78510  Biso   1.000  H
  C49      1.0000 0.84930  0.58730  0.83420  Biso   1.000  C
  H32      1.0000 0.84140  0.64470  0.84260  Biso   1.000  H
  N17      1.0000 0.88300  0.55280  0.85580  Biso   1.000  N
  C50      1.0000 0.67440  0.44730  0.60270  Biso   1.000  C
  H33      1.0000 0.65840  0.41640  0.57870  Biso   1.000  H
  C51      1.0000 0.70360  0.40010  0.62960  Biso   1.000  C
  H34      1.0000 0.70690  0.33780  0.62470  Biso   1.000  H
  C52      1.0000 0.72780  0.44290  0.66370  Biso   1.000  C
  C53      1.0000 0.72020  0.53400  0.66970  Biso   1.000  C
  H35      1.0000 0.73610  0.56660  0.69310  Biso   1.000  H
  C54      1.0000 0.68990  0.57620  0.64180  Biso   1.000  C
  H36      1.0000 0.68490  0.63780  0.64670  Biso   1.000  H
  N18      1.0000 0.66719  0.53380  0.60820  Biso   1.000  N
  C55      1.0000 0.84610  0.78530  0.64420  Biso   1.000  C
  H37      1.0000 0.82060  0.75960  0.63950  Biso   1.000  H
  C56      1.0000 0.86920  0.76870  0.61370  Biso   1.000  C
  H38      1.0000 0.86000  0.73200  0.58860  Biso   1.000  H
  C57      1.0000 0.90630  0.80750  0.62070  Biso   1.000  C
  C58      1.0000 0.91890  0.85850  0.65770  Biso   1.000  C
  H39      1.0000 0.94420  0.88540  0.66340  Biso   1.000  H
  C59      1.0000 0.89340  0.86990  0.68670  Biso   1.000  C
  H40      1.0000 0.90220  0.90420  0.71270  Biso   1.000  H
  C60      1.0000 0.93190  0.79450  0.58850  Biso   1.000  C
  C61      1.0000 0.94810  0.71580  0.53320  Biso   1.000  C
  C62      1.0000 0.98110  0.84100  0.55810  Biso   1.000  C
  C63      1.0000 0.03300  0.90800  0.52270  Biso   1.000  C
  H41      1.0000 0.02470  0.87120  0.49740  Biso   1.000  H
  C64      1.0000 0.06370  0.96560  0.52500  Biso   1.000  C
  H42      1.0000 0.07640  0.96830  0.50080  Biso   1.000  H
  C65      1.0000 0.01390  0.90410  0.55780  Biso   1.000  C
  C66      1.0000 0.02590  0.96330  0.59260  Biso   1.000  C
  H43      1.0000 0.01250  0.96640  0.61630  Biso   1.000  H
  C67      1.0000 0.05800  0.01740  0.59190  Biso   1.000  C
  H44      1.0000 0.06680  0.05620  0.61630  Biso   1.000  H
  C68      1.0000 0.96350  0.53850  0.45200  Biso   1.000  C
  H45      1.0000 0.98200  0.52430  0.43450  Biso   1.000  H
  C69      1.0000 0.96960  0.61500  0.47840  Biso   1.000  C
  H46      1.0000 0.99160  0.65270  0.47860  Biso   1.000  H
  C70      1.0000 0.94310  0.63460  0.50400  Biso   1.000  C
  C71      1.0000 0.91140  0.57950  0.50250  Biso   1.000  C
  H47      1.0000 0.89240  0.59230  0.51970  Biso   1.000  H
  C72      1.0000 0.90760  0.50460  0.47530  Biso   1.000  C
  H48      1.0000 0.88580  0.46580  0.47460  Biso   1.000  H
  N19      1.0000 0.85800  0.83570  0.67970  Biso   1.000  N
  N20      1.0000 0.92420  0.72340  0.56180  Biso   1.000  N
  N21      1.0000 0.97610  0.77490  0.52864  Biso   1.000  N
  N22      1.0000 0.96034  0.85430  0.58910  Biso   1.000  N
  N23      1.0000 0.07700  0.01840  0.55960  Biso   1.000  N
  N24      1.0000 0.93280  0.48460  0.45030  Biso   1.000  N
  Zn6      1.0000 0.82610  0.85640  0.72940  Biso   1.000  Zn
  I12      1.0000 0.87157  0.83100  0.80341  Biso   1.000  I
  I13      1.0000 0.76312  0.76750  0.70295  Biso   1.000  I
  Zn7      1.0000 0.62360  0.60360  0.56750  Biso   1.000  Zn
  I14      1.0000 0.60764  0.74463  0.60669  Biso   1.000  I
  I15      1.0000 0.64528  0.59880  0.49434  Biso   1.000  I
  Zn8      1.0000 0.92060  0.37920  0.40544  Biso   1.000  Zn
  I16      1.0000 0.98013  0.35576  0.37197  Biso   1.000  I
  I17      1.0000 0.87893  0.26850  0.43640  Biso   1.000  I
  Zn9      1.0000 0.81960  0.84890  0.71990  Biso   1.000  Zn
  I18      1.0000 0.85920  0.81400  0.79660  Biso   1.000  I
  I19      1.0000 0.75230  0.78210  0.68920  Biso   1.000  I
  Zn10     1.0000 0.62790  0.59790  0.55720  Biso   1.000  Zn
  I20      1.0000 0.61681  0.74970  0.59128  Biso   1.000  I
  I21      1.0000 0.64817  0.57960  0.48365  Biso   1.000  I
  I22      1.0000 0.88560  0.25970  0.44293  Biso   1.000  I
  C73      1.0000 0.33790  0.45340  0.24760  Biso   1.000  C
  H49      1.0000 0.35910  0.47870  0.26820  Biso   1.000  H
  C74      1.0000 0.33340  0.36090  0.24710  Biso   1.000  C
  H50      1.0000 0.35070  0.32400  0.26740  Biso   1.000  H
  C75      1.0000 0.30330  0.32330  0.21650  Biso   1.000  C
  C76      1.0000 0.27900  0.38090  0.18780  Biso   1.000  C
  H51      1.0000 0.25800  0.35790  0.16610  Biso   1.000  H
  C77      1.0000 0.28600  0.47300  0.19150  Biso   1.000  C
  H52      1.0000 0.26950  0.51230  0.17170  Biso   1.000  H
  N25      1.0000 0.31450  0.50800  0.22140  Biso   1.000  N
  C78      1.0000 0.29620  0.22440  0.21660  Biso   1.000  C
  N26      1.0000 0.32103  0.17900  0.24770  Biso   1.000  N
  C79      1.0000 0.31180  0.09280  0.25090  Biso   1.000  C
  N27      1.0000 0.28146  0.05170  0.22630  Biso   1.000  N
  C80      1.0000 0.26000  0.10160  0.19440  Biso   1.000  C
  N28      1.0000 0.26629  0.18960  0.18830  Biso   1.000  N
  C81      1.0000 0.39450  0.02690  0.34270  Biso   1.000  C
  H53      1.0000 0.41930  0.05030  0.35680  Biso   1.000  H
  C82      1.0000 0.37130  0.07650  0.30930  Biso   1.000  C
  H54      1.0000 0.37940  0.13430  0.30170  Biso   1.000  H
  C83      1.0000 0.33690  0.04100  0.28780  Biso   1.000  C
  C84      1.0000 0.32550  0.95750  0.30000  Biso   1.000  C
  H55      1.0000 0.30150  0.93130  0.28510  Biso   1.000  H
  C85      1.0000 0.34930  0.91270  0.33420  Biso   1.000  C
  H56      1.0000 0.34140  0.85530  0.34260  Biso   1.000  H
  N29      1.0000 0.38300  0.94720  0.35580  Biso   1.000  N
  C86      1.0000 0.17440  0.05270  0.10270  Biso   1.000  C
  H57      1.0000 0.15840  0.08360  0.07870  Biso   1.000  H
  C87      1.0000 0.20360  0.09990  0.12960  Biso   1.000  C
  H58      1.0000 0.20690  0.16220  0.12470  Biso   1.000  H
  C88      1.0000 0.22780  0.05710  0.16370  Biso   1.000  C
  C89      1.0000 0.22020  0.96600  0.16970  Biso   1.000  C
  H59      1.0000 0.23610  0.93340  0.19310  Biso   1.000  H
  C90      1.0000 0.18990  0.92380  0.14180  Biso   1.000  C
  H60      1.0000 0.18490  0.86220  0.14670  Biso   1.000  H
  N30      1.0000 0.16719  0.96620  0.10820  Biso   1.000  N
  C91      1.0000 0.34610  0.71470  0.14420  Biso   1.000  C
  H61      1.0000 0.32060  0.74040  0.13950  Biso   1.000  H
  C92      1.0000 0.36920  0.73130  0.11370  Biso   1.000  C
  H62      1.0000 0.36000  0.76800  0.08860  Biso   1.000  H
  C93      1.0000 0.40630  0.69250  0.12070  Biso   1.000  C
  C94      1.0000 0.41890  0.64150  0.15770  Biso   1.000  C
  H63      1.0000 0.44420  0.61460  0.16340  Biso   1.000  H
  C95      1.0000 0.39340  0.63010  0.18670  Biso   1.000  C
  H64      1.0000 0.40220  0.59580  0.21270  Biso   1.000  H
  C96      1.0000 0.43190  0.70550  0.08850  Biso   1.000  C
  C97      1.0000 0.44810  0.78420  0.03320  Biso   1.000  C
  C98      1.0000 0.48110  0.65900  0.05810  Biso   1.000  C
  C99      1.0000 0.53300  0.59200  0.02270  Biso   1.000  C
  H65      1.0000 0.52470  0.62880  0.99740  Biso   1.000  H
  C100     1.0000 0.56370  0.53440  0.02500  Biso   1.000  C
  H66      1.0000 0.57640  0.53170  0.00080  Biso   1.000  H
  C101     1.0000 0.51390  0.59590  0.05780  Biso   1.000  C
  C102     1.0000 0.52590  0.53670  0.09260  Biso   1.000  C
  H67      1.0000 0.51250  0.53360  0.11630  Biso   1.000  H
  C103     1.0000 0.55800  0.48260  0.09190  Biso   1.000  C
  H68      1.0000 0.56680  0.44380  0.11630  Biso   1.000  H
  C104     1.0000 0.46350  0.96150  0.95200  Biso   1.000  C
  H69      1.0000 0.48200  0.97570  0.93450  Biso   1.000  H
  C105     1.0000 0.46960  0.88500  0.97840  Biso   1.000  C
  H70      1.0000 0.49160  0.84730  0.97860  Biso   1.000  H
  C106     1.0000 0.44310  0.86540  0.00400  Biso   1.000  C
  C107     1.0000 0.41140  0.92050  0.00250  Biso   1.000  C
  H71      1.0000 0.39240  0.90770  0.01970  Biso   1.000  H
  C108     1.0000 0.40760  0.99540  0.97530  Biso   1.000  C
  H72      1.0000 0.38580  0.03420  0.97460  Biso   1.000  H
  N31      1.0000 0.35800  0.66430  0.17970  Biso   1.000  N
  N32      1.0000 0.42420  0.77660  0.06180  Biso   1.000  N
  N33      1.0000 0.47610  0.72510  0.02864  Biso   1.000  N
  N34      1.0000 0.46034  0.64570  0.08910  Biso   1.000  N
  N35      1.0000 0.57700  0.48160  0.05960  Biso   1.000  N
  N36      1.0000 0.43280  0.01540  0.95030  Biso   1.000  N
  Zn11     1.0000 0.32610  0.64360  0.22940  Biso   1.000  Zn
  I23      1.0000 0.37157  0.66900  0.30341  Biso   1.000  I
  I24      1.0000 0.26312  0.73250  0.20295  Biso   1.000  I
  Zn12     1.0000 0.12360  0.89640  0.06750  Biso   1.000  Zn
  I25      1.0000 0.10764  0.75537  0.10669  Biso   1.000  I
  I26      1.0000 0.14528  0.90120  0.99434  Biso   1.000  I
  Zn13     1.0000 0.42060  0.12080  0.90544  Biso   1.000  Zn
  I27      1.0000 0.48013  0.14424  0.87197  Biso   1.000  I
  I28      1.0000 0.37893  0.23150  0.93640  Biso   1.000  I
  Zn14     1.0000 0.31960  0.65110  0.21990  Biso   1.000  Zn
  I29      1.0000 0.35920  0.68600  0.29660  Biso   1.000  I
  I30      1.0000 0.25230  0.71790  0.18920  Biso   1.000  I
  Zn15     1.0000 0.12790  0.90210  0.05720  Biso   1.000  Zn
  I31      1.0000 0.11681  0.75030  0.09128  Biso   1.000  I
  I32      1.0000 0.14817  0.92040  0.98365  Biso   1.000  I
  I33      1.0000 0.38560  0.24030  0.94293  Biso   1.000  I
  C109     1.0000 0.83790  0.95340  0.24760  Biso   1.000  C
  H73      1.0000 0.85910  0.97870  0.26820  Biso   1.000  H
  C110     1.0000 0.83340  0.86090  0.24710  Biso   1.000  C
  H74      1.0000 0.85070  0.82400  0.26740  Biso   1.000  H
  C111     1.0000 0.80330  0.82330  0.21650  Biso   1.000  C
  C112     1.0000 0.77900  0.88090  0.18780  Biso   1.000  C
  H75      1.0000 0.75800  0.85790  0.16610  Biso   1.000  H
  C113     1.0000 0.78600  0.97300  0.19150  Biso   1.000  C
  H76      1.0000 0.76950  0.01230  0.17170  Biso   1.000  H
  N37      1.0000 0.81450  0.00800  0.22140  Biso   1.000  N
  C114     1.0000 0.79620  0.72440  0.21660  Biso   1.000  C
  N38      1.0000 0.82103  0.67900  0.24770  Biso   1.000  N
  C115     1.0000 0.81180  0.59280  0.25090  Biso   1.000  C
  N39      1.0000 0.78146  0.55170  0.22630  Biso   1.000  N
  C116     1.0000 0.76000  0.60160  0.19440  Biso   1.000  C
  N40      1.0000 0.76629  0.68960  0.18830  Biso   1.000  N
  C117     1.0000 0.89450  0.52690  0.34270  Biso   1.000  C
  H77      1.0000 0.91930  0.55030  0.35680  Biso   1.000  H
  C118     1.0000 0.87130  0.57650  0.30930  Biso   1.000  C
  H78      1.0000 0.87940  0.63430  0.30170  Biso   1.000  H
  C119     1.0000 0.83690  0.54100  0.28780  Biso   1.000  C
  C120     1.0000 0.82550  0.45750  0.30000  Biso   1.000  C
  H79      1.0000 0.80150  0.43130  0.28510  Biso   1.000  H
  C121     1.0000 0.84930  0.41270  0.33420  Biso   1.000  C
  H80      1.0000 0.84140  0.35530  0.34260  Biso   1.000  H
  N41      1.0000 0.88300  0.44720  0.35580  Biso   1.000  N
  C122     1.0000 0.67440  0.55270  0.10270  Biso   1.000  C
  H81      1.0000 0.65840  0.58360  0.07870  Biso   1.000  H
  C123     1.0000 0.70360  0.59990  0.12960  Biso   1.000  C
  H82      1.0000 0.70690  0.66220  0.12470  Biso   1.000  H
  C124     1.0000 0.72780  0.55710  0.16370  Biso   1.000  C
  C125     1.0000 0.72020  0.46600  0.16970  Biso   1.000  C
  H83      1.0000 0.73610  0.43340  0.19310  Biso   1.000  H
  C126     1.0000 0.68990  0.42380  0.14180  Biso   1.000  C
  H84      1.0000 0.68490  0.36220  0.14670  Biso   1.000  H
  N42      1.0000 0.66719  0.46620  0.10820  Biso   1.000  N
  C127     1.0000 0.84610  0.21470  0.14420  Biso   1.000  C
  H85      1.0000 0.82060  0.24040  0.13950  Biso   1.000  H
  C128     1.0000 0.86920  0.23130  0.11370  Biso   1.000  C
  H86      1.0000 0.86000  0.26800  0.08860  Biso   1.000  H
  C129     1.0000 0.90630  0.19250  0.12070  Biso   1.000  C
  C130     1.0000 0.91890  0.14150  0.15770  Biso   1.000  C
  H87      1.0000 0.94420  0.11460  0.16340  Biso   1.000  H
  C131     1.0000 0.89340  0.13010  0.18670  Biso   1.000  C
  H88      1.0000 0.90220  0.09580  0.21270  Biso   1.000  H
  C132     1.0000 0.93190  0.20550  0.08850  Biso   1.000  C
  C133     1.0000 0.94810  0.28420  0.03320  Biso   1.000  C
  C134     1.0000 0.98110  0.15900  0.05810  Biso   1.000  C
  C135     1.0000 0.03300  0.09200  0.02270  Biso   1.000  C
  H89      1.0000 0.02470  0.12880  0.99740  Biso   1.000  H
  C136     1.0000 0.06370  0.03440  0.02500  Biso   1.000  C
  H90      1.0000 0.07640  0.03170  0.00080  Biso   1.000  H
  C137     1.0000 0.01390  0.09590  0.05780  Biso   1.000  C
  C138     1.0000 0.02590  0.03670  0.09260  Biso   1.000  C
  H91      1.0000 0.01250  0.03360  0.11630  Biso   1.000  H
  C139     1.0000 0.05800  0.98260  0.09190  Biso   1.000  C
  H92      1.0000 0.06680  0.94380  0.11630  Biso   1.000  H
  C140     1.0000 0.96350  0.46150  0.95200  Biso   1.000  C
  H93      1.0000 0.98200  0.47570  0.93450  Biso   1.000  H
  C141     1.0000 0.96960  0.38500  0.97840  Biso   1.000  C
  H94      1.0000 0.99160  0.34730  0.97860  Biso   1.000  H
  C142     1.0000 0.94310  0.36540  0.00400  Biso   1.000  C
  C143     1.0000 0.91140  0.42050  0.00250  Biso   1.000  C
  H95      1.0000 0.89240  0.40770  0.01970  Biso   1.000  H
  C144     1.0000 0.90760  0.49540  0.97530  Biso   1.000  C
  H96      1.0000 0.88580  0.53420  0.97460  Biso   1.000  H
  N43      1.0000 0.85800  0.16430  0.17970  Biso   1.000  N
  N44      1.0000 0.92420  0.27660  0.06180  Biso   1.000  N
  N45      1.0000 0.97610  0.22510  0.02864  Biso   1.000  N
  N46      1.0000 0.96034  0.14570  0.08910  Biso   1.000  N
  N47      1.0000 0.07700  0.98160  0.05960  Biso   1.000  N
  N48      1.0000 0.93280  0.51540  0.95030  Biso   1.000  N
  Zn16     1.0000 0.82610  0.14360  0.22940  Biso   1.000  Zn
  I34      1.0000 0.87157  0.16900  0.30341  Biso   1.000  I
  I35      1.0000 0.76312  0.23250  0.20295  Biso   1.000  I
  Zn17     1.0000 0.62360  0.39640  0.06750  Biso   1.000  Zn
  I36      1.0000 0.60764  0.25537  0.10669  Biso   1.000  I
  I37      1.0000 0.64528  0.40120  0.99434  Biso   1.000  I
  Zn18     1.0000 0.92060  0.62080  0.90544  Biso   1.000  Zn
  I38      1.0000 0.98013  0.64424  0.87197  Biso   1.000  I
  I39      1.0000 0.87893  0.73150  0.93640  Biso   1.000  I
  Zn19     1.0000 0.81960  0.15110  0.21990  Biso   1.000  Zn
  I40      1.0000 0.85920  0.18600  0.29660  Biso   1.000  I
  I41      1.0000 0.75230  0.21790  0.18920  Biso   1.000  I
  Zn20     1.0000 0.62790  0.40210  0.05720  Biso   1.000  Zn
  I42      1.0000 0.61681  0.25030  0.09128  Biso   1.000  I
  I43      1.0000 0.64817  0.42040  0.98365  Biso   1.000  I
  I44      1.0000 0.88560  0.74030  0.94293  Biso   1.000  I
  C145     1.0000 0.66210  0.54660  0.75240  Biso   1.000  C
  H97      1.0000 0.64090  0.52130  0.73180  Biso   1.000  H
  C146     1.0000 0.66660  0.63910  0.75290  Biso   1.000  C
  H98      1.0000 0.64930  0.67600  0.73260  Biso   1.000  H
  C147     1.0000 0.69670  0.67670  0.78350  Biso   1.000  C
  C148     1.0000 0.72100  0.61910  0.81220  Biso   1.000  C
  H99      1.0000 0.74200  0.64210  0.83390  Biso   1.000  H
  C149     1.0000 0.71400  0.52700  0.80850  Biso   1.000  C
  H100     1.0000 0.73050  0.48770  0.82830  Biso   1.000  H
  N49      1.0000 0.68550  0.49200  0.77860  Biso   1.000  N
  C150     1.0000 0.70380  0.77560  0.78340  Biso   1.000  C
  N50      1.0000 0.67897  0.82100  0.75230  Biso   1.000  N
  C151     1.0000 0.68820  0.90720  0.74910  Biso   1.000  C
  N51      1.0000 0.71854  0.94830  0.77370  Biso   1.000  N
  C152     1.0000 0.74000  0.89840  0.80560  Biso   1.000  C
  N52      1.0000 0.73371  0.81040  0.81170  Biso   1.000  N
  C153     1.0000 0.60550  0.97310  0.65730  Biso   1.000  C
  H101     1.0000 0.58070  0.94970  0.64320  Biso   1.000  H
  C154     1.0000 0.62870  0.92350  0.69070  Biso   1.000  C
  H102     1.0000 0.62060  0.86570  0.69830  Biso   1.000  H
  C155     1.0000 0.66310  0.95900  0.71220  Biso   1.000  C
  C156     1.0000 0.67450  0.04250  0.70000  Biso   1.000  C
  H103     1.0000 0.69850  0.06870  0.71490  Biso   1.000  H
  C157     1.0000 0.65070  0.08730  0.66580  Biso   1.000  C
  H104     1.0000 0.65860  0.14470  0.65740  Biso   1.000  H
  N53      1.0000 0.61700  0.05280  0.64420  Biso   1.000  N
  C158     1.0000 0.82560  0.94730  0.89730  Biso   1.000  C
  H105     1.0000 0.84160  0.91640  0.92130  Biso   1.000  H
  C159     1.0000 0.79640  0.90010  0.87040  Biso   1.000  C
  H106     1.0000 0.79310  0.83780  0.87530  Biso   1.000  H
  C160     1.0000 0.77220  0.94290  0.83630  Biso   1.000  C
  C161     1.0000 0.77980  0.03400  0.83030  Biso   1.000  C
  H107     1.0000 0.76390  0.06660  0.80690  Biso   1.000  H
  C162     1.0000 0.81010  0.07620  0.85820  Biso   1.000  C
  H108     1.0000 0.81510  0.13780  0.85330  Biso   1.000  H
  N54      1.0000 0.83281  0.03380  0.89180  Biso   1.000  N
  C163     1.0000 0.65390  0.28530  0.85580  Biso   1.000  C
  H109     1.0000 0.67940  0.25960  0.86050  Biso   1.000  H
  C164     1.0000 0.63080  0.26870  0.88630  Biso   1.000  C
  H110     1.0000 0.64000  0.23200  0.91140  Biso   1.000  H
  C165     1.0000 0.59370  0.30750  0.87930  Biso   1.000  C
  C166     1.0000 0.58110  0.35850  0.84230  Biso   1.000  C
  H111     1.0000 0.55580  0.38540  0.83660  Biso   1.000  H
  C167     1.0000 0.60660  0.36990  0.81330  Biso   1.000  C
  H112     1.0000 0.59780  0.40420  0.78730  Biso   1.000  H
  C168     1.0000 0.56810  0.29450  0.91150  Biso   1.000  C
  C169     1.0000 0.55190  0.21580  0.96680  Biso   1.000  C
  C170     1.0000 0.51890  0.34100  0.94190  Biso   1.000  C
  C171     1.0000 0.46700  0.40800  0.97730  Biso   1.000  C
  H113     1.0000 0.47530  0.37120  0.00260  Biso   1.000  H
  C172     1.0000 0.43630  0.46560  0.97500  Biso   1.000  C
  H114     1.0000 0.42360  0.46830  0.99920  Biso   1.000  H
  C173     1.0000 0.48610  0.40410  0.94220  Biso   1.000  C
  C174     1.0000 0.47410  0.46330  0.90740  Biso   1.000  C
  H115     1.0000 0.48750  0.46640  0.88370  Biso   1.000  H
  C175     1.0000 0.44200  0.51740  0.90810  Biso   1.000  C
  H116     1.0000 0.43320  0.55620  0.88370  Biso   1.000  H
  C176     1.0000 0.53650  0.03850  0.04800  Biso   1.000  C
  H117     1.0000 0.51800  0.02430  0.06550  Biso   1.000  H
  C177     1.0000 0.53040  0.11500  0.02160  Biso   1.000  C
  H118     1.0000 0.50840  0.15270  0.02140  Biso   1.000  H
  C178     1.0000 0.55690  0.13460  0.99600  Biso   1.000  C
  C179     1.0000 0.58860  0.07950  0.99750  Biso   1.000  C
  H119     1.0000 0.60760  0.09230  0.98030  Biso   1.000  H
  C180     1.0000 0.59240  0.00460  0.02470  Biso   1.000  C
  H120     1.0000 0.61420  0.96580  0.02540  Biso   1.000  H
  N55      1.0000 0.64200  0.33570  0.82030  Biso   1.000  N
  N56      1.0000 0.57580  0.22340  0.93820  Biso   1.000  N
  N57      1.0000 0.52390  0.27490  0.97136  Biso   1.000  N
  N58      1.0000 0.53966  0.35430  0.91090  Biso   1.000  N
  N59      1.0000 0.42300  0.51840  0.94040  Biso   1.000  N
  N60      1.0000 0.56720  0.98460  0.04970  Biso   1.000  N
  Zn21     1.0000 0.67390  0.35640  0.77060  Biso   1.000  Zn
  I45      1.0000 0.62843  0.33100  0.69659  Biso   1.000  I
  I46      1.0000 0.73688  0.26750  0.79705  Biso   1.000  I
  Zn22     1.0000 0.87640  0.10360  0.93250  Biso   1.000  Zn
  I47      1.0000 0.89236  0.24463  0.89331  Biso   1.000  I
  I48      1.0000 0.85472  0.09880  0.00566  Biso   1.000  I
  Zn23     1.0000 0.57940  0.87920  0.09456  Biso   1.000  Zn
  I49      1.0000 0.51987  0.85576  0.12803  Biso   1.000  I
  I50      1.0000 0.62107  0.76850  0.06360  Biso   1.000  I
  Zn24     1.0000 0.68040  0.34890  0.78010  Biso   1.000  Zn
  I51      1.0000 0.64080  0.31400  0.70340  Biso   1.000  I
  I52      1.0000 0.74770  0.28210  0.81080  Biso   1.000  I
  Zn25     1.0000 0.87210  0.09790  0.94280  Biso   1.000  Zn
  I53      1.0000 0.88319  0.24970  0.90872  Biso   1.000  I
  I54      1.0000 0.85183  0.07960  0.01635  Biso   1.000  I
  I55      1.0000 0.61440  0.75970  0.05707  Biso   1.000  I
  C181     1.0000 0.16210  0.04660  0.75240  Biso   1.000  C
  H121     1.0000 0.14090  0.02130  0.73180  Biso   1.000  H
  C182     1.0000 0.16660  0.13910  0.75290  Biso   1.000  C
  H122     1.0000 0.14930  0.17600  0.73260  Biso   1.000  H
  C183     1.0000 0.19670  0.17670  0.78350  Biso   1.000  C
  C184     1.0000 0.22100  0.11910  0.81220  Biso   1.000  C
  H123     1.0000 0.24200  0.14210  0.83390  Biso   1.000  H
  C185     1.0000 0.21400  0.02700  0.80850  Biso   1.000  C
  H124     1.0000 0.23050  0.98770  0.82830  Biso   1.000  H
  N61      1.0000 0.18550  0.99200  0.77860  Biso   1.000  N
  C186     1.0000 0.20380  0.27560  0.78340  Biso   1.000  C
  N62      1.0000 0.17897  0.32100  0.75230  Biso   1.000  N
  C187     1.0000 0.18820  0.40720  0.74910  Biso   1.000  C
  N63      1.0000 0.21854  0.44830  0.77370  Biso   1.000  N
  C188     1.0000 0.24000  0.39840  0.80560  Biso   1.000  C
  N64      1.0000 0.23371  0.31040  0.81170  Biso   1.000  N
  C189     1.0000 0.10550  0.47310  0.65730  Biso   1.000  C
  H125     1.0000 0.08070  0.44970  0.64320  Biso   1.000  H
  C190     1.0000 0.12870  0.42350  0.69070  Biso   1.000  C
  H126     1.0000 0.12060  0.36570  0.69830  Biso   1.000  H
  C191     1.0000 0.16310  0.45900  0.71220  Biso   1.000  C
  C192     1.0000 0.17450  0.54250  0.70000  Biso   1.000  C
  H127     1.0000 0.19850  0.56870  0.71490  Biso   1.000  H
  C193     1.0000 0.15070  0.58730  0.66580  Biso   1.000  C
  H128     1.0000 0.15860  0.64470  0.65740  Biso   1.000  H
  N65      1.0000 0.11700  0.55280  0.64420  Biso   1.000  N
  C194     1.0000 0.32560  0.44730  0.89730  Biso   1.000  C
  H129     1.0000 0.34160  0.41640  0.92130  Biso   1.000  H
  C195     1.0000 0.29640  0.40010  0.87040  Biso   1.000  C
  H130     1.0000 0.29310  0.33780  0.87530  Biso   1.000  H
  C196     1.0000 0.27220  0.44290  0.83630  Biso   1.000  C
  C197     1.0000 0.27980  0.53400  0.83030  Biso   1.000  C
  H131     1.0000 0.26390  0.56660  0.80690  Biso   1.000  H
  C198     1.0000 0.31010  0.57620  0.85820  Biso   1.000  C
  H132     1.0000 0.31510  0.63780  0.85330  Biso   1.000  H
  N66      1.0000 0.33281  0.53380  0.89180  Biso   1.000  N
  C199     1.0000 0.15390  0.78530  0.85580  Biso   1.000  C
  H133     1.0000 0.17940  0.75960  0.86050  Biso   1.000  H
  C200     1.0000 0.13080  0.76870  0.88630  Biso   1.000  C
  H134     1.0000 0.14000  0.73200  0.91140  Biso   1.000  H
  C201     1.0000 0.09370  0.80750  0.87930  Biso   1.000  C
  C202     1.0000 0.08110  0.85850  0.84230  Biso   1.000  C
  H135     1.0000 0.05580  0.88540  0.83660  Biso   1.000  H
  C203     1.0000 0.10660  0.86990  0.81330  Biso   1.000  C
  H136     1.0000 0.09780  0.90420  0.78730  Biso   1.000  H
  C204     1.0000 0.06810  0.79450  0.91150  Biso   1.000  C
  C205     1.0000 0.05190  0.71580  0.96680  Biso   1.000  C
  C206     1.0000 0.01890  0.84100  0.94190  Biso   1.000  C
  C207     1.0000 0.96700  0.90800  0.97730  Biso   1.000  C
  H137     1.0000 0.97530  0.87120  0.00260  Biso   1.000  H
  C208     1.0000 0.93630  0.96560  0.97500  Biso   1.000  C
  H138     1.0000 0.92360  0.96830  0.99920  Biso   1.000  H
  C209     1.0000 0.98610  0.90410  0.94220  Biso   1.000  C
  C210     1.0000 0.97410  0.96330  0.90740  Biso   1.000  C
  H139     1.0000 0.98750  0.96640  0.88370  Biso   1.000  H
  C211     1.0000 0.94200  0.01740  0.90810  Biso   1.000  C
  H140     1.0000 0.93320  0.05620  0.88370  Biso   1.000  H
  C212     1.0000 0.03650  0.53850  0.04800  Biso   1.000  C
  H141     1.0000 0.01800  0.52430  0.06550  Biso   1.000  H
  C213     1.0000 0.03040  0.61500  0.02160  Biso   1.000  C
  H142     1.0000 0.00840  0.65270  0.02140  Biso   1.000  H
  C214     1.0000 0.05690  0.63460  0.99600  Biso   1.000  C
  C215     1.0000 0.08860  0.57950  0.99750  Biso   1.000  C
  H143     1.0000 0.10760  0.59230  0.98030  Biso   1.000  H
  C216     1.0000 0.09240  0.50460  0.02470  Biso   1.000  C
  H144     1.0000 0.11420  0.46580  0.02540  Biso   1.000  H
  N67      1.0000 0.14200  0.83570  0.82030  Biso   1.000  N
  N68      1.0000 0.07580  0.72340  0.93820  Biso   1.000  N
  N69      1.0000 0.02390  0.77490  0.97136  Biso   1.000  N
  N70      1.0000 0.03966  0.85430  0.91090  Biso   1.000  N
  N71      1.0000 0.92300  0.01840  0.94040  Biso   1.000  N
  N72      1.0000 0.06720  0.48460  0.04970  Biso   1.000  N
  Zn26     1.0000 0.17390  0.85640  0.77060  Biso   1.000  Zn
  I56      1.0000 0.12843  0.83100  0.69659  Biso   1.000  I
  I57      1.0000 0.23688  0.76750  0.79705  Biso   1.000  I
  Zn27     1.0000 0.37640  0.60360  0.93250  Biso   1.000  Zn
  I58      1.0000 0.39236  0.74463  0.89331  Biso   1.000  I
  I59      1.0000 0.35472  0.59880  0.00566  Biso   1.000  I
  Zn28     1.0000 0.07940  0.37920  0.09456  Biso   1.000  Zn
  I60      1.0000 0.01987  0.35576  0.12803  Biso   1.000  I
  I61      1.0000 0.12107  0.26850  0.06360  Biso   1.000  I
  Zn29     1.0000 0.18040  0.84890  0.78010  Biso   1.000  Zn
  I62      1.0000 0.14080  0.81400  0.70340  Biso   1.000  I
  I63      1.0000 0.24770  0.78210  0.81080  Biso   1.000  I
  Zn30     1.0000 0.37210  0.59790  0.94280  Biso   1.000  Zn
  I64      1.0000 0.38319  0.74970  0.90872  Biso   1.000  I
  I65      1.0000 0.35183  0.57960  0.01635  Biso   1.000  I
  I66      1.0000 0.11440  0.25970  0.05707  Biso   1.000  I
  C217     1.0000 0.66210  0.45340  0.25240  Biso   1.000  C
  H145     1.0000 0.64090  0.47870  0.23180  Biso   1.000  H
  C218     1.0000 0.66660  0.36090  0.25290  Biso   1.000  C
  H146     1.0000 0.64930  0.32400  0.23260  Biso   1.000  H
  C219     1.0000 0.69670  0.32330  0.28350  Biso   1.000  C
  C220     1.0000 0.72100  0.38090  0.31220  Biso   1.000  C
  H147     1.0000 0.74200  0.35790  0.33390  Biso   1.000  H
  C221     1.0000 0.71400  0.47300  0.30850  Biso   1.000  C
  H148     1.0000 0.73050  0.51230  0.32830  Biso   1.000  H
  N73      1.0000 0.68550  0.50800  0.27860  Biso   1.000  N
  C222     1.0000 0.70380  0.22440  0.28340  Biso   1.000  C
  N74      1.0000 0.67897  0.17900  0.25230  Biso   1.000  N
  C223     1.0000 0.68820  0.09280  0.24910  Biso   1.000  C
  N75      1.0000 0.71854  0.05170  0.27370  Biso   1.000  N
  C224     1.0000 0.74000  0.10160  0.30560  Biso   1.000  C
  N76      1.0000 0.73371  0.18960  0.31170  Biso   1.000  N
  C225     1.0000 0.60550  0.02690  0.15730  Biso   1.000  C
  H149     1.0000 0.58070  0.05030  0.14320  Biso   1.000  H
  C226     1.0000 0.62870  0.07650  0.19070  Biso   1.000  C
  H150     1.0000 0.62060  0.13430  0.19830  Biso   1.000  H
  C227     1.0000 0.66310  0.04100  0.21220  Biso   1.000  C
  C228     1.0000 0.67450  0.95750  0.20000  Biso   1.000  C
  H151     1.0000 0.69850  0.93130  0.21490  Biso   1.000  H
  C229     1.0000 0.65070  0.91270  0.16580  Biso   1.000  C
  H152     1.0000 0.65860  0.85530  0.15740  Biso   1.000  H
  N77      1.0000 0.61700  0.94720  0.14420  Biso   1.000  N
  C230     1.0000 0.82560  0.05270  0.39730  Biso   1.000  C
  H153     1.0000 0.84160  0.08360  0.42130  Biso   1.000  H
  C231     1.0000 0.79640  0.09990  0.37040  Biso   1.000  C
  H154     1.0000 0.79310  0.16220  0.37530  Biso   1.000  H
  C232     1.0000 0.77220  0.05710  0.33630  Biso   1.000  C
  C233     1.0000 0.77980  0.96600  0.33030  Biso   1.000  C
  H155     1.0000 0.76390  0.93340  0.30690  Biso   1.000  H
  C234     1.0000 0.81010  0.92380  0.35820  Biso   1.000  C
  H156     1.0000 0.81510  0.86220  0.35330  Biso   1.000  H
  N78      1.0000 0.83281  0.96620  0.39180  Biso   1.000  N
  C235     1.0000 0.65390  0.71470  0.35580  Biso   1.000  C
  H157     1.0000 0.67940  0.74040  0.36050  Biso   1.000  H
  C236     1.0000 0.63080  0.73130  0.38630  Biso   1.000  C
  H158     1.0000 0.64000  0.76800  0.41140  Biso   1.000  H
  C237     1.0000 0.59370  0.69250  0.37930  Biso   1.000  C
  C238     1.0000 0.58110  0.64150  0.34230  Biso   1.000  C
  H159     1.0000 0.55580  0.61460  0.33660  Biso   1.000  H
  C239     1.0000 0.60660  0.63010  0.31330  Biso   1.000  C
  H160     1.0000 0.59780  0.59580  0.28730  Biso   1.000  H
  C240     1.0000 0.56810  0.70550  0.41150  Biso   1.000  C
  C241     1.0000 0.55190  0.78420  0.46680  Biso   1.000  C
  C242     1.0000 0.51890  0.65900  0.44190  Biso   1.000  C
  C243     1.0000 0.46700  0.59200  0.47730  Biso   1.000  C
  H161     1.0000 0.47530  0.62880  0.50260  Biso   1.000  H
  C244     1.0000 0.43630  0.53440  0.47500  Biso   1.000  C
  H162     1.0000 0.42360  0.53170  0.49920  Biso   1.000  H
  C245     1.0000 0.48610  0.59590  0.44220  Biso   1.000  C
  C246     1.0000 0.47410  0.53670  0.40740  Biso   1.000  C
  H163     1.0000 0.48750  0.53360  0.38370  Biso   1.000  H
  C247     1.0000 0.44200  0.48260  0.40810  Biso   1.000  C
  H164     1.0000 0.43320  0.44380  0.38370  Biso   1.000  H
  C248     1.0000 0.53650  0.96150  0.54800  Biso   1.000  C
  H165     1.0000 0.51800  0.97570  0.56550  Biso   1.000  H
  C249     1.0000 0.53040  0.88500  0.52160  Biso   1.000  C
  H166     1.0000 0.50840  0.84730  0.52140  Biso   1.000  H
  C250     1.0000 0.55690  0.86540  0.49600  Biso   1.000  C
  C251     1.0000 0.58860  0.92050  0.49750  Biso   1.000  C
  H167     1.0000 0.60760  0.90770  0.48030  Biso   1.000  H
  C252     1.0000 0.59240  0.99540  0.52470  Biso   1.000  C
  H168     1.0000 0.61420  0.03420  0.52540  Biso   1.000  H
  N79      1.0000 0.64200  0.66430  0.32030  Biso   1.000  N
  N80      1.0000 0.57580  0.77660  0.43820  Biso   1.000  N
  N81      1.0000 0.52390  0.72510  0.47136  Biso   1.000  N
  N82      1.0000 0.53966  0.64570  0.41090  Biso   1.000  N
  N83      1.0000 0.42300  0.48160  0.44040  Biso   1.000  N
  N84      1.0000 0.56720  0.01540  0.54970  Biso   1.000  N
  Zn31     1.0000 0.67390  0.64360  0.27060  Biso   1.000  Zn
  I67      1.0000 0.62843  0.66900  0.19659  Biso   1.000  I
  I68      1.0000 0.73688  0.73250  0.29705  Biso   1.000  I
  Zn32     1.0000 0.87640  0.89640  0.43250  Biso   1.000  Zn
  I69      1.0000 0.89236  0.75537  0.39331  Biso   1.000  I
  I70      1.0000 0.85472  0.90120  0.50566  Biso   1.000  I
  Zn33     1.0000 0.57940  0.12080  0.59456  Biso   1.000  Zn
  I71      1.0000 0.51987  0.14424  0.62803  Biso   1.000  I
  I72      1.0000 0.62107  0.23150  0.56360  Biso   1.000  I
  Zn34     1.0000 0.68040  0.65110  0.28010  Biso   1.000  Zn
  I73      1.0000 0.64080  0.68600  0.20340  Biso   1.000  I
  I74      1.0000 0.74770  0.71790  0.31080  Biso   1.000  I
  Zn35     1.0000 0.87210  0.90210  0.44280  Biso   1.000  Zn
  I75      1.0000 0.88319  0.75030  0.40872  Biso   1.000  I
  I76      1.0000 0.85183  0.92040  0.51635  Biso   1.000  I
  I77      1.0000 0.61440  0.24030  0.55707  Biso   1.000  I
  C253     1.0000 0.16210  0.95340  0.25240  Biso   1.000  C
  H169     1.0000 0.14090  0.97870  0.23180  Biso   1.000  H
  C254     1.0000 0.16660  0.86090  0.25290  Biso   1.000  C
  H170     1.0000 0.14930  0.82400  0.23260  Biso   1.000  H
  C255     1.0000 0.19670  0.82330  0.28350  Biso   1.000  C
  C256     1.0000 0.22100  0.88090  0.31220  Biso   1.000  C
  H171     1.0000 0.24200  0.85790  0.33390  Biso   1.000  H
  C257     1.0000 0.21400  0.97300  0.30850  Biso   1.000  C
  H172     1.0000 0.23050  0.01230  0.32830  Biso   1.000  H
  N85      1.0000 0.18550  0.00800  0.27860  Biso   1.000  N
  C258     1.0000 0.20380  0.72440  0.28340  Biso   1.000  C
  N86      1.0000 0.17897  0.67900  0.25230  Biso   1.000  N
  C259     1.0000 0.18820  0.59280  0.24910  Biso   1.000  C
  N87      1.0000 0.21854  0.55170  0.27370  Biso   1.000  N
  C260     1.0000 0.24000  0.60160  0.30560  Biso   1.000  C
  N88      1.0000 0.23371  0.68960  0.31170  Biso   1.000  N
  C261     1.0000 0.10550  0.52690  0.15730  Biso   1.000  C
  H173     1.0000 0.08070  0.55030  0.14320  Biso   1.000  H
  C262     1.0000 0.12870  0.57650  0.19070  Biso   1.000  C
  H174     1.0000 0.12060  0.63430  0.19830  Biso   1.000  H
  C263     1.0000 0.16310  0.54100  0.21220  Biso   1.000  C
  C264     1.0000 0.17450  0.45750  0.20000  Biso   1.000  C
  H175     1.0000 0.19850  0.43130  0.21490  Biso   1.000  H
  C265     1.0000 0.15070  0.41270  0.16580  Biso   1.000  C
  H176     1.0000 0.15860  0.35530  0.15740  Biso   1.000  H
  N89      1.0000 0.11700  0.44720  0.14420  Biso   1.000  N
  C266     1.0000 0.32560  0.55270  0.39730  Biso   1.000  C
  H177     1.0000 0.34160  0.58360  0.42130  Biso   1.000  H
  C267     1.0000 0.29640  0.59990  0.37040  Biso   1.000  C
  H178     1.0000 0.29310  0.66220  0.37530  Biso   1.000  H
  C268     1.0000 0.27220  0.55710  0.33630  Biso   1.000  C
  C269     1.0000 0.27980  0.46600  0.33030  Biso   1.000  C
  H179     1.0000 0.26390  0.43340  0.30690  Biso   1.000  H
  C270     1.0000 0.31010  0.42380  0.35820  Biso   1.000  C
  H180     1.0000 0.31510  0.36220  0.35330  Biso   1.000  H
  N90      1.0000 0.33281  0.46620  0.39180  Biso   1.000  N
  C271     1.0000 0.15390  0.21470  0.35580  Biso   1.000  C
  H181     1.0000 0.17940  0.24040  0.36050  Biso   1.000  H
  C272     1.0000 0.13080  0.23130  0.38630  Biso   1.000  C
  H182     1.0000 0.14000  0.26800  0.41140  Biso   1.000  H
  C273     1.0000 0.09370  0.19250  0.37930  Biso   1.000  C
  C274     1.0000 0.08110  0.14150  0.34230  Biso   1.000  C
  H183     1.0000 0.05580  0.11460  0.33660  Biso   1.000  H
  C275     1.0000 0.10660  0.13010  0.31330  Biso   1.000  C
  H184     1.0000 0.09780  0.09580  0.28730  Biso   1.000  H
  C276     1.0000 0.06810  0.20550  0.41150  Biso   1.000  C
  C277     1.0000 0.05190  0.28420  0.46680  Biso   1.000  C
  C278     1.0000 0.01890  0.15900  0.44190  Biso   1.000  C
  C279     1.0000 0.96700  0.09200  0.47730  Biso   1.000  C
  H185     1.0000 0.97530  0.12880  0.50260  Biso   1.000  H
  C280     1.0000 0.93630  0.03440  0.47500  Biso   1.000  C
  H186     1.0000 0.92360  0.03170  0.49920  Biso   1.000  H
  C281     1.0000 0.98610  0.09590  0.44220  Biso   1.000  C
  C282     1.0000 0.97410  0.03670  0.40740  Biso   1.000  C
  H187     1.0000 0.98750  0.03360  0.38370  Biso   1.000  H
  C283     1.0000 0.94200  0.98260  0.40810  Biso   1.000  C
  H188     1.0000 0.93320  0.94380  0.38370  Biso   1.000  H
  C284     1.0000 0.03650  0.46150  0.54800  Biso   1.000  C
  H189     1.0000 0.01800  0.47570  0.56550  Biso   1.000  H
  C285     1.0000 0.03040  0.38500  0.52160  Biso   1.000  C
  H190     1.0000 0.00840  0.34730  0.52140  Biso   1.000  H
  C286     1.0000 0.05690  0.36540  0.49600  Biso   1.000  C
  C287     1.0000 0.08860  0.42050  0.49750  Biso   1.000  C
  H191     1.0000 0.10760  0.40770  0.48030  Biso   1.000  H
  C288     1.0000 0.09240  0.49540  0.52470  Biso   1.000  C
  H192     1.0000 0.11420  0.53420  0.52540  Biso   1.000  H
  N91      1.0000 0.14200  0.16430  0.32030  Biso   1.000  N
  N92      1.0000 0.07580  0.27660  0.43820  Biso   1.000  N
  N93      1.0000 0.02390  0.22510  0.47136  Biso   1.000  N
  N94      1.0000 0.03966  0.14570  0.41090  Biso   1.000  N
  N95      1.0000 0.92300  0.98160  0.44040  Biso   1.000  N
  N96      1.0000 0.06720  0.51540  0.54970  Biso   1.000  N
  Zn36     1.0000 0.17390  0.14360  0.27060  Biso   1.000  Zn
  I78      1.0000 0.12843  0.16900  0.19659  Biso   1.000  I
  I79      1.0000 0.23688  0.23250  0.29705  Biso   1.000  I
  Zn37     1.0000 0.37640  0.39640  0.43250  Biso   1.000  Zn
  I80      1.0000 0.39236  0.25537  0.39331  Biso   1.000  I
  I81      1.0000 0.35472  0.40120  0.50566  Biso   1.000  I
  Zn38     1.0000 0.07940  0.62080  0.59456  Biso   1.000  Zn
  I82      1.0000 0.01987  0.64424  0.62803  Biso   1.000  I
  I83      1.0000 0.12107  0.73150  0.56360  Biso   1.000  I
  Zn39     1.0000 0.18040  0.15110  0.28010  Biso   1.000  Zn
  I84      1.0000 0.14080  0.18600  0.20340  Biso   1.000  I
  I85      1.0000 0.24770  0.21790  0.31080  Biso   1.000  I
  Zn40     1.0000 0.37210  0.40210  0.44280  Biso   1.000  Zn
  I86      1.0000 0.38319  0.25030  0.40872  Biso   1.000  I
  I87      1.0000 0.35183  0.42040  0.51635  Biso   1.000  I
  I88      1.0000 0.11440  0.74030  0.55707  Biso   1.000  I
