data_image0
_cell_length_a       35.0615
_cell_length_b       14.9665
_cell_length_c       30.3099
_cell_angle_alpha    90
_cell_angle_beta     101.487
_cell_angle_gamma    90

_symmetry_space_group_name_H-M    "P 1"
_symmetry_int_tables_number       1

loop_
  _symmetry_equiv_pos_as_xyz
  'x, y, z'

loop_
  _atom_site_label
  _atom_site_occupancy
  _atom_site_fract_x
  _atom_site_fract_y
  _atom_site_fract_z
  _atom_site_thermal_displace_type
  _atom_site_B_iso_or_equiv
  _atom_site_type_symbol
  I1       1.0000 0.35278  0.58690  0.51617  Biso   1.000  I
  Zn1      1.0000 0.37213  0.59356  0.44379  Biso   1.000  Zn
  N1       1.0000 0.32990  0.53130  0.39690  Biso   1.000  N
  N2       1.0000 0.41880  0.51040  0.44640  Biso   1.000  N
  I2       1.0000 0.38626  0.73630  0.41507  Biso   1.000  I
  C1       1.0000 0.30590  0.57620  0.36500  Biso   1.000  C
  C2       1.0000 0.32340  0.44490  0.40070  Biso   1.000  C
  H1       1.0000 0.30920  0.63900  0.36310  Biso   1.000  H
  C3       1.0000 0.27700  0.53640  0.33500  Biso   1.000  C
  C4       1.0000 0.29500  0.39890  0.37130  Biso   1.000  C
  H2       1.0000 0.33900  0.41290  0.42480  Biso   1.000  H
  H3       1.0000 0.26120  0.57090  0.31200  Biso   1.000  H
  C5       1.0000 0.27060  0.44460  0.33780  Biso   1.000  C
  H4       1.0000 0.29240  0.33610  0.37420  Biso   1.000  H
  C6       1.0000 0.23950  0.40080  0.30590  Biso   1.000  C
  N3       1.0000 0.21953  0.45130  0.27280  Biso   1.000  N
  N4       1.0000 0.23333  0.31260  0.31150  Biso   1.000  N
  C7       1.0000 0.19020  0.40970  0.24580  Biso   1.000  C
  C8       1.0000 0.20440  0.27820  0.28120  Biso   1.000  C
  C9       1.0000 0.16660  0.46030  0.20820  Biso   1.000  C
  N5       1.0000 0.18103  0.32340  0.24900  Biso   1.000  N
  C10      1.0000 0.19740  0.17960  0.28160  Biso   1.000  C
  C11      1.0000 0.17470  0.54910  0.20000  Biso   1.000  C
  C12      1.0000 0.13620  0.42070  0.17980  Biso   1.000  C
  C13      1.0000 0.16880  0.14260  0.24970  Biso   1.000  C
  C14      1.0000 0.22040  0.12320  0.31100  Biso   1.000  C
  C15      1.0000 0.15120  0.59210  0.16390  Biso   1.000  C
  H5       1.0000 0.19580  0.57950  0.21860  Biso   1.000  H
  H6       1.0000 0.13070  0.35920  0.18310  Biso   1.000  H
  C16      1.0000 0.11400  0.46950  0.14690  Biso   1.000  C
  C17      1.0000 0.16350  0.05170  0.24930  Biso   1.000  C
  H7       1.0000 0.15280  0.17920  0.22800  Biso   1.000  H
  H8       1.0000 0.24070  0.14590  0.33380  Biso   1.000  H
  C18      1.0000 0.21350  0.03300  0.30700  Biso   1.000  C
  H9       1.0000 0.15750  0.65180  0.15740  Biso   1.000  H
  N6       1.0000 0.12111  0.55480  0.13861  Biso   1.000  N
  H10      1.0000 0.09210  0.44150  0.12860  Biso   1.000  H
  H11      1.0000 0.14270  0.02730  0.22770  Biso   1.000  H
  N7       1.0000 0.18540  0.99670  0.27700  Biso   1.000  N
  H12      1.0000 0.23000  0.99430  0.32710  Biso   1.000  H
  Zn2      1.0000 0.08049  0.62609  0.09246  Biso   1.000  Zn
  Zn3      1.0000 0.17140  0.86060  0.26990  Biso   1.000  Zn
  I3       1.0000 0.02507  0.65405  0.13411  Biso   1.000  I
  I4       1.0000 0.11341  0.74100  0.05450  Biso   1.000  I
  N8       1.0000 0.06331  0.52370  0.04638  Biso   1.000  N
  N9       1.0000 0.13940  0.84400  0.32030  Biso   1.000  N
  I5       1.0000 0.23860  0.77460  0.30360  Biso   1.000  I
  I6       1.0000 0.12664  0.83840  0.19357  Biso   1.000  I
  C19      1.0000 0.10540  0.88310  0.31490  Biso   1.000  C
  C20      1.0000 0.14990  0.78900  0.35550  Biso   1.000  C
  C21      1.0000 0.08020  0.87060  0.34450  Biso   1.000  C
  H13      1.0000 0.09760  0.92150  0.28980  Biso   1.000  H
  C22      1.0000 0.12590  0.77120  0.38560  Biso   1.000  C
  H14      1.0000 0.17470  0.76120  0.35990  Biso   1.000  H
  C23      1.0000 0.09040  0.81160  0.38040  Biso   1.000  C
  H15      1.0000 0.05620  0.90220  0.34030  Biso   1.000  H
  H16      1.0000 0.13410  0.73090  0.40990  Biso   1.000  H
  C24      1.0000 0.06490  0.79660  0.41210  Biso   1.000  C
  N10      1.0000 0.07140  0.72290  0.43770  Biso   1.000  N
  N11      1.0000 0.03620  0.85600  0.41390  Biso   1.000  N
  C25      1.0000 0.04740  0.71320  0.46660  Biso   1.000  C
  C26      1.0000 0.01510  0.83850  0.44470  Biso   1.000  C
  N12      1.0000 0.01999  0.77020  0.47283  Biso   1.000  N
  C27      1.0000 0.05260  0.62920  0.49450  Biso   1.000  C
  C28      1.0000 0.98250  0.89980  0.44580  Biso   1.000  C
  C29      1.0000 0.08030  0.56830  0.48910  Biso   1.000  C
  C30      1.0000 0.02890  0.61090  0.52400  Biso   1.000  C
  C31      1.0000 0.96490  0.94660  0.40900  Biso   1.000  C
  C32      1.0000 0.96600  0.90800  0.48410  Biso   1.000  C
  C33      1.0000 0.08500  0.49310  0.51620  Biso   1.000  C
  H17      1.0000 0.09600  0.57730  0.46720  Biso   1.000  H
  H18      1.0000 0.00840  0.65050  0.52710  Biso   1.000  H
  C34      1.0000 0.03520  0.53370  0.54940  Biso   1.000  C
  C35      1.0000 0.93380  0.99950  0.40960  Biso   1.000  C
  H19      1.0000 0.97470  0.94200  0.38210  Biso   1.000  H
  C36      1.0000 0.93500  0.96360  0.48300  Biso   1.000  C
  H20      1.0000 0.97640  0.87520  0.51060  Biso   1.000  H
  H21      1.0000 0.10470  0.45150  0.51310  Biso   1.000  H
  H22      1.0000 0.01870  0.52120  0.57000  Biso   1.000  H
  H23      1.0000 0.92220  0.03010  0.38280  Biso   1.000  H
  H24      1.0000 0.92440  0.96930  0.50930  Biso   1.000  H
  Zn4      1.0000 0.35920  0.58860  0.46090  Biso   1.000  Zn
  Zn5      1.0000 0.67760  0.36080  0.27940  Biso   1.000  Zn
  I7       1.0000 0.34260  0.55920  0.52460  Biso   1.000  I
  I8       1.0000 0.39200  0.74000  0.40180  Biso   1.000  I
  I9       1.0000 0.03040  0.65660  0.12820  Biso   1.000  I
  I10      1.0000 0.12130  0.73510  0.05350  Biso   1.000  I
  I11      1.0000 0.73200  0.26700  0.29378  Biso   1.000  I
  I12      1.0000 0.73900  0.29120  0.31900  Biso   1.000  I
  I13      1.0000 0.63580  0.32870  0.20130  Biso   1.000  I
  I14      1.0000 0.85278  0.08690  0.51617  Biso   1.000  I
  Zn6      1.0000 0.87213  0.09356  0.44379  Biso   1.000  Zn
  N13      1.0000 0.82990  0.03130  0.39690  Biso   1.000  N
  N14      1.0000 0.91880  0.01040  0.44640  Biso   1.000  N
  I15      1.0000 0.88626  0.23630  0.41507  Biso   1.000  I
  C37      1.0000 0.80590  0.07620  0.36500  Biso   1.000  C
  C38      1.0000 0.82340  0.94490  0.40070  Biso   1.000  C
  H25      1.0000 0.80920  0.13900  0.36310  Biso   1.000  H
  C39      1.0000 0.77700  0.03640  0.33500  Biso   1.000  C
  C40      1.0000 0.79500  0.89890  0.37130  Biso   1.000  C
  H26      1.0000 0.83900  0.91290  0.42480  Biso   1.000  H
  H27      1.0000 0.76120  0.07090  0.31200  Biso   1.000  H
  C41      1.0000 0.77060  0.94460  0.33780  Biso   1.000  C
  H28      1.0000 0.79240  0.83610  0.37420  Biso   1.000  H
  C42      1.0000 0.73950  0.90080  0.30590  Biso   1.000  C
  N15      1.0000 0.71953  0.95130  0.27280  Biso   1.000  N
  N16      1.0000 0.73333  0.81260  0.31150  Biso   1.000  N
  C43      1.0000 0.69020  0.90970  0.24580  Biso   1.000  C
  C44      1.0000 0.70440  0.77820  0.28120  Biso   1.000  C
  C45      1.0000 0.66660  0.96030  0.20820  Biso   1.000  C
  N17      1.0000 0.68103  0.82340  0.24900  Biso   1.000  N
  C46      1.0000 0.69740  0.67960  0.28160  Biso   1.000  C
  C47      1.0000 0.67470  0.04910  0.20000  Biso   1.000  C
  C48      1.0000 0.63620  0.92070  0.17980  Biso   1.000  C
  C49      1.0000 0.66880  0.64260  0.24970  Biso   1.000  C
  C50      1.0000 0.72040  0.62320  0.31100  Biso   1.000  C
  C51      1.0000 0.65120  0.09210  0.16390  Biso   1.000  C
  H29      1.0000 0.69580  0.07950  0.21860  Biso   1.000  H
  H30      1.0000 0.63070  0.85920  0.18310  Biso   1.000  H
  C52      1.0000 0.61400  0.96950  0.14690  Biso   1.000  C
  C53      1.0000 0.66350  0.55170  0.24930  Biso   1.000  C
  H31      1.0000 0.65280  0.67920  0.22800  Biso   1.000  H
  H32      1.0000 0.74070  0.64590  0.33380  Biso   1.000  H
  C54      1.0000 0.71350  0.53300  0.30700  Biso   1.000  C
  H33      1.0000 0.65750  0.15180  0.15740  Biso   1.000  H
  N18      1.0000 0.62111  0.05480  0.13861  Biso   1.000  N
  H34      1.0000 0.59210  0.94150  0.12860  Biso   1.000  H
  H35      1.0000 0.64270  0.52730  0.22770  Biso   1.000  H
  N19      1.0000 0.68540  0.49670  0.27700  Biso   1.000  N
  H36      1.0000 0.73000  0.49430  0.32710  Biso   1.000  H
  Zn7      1.0000 0.58049  0.12609  0.09246  Biso   1.000  Zn
  Zn8      1.0000 0.67140  0.36060  0.26990  Biso   1.000  Zn
  I16      1.0000 0.52507  0.15405  0.13411  Biso   1.000  I
  I17      1.0000 0.61341  0.24100  0.05450  Biso   1.000  I
  N20      1.0000 0.56331  0.02370  0.04638  Biso   1.000  N
  N21      1.0000 0.63940  0.34400  0.32030  Biso   1.000  N
  I18      1.0000 0.73860  0.27460  0.30360  Biso   1.000  I
  I19      1.0000 0.62664  0.33840  0.19357  Biso   1.000  I
  C55      1.0000 0.60540  0.38310  0.31490  Biso   1.000  C
  C56      1.0000 0.64990  0.28900  0.35550  Biso   1.000  C
  C57      1.0000 0.58020  0.37060  0.34450  Biso   1.000  C
  H37      1.0000 0.59760  0.42150  0.28980  Biso   1.000  H
  C58      1.0000 0.62590  0.27120  0.38560  Biso   1.000  C
  H38      1.0000 0.67470  0.26120  0.35990  Biso   1.000  H
  C59      1.0000 0.59040  0.31160  0.38040  Biso   1.000  C
  H39      1.0000 0.55620  0.40220  0.34030  Biso   1.000  H
  H40      1.0000 0.63410  0.23090  0.40990  Biso   1.000  H
  C60      1.0000 0.56490  0.29660  0.41210  Biso   1.000  C
  N22      1.0000 0.57140  0.22290  0.43770  Biso   1.000  N
  N23      1.0000 0.53620  0.35600  0.41390  Biso   1.000  N
  C61      1.0000 0.54740  0.21320  0.46660  Biso   1.000  C
  C62      1.0000 0.51510  0.33850  0.44470  Biso   1.000  C
  N24      1.0000 0.51999  0.27020  0.47283  Biso   1.000  N
  C63      1.0000 0.55260  0.12920  0.49450  Biso   1.000  C
  C64      1.0000 0.48250  0.39980  0.44580  Biso   1.000  C
  C65      1.0000 0.58030  0.06830  0.48910  Biso   1.000  C
  C66      1.0000 0.52890  0.11090  0.52400  Biso   1.000  C
  C67      1.0000 0.46490  0.44660  0.40900  Biso   1.000  C
  C68      1.0000 0.46600  0.40800  0.48410  Biso   1.000  C
  C69      1.0000 0.58500  0.99310  0.51620  Biso   1.000  C
  H41      1.0000 0.59600  0.07730  0.46720  Biso   1.000  H
  H42      1.0000 0.50840  0.15050  0.52710  Biso   1.000  H
  C70      1.0000 0.53520  0.03370  0.54940  Biso   1.000  C
  C71      1.0000 0.43380  0.49950  0.40960  Biso   1.000  C
  H43      1.0000 0.47470  0.44200  0.38210  Biso   1.000  H
  C72      1.0000 0.43500  0.46360  0.48300  Biso   1.000  C
  H44      1.0000 0.47640  0.37520  0.51060  Biso   1.000  H
  H45      1.0000 0.60470  0.95150  0.51310  Biso   1.000  H
  H46      1.0000 0.51870  0.02120  0.57000  Biso   1.000  H
  H47      1.0000 0.42220  0.53010  0.38280  Biso   1.000  H
  H48      1.0000 0.42440  0.46930  0.50930  Biso   1.000  H
  Zn9      1.0000 0.85920  0.08860  0.46090  Biso   1.000  Zn
  Zn10     1.0000 0.17760  0.86080  0.27940  Biso   1.000  Zn
  I20      1.0000 0.84260  0.05920  0.52460  Biso   1.000  I
  I21      1.0000 0.89200  0.24000  0.40180  Biso   1.000  I
  I22      1.0000 0.53040  0.15660  0.12820  Biso   1.000  I
  I23      1.0000 0.62130  0.23510  0.05350  Biso   1.000  I
  I24      1.0000 0.23200  0.76700  0.29378  Biso   1.000  I
  I25      1.0000 0.23900  0.79120  0.31900  Biso   1.000  I
  I26      1.0000 0.13580  0.82870  0.20130  Biso   1.000  I
  I27      1.0000 0.35278  0.41310  0.01617  Biso   1.000  I
  Zn11     1.0000 0.37213  0.40644  0.94379  Biso   1.000  Zn
  N25      1.0000 0.32990  0.46870  0.89690  Biso   1.000  N
  N26      1.0000 0.41880  0.48960  0.94640  Biso   1.000  N
  I28      1.0000 0.38626  0.26370  0.91507  Biso   1.000  I
  C73      1.0000 0.30590  0.42380  0.86500  Biso   1.000  C
  C74      1.0000 0.32340  0.55510  0.90070  Biso   1.000  C
  H49      1.0000 0.30920  0.36100  0.86310  Biso   1.000  H
  C75      1.0000 0.27700  0.46360  0.83500  Biso   1.000  C
  C76      1.0000 0.29500  0.60110  0.87130  Biso   1.000  C
  H50      1.0000 0.33900  0.58710  0.92480  Biso   1.000  H
  H51      1.0000 0.26120  0.42910  0.81200  Biso   1.000  H
  C77      1.0000 0.27060  0.55540  0.83780  Biso   1.000  C
  H52      1.0000 0.29240  0.66390  0.87420  Biso   1.000  H
  C78      1.0000 0.23950  0.59920  0.80590  Biso   1.000  C
  N27      1.0000 0.21953  0.54870  0.77280  Biso   1.000  N
  N28      1.0000 0.23333  0.68740  0.81150  Biso   1.000  N
  C79      1.0000 0.19020  0.59030  0.74580  Biso   1.000  C
  C80      1.0000 0.20440  0.72180  0.78120  Biso   1.000  C
  C81      1.0000 0.16660  0.53970  0.70820  Biso   1.000  C
  N29      1.0000 0.18103  0.67660  0.74900  Biso   1.000  N
  C82      1.0000 0.19740  0.82040  0.78160  Biso   1.000  C
  C83      1.0000 0.17470  0.45090  0.70000  Biso   1.000  C
  C84      1.0000 0.13620  0.57930  0.67980  Biso   1.000  C
  C85      1.0000 0.16880  0.85740  0.74970  Biso   1.000  C
  C86      1.0000 0.22040  0.87680  0.81100  Biso   1.000  C
  C87      1.0000 0.15120  0.40790  0.66390  Biso   1.000  C
  H53      1.0000 0.19580  0.42050  0.71860  Biso   1.000  H
  H54      1.0000 0.13070  0.64080  0.68310  Biso   1.000  H
  C88      1.0000 0.11400  0.53050  0.64690  Biso   1.000  C
  C89      1.0000 0.16350  0.94830  0.74930  Biso   1.000  C
  H55      1.0000 0.15280  0.82080  0.72800  Biso   1.000  H
  H56      1.0000 0.24070  0.85410  0.83380  Biso   1.000  H
  C90      1.0000 0.21350  0.96700  0.80700  Biso   1.000  C
  H57      1.0000 0.15750  0.34820  0.65740  Biso   1.000  H
  N30      1.0000 0.12111  0.44520  0.63861  Biso   1.000  N
  H58      1.0000 0.09210  0.55850  0.62860  Biso   1.000  H
  H59      1.0000 0.14270  0.97270  0.72770  Biso   1.000  H
  N31      1.0000 0.18540  0.00330  0.77700  Biso   1.000  N
  H60      1.0000 0.23000  0.00570  0.82710  Biso   1.000  H
  Zn12     1.0000 0.08049  0.37391  0.59246  Biso   1.000  Zn
  Zn13     1.0000 0.17140  0.13940  0.76990  Biso   1.000  Zn
  I29      1.0000 0.02507  0.34595  0.63411  Biso   1.000  I
  I30      1.0000 0.11341  0.25900  0.55450  Biso   1.000  I
  N32      1.0000 0.06331  0.47630  0.54638  Biso   1.000  N
  N33      1.0000 0.13940  0.15600  0.82030  Biso   1.000  N
  I31      1.0000 0.23860  0.22540  0.80360  Biso   1.000  I
  I32      1.0000 0.12664  0.16160  0.69357  Biso   1.000  I
  C91      1.0000 0.10540  0.11690  0.81490  Biso   1.000  C
  C92      1.0000 0.14990  0.21100  0.85550  Biso   1.000  C
  C93      1.0000 0.08020  0.12940  0.84450  Biso   1.000  C
  H61      1.0000 0.09760  0.07850  0.78980  Biso   1.000  H
  C94      1.0000 0.12590  0.22880  0.88560  Biso   1.000  C
  H62      1.0000 0.17470  0.23880  0.85990  Biso   1.000  H
  C95      1.0000 0.09040  0.18840  0.88040  Biso   1.000  C
  H63      1.0000 0.05620  0.09780  0.84030  Biso   1.000  H
  H64      1.0000 0.13410  0.26910  0.90990  Biso   1.000  H
  C96      1.0000 0.06490  0.20340  0.91210  Biso   1.000  C
  N34      1.0000 0.07140  0.27710  0.93770  Biso   1.000  N
  N35      1.0000 0.03620  0.14400  0.91390  Biso   1.000  N
  C97      1.0000 0.04740  0.28680  0.96660  Biso   1.000  C
  C98      1.0000 0.01510  0.16150  0.94470  Biso   1.000  C
  N36      1.0000 0.01999  0.22980  0.97283  Biso   1.000  N
  C99      1.0000 0.05260  0.37080  0.99450  Biso   1.000  C
  C100     1.0000 0.98250  0.10020  0.94580  Biso   1.000  C
  C101     1.0000 0.08030  0.43170  0.98910  Biso   1.000  C
  C102     1.0000 0.02890  0.38910  0.02400  Biso   1.000  C
  C103     1.0000 0.96490  0.05340  0.90900  Biso   1.000  C
  C104     1.0000 0.96600  0.09200  0.98410  Biso   1.000  C
  C105     1.0000 0.08500  0.50690  0.01620  Biso   1.000  C
  H65      1.0000 0.09600  0.42270  0.96720  Biso   1.000  H
  H66      1.0000 0.00840  0.34950  0.02710  Biso   1.000  H
  C106     1.0000 0.03520  0.46630  0.04940  Biso   1.000  C
  C107     1.0000 0.93380  0.00050  0.90960  Biso   1.000  C
  H67      1.0000 0.97470  0.05800  0.88210  Biso   1.000  H
  C108     1.0000 0.93500  0.03640  0.98300  Biso   1.000  C
  H68      1.0000 0.97640  0.12480  0.01060  Biso   1.000  H
  H69      1.0000 0.10470  0.54850  0.01310  Biso   1.000  H
  H70      1.0000 0.01870  0.47880  0.07000  Biso   1.000  H
  H71      1.0000 0.92220  0.96990  0.88280  Biso   1.000  H
  H72      1.0000 0.92440  0.03070  0.00930  Biso   1.000  H
  Zn14     1.0000 0.35920  0.41140  0.96090  Biso   1.000  Zn
  Zn15     1.0000 0.67760  0.63920  0.77940  Biso   1.000  Zn
  I33      1.0000 0.34260  0.44080  0.02460  Biso   1.000  I
  I34      1.0000 0.39200  0.26000  0.90180  Biso   1.000  I
  I35      1.0000 0.03040  0.34340  0.62820  Biso   1.000  I
  I36      1.0000 0.12130  0.26490  0.55350  Biso   1.000  I
  I37      1.0000 0.73200  0.73300  0.79378  Biso   1.000  I
  I38      1.0000 0.73900  0.70880  0.81900  Biso   1.000  I
  I39      1.0000 0.63580  0.67130  0.70130  Biso   1.000  I
  I40      1.0000 0.85278  0.91310  0.01617  Biso   1.000  I
  Zn16     1.0000 0.87213  0.90644  0.94379  Biso   1.000  Zn
  N37      1.0000 0.82990  0.96870  0.89690  Biso   1.000  N
  N38      1.0000 0.91880  0.98960  0.94640  Biso   1.000  N
  I41      1.0000 0.88626  0.76370  0.91507  Biso   1.000  I
  C109     1.0000 0.80590  0.92380  0.86500  Biso   1.000  C
  C110     1.0000 0.82340  0.05510  0.90070  Biso   1.000  C
  H73      1.0000 0.80920  0.86100  0.86310  Biso   1.000  H
  C111     1.0000 0.77700  0.96360  0.83500  Biso   1.000  C
  C112     1.0000 0.79500  0.10110  0.87130  Biso   1.000  C
  H74      1.0000 0.83900  0.08710  0.92480  Biso   1.000  H
  H75      1.0000 0.76120  0.92910  0.81200  Biso   1.000  H
  C113     1.0000 0.77060  0.05540  0.83780  Biso   1.000  C
  H76      1.0000 0.79240  0.16390  0.87420  Biso   1.000  H
  C114     1.0000 0.73950  0.09920  0.80590  Biso   1.000  C
  N39      1.0000 0.71953  0.04870  0.77280  Biso   1.000  N
  N40      1.0000 0.73333  0.18740  0.81150  Biso   1.000  N
  C115     1.0000 0.69020  0.09030  0.74580  Biso   1.000  C
  C116     1.0000 0.70440  0.22180  0.78120  Biso   1.000  C
  C117     1.0000 0.66660  0.03970  0.70820  Biso   1.000  C
  N41      1.0000 0.68103  0.17660  0.74900  Biso   1.000  N
  C118     1.0000 0.69740  0.32040  0.78160  Biso   1.000  C
  C119     1.0000 0.67470  0.95090  0.70000  Biso   1.000  C
  C120     1.0000 0.63620  0.07930  0.67980  Biso   1.000  C
  C121     1.0000 0.66880  0.35740  0.74970  Biso   1.000  C
  C122     1.0000 0.72040  0.37680  0.81100  Biso   1.000  C
  C123     1.0000 0.65120  0.90790  0.66390  Biso   1.000  C
  H77      1.0000 0.69580  0.92050  0.71860  Biso   1.000  H
  H78      1.0000 0.63070  0.14080  0.68310  Biso   1.000  H
  C124     1.0000 0.61400  0.03050  0.64690  Biso   1.000  C
  C125     1.0000 0.66350  0.44830  0.74930  Biso   1.000  C
  H79      1.0000 0.65280  0.32080  0.72800  Biso   1.000  H
  H80      1.0000 0.74070  0.35410  0.83380  Biso   1.000  H
  C126     1.0000 0.71350  0.46700  0.80700  Biso   1.000  C
  H81      1.0000 0.65750  0.84820  0.65740  Biso   1.000  H
  N42      1.0000 0.62111  0.94520  0.63861  Biso   1.000  N
  H82      1.0000 0.59210  0.05850  0.62860  Biso   1.000  H
  H83      1.0000 0.64270  0.47270  0.72770  Biso   1.000  H
  N43      1.0000 0.68540  0.50330  0.77700  Biso   1.000  N
  H84      1.0000 0.73000  0.50570  0.82710  Biso   1.000  H
  Zn17     1.0000 0.58049  0.87391  0.59246  Biso   1.000  Zn
  Zn18     1.0000 0.67140  0.63940  0.76990  Biso   1.000  Zn
  I42      1.0000 0.52507  0.84595  0.63411  Biso   1.000  I
  I43      1.0000 0.61341  0.75900  0.55450  Biso   1.000  I
  N44      1.0000 0.56331  0.97630  0.54638  Biso   1.000  N
  N45      1.0000 0.63940  0.65600  0.82030  Biso   1.000  N
  I44      1.0000 0.73860  0.72540  0.80360  Biso   1.000  I
  I45      1.0000 0.62664  0.66160  0.69357  Biso   1.000  I
  C127     1.0000 0.60540  0.61690  0.81490  Biso   1.000  C
  C128     1.0000 0.64990  0.71100  0.85550  Biso   1.000  C
  C129     1.0000 0.58020  0.62940  0.84450  Biso   1.000  C
  H85      1.0000 0.59760  0.57850  0.78980  Biso   1.000  H
  C130     1.0000 0.62590  0.72880  0.88560  Biso   1.000  C
  H86      1.0000 0.67470  0.73880  0.85990  Biso   1.000  H
  C131     1.0000 0.59040  0.68840  0.88040  Biso   1.000  C
  H87      1.0000 0.55620  0.59780  0.84030  Biso   1.000  H
  H88      1.0000 0.63410  0.76910  0.90990  Biso   1.000  H
  C132     1.0000 0.56490  0.70340  0.91210  Biso   1.000  C
  N46      1.0000 0.57140  0.77710  0.93770  Biso   1.000  N
  N47      1.0000 0.53620  0.64400  0.91390  Biso   1.000  N
  C133     1.0000 0.54740  0.78680  0.96660  Biso   1.000  C
  C134     1.0000 0.51510  0.66150  0.94470  Biso   1.000  C
  N48      1.0000 0.51999  0.72980  0.97283  Biso   1.000  N
  C135     1.0000 0.55260  0.87080  0.99450  Biso   1.000  C
  C136     1.0000 0.48250  0.60020  0.94580  Biso   1.000  C
  C137     1.0000 0.58030  0.93170  0.98910  Biso   1.000  C
  C138     1.0000 0.52890  0.88910  0.02400  Biso   1.000  C
  C139     1.0000 0.46490  0.55340  0.90900  Biso   1.000  C
  C140     1.0000 0.46600  0.59200  0.98410  Biso   1.000  C
  C141     1.0000 0.58500  0.00690  0.01620  Biso   1.000  C
  H89      1.0000 0.59600  0.92270  0.96720  Biso   1.000  H
  H90      1.0000 0.50840  0.84950  0.02710  Biso   1.000  H
  C142     1.0000 0.53520  0.96630  0.04940  Biso   1.000  C
  C143     1.0000 0.43380  0.50050  0.90960  Biso   1.000  C
  H91      1.0000 0.47470  0.55800  0.88210  Biso   1.000  H
  C144     1.0000 0.43500  0.53640  0.98300  Biso   1.000  C
  H92      1.0000 0.47640  0.62480  0.01060  Biso   1.000  H
  H93      1.0000 0.60470  0.04850  0.01310  Biso   1.000  H
  H94      1.0000 0.51870  0.97880  0.07000  Biso   1.000  H
  H95      1.0000 0.42220  0.46990  0.88280  Biso   1.000  H
  H96      1.0000 0.42440  0.53070  0.00930  Biso   1.000  H
  Zn19     1.0000 0.85920  0.91140  0.96090  Biso   1.000  Zn
  Zn20     1.0000 0.17760  0.13920  0.77940  Biso   1.000  Zn
  I46      1.0000 0.84260  0.94080  0.02460  Biso   1.000  I
  I47      1.0000 0.89200  0.76000  0.90180  Biso   1.000  I
  I48      1.0000 0.53040  0.84340  0.62820  Biso   1.000  I
  I49      1.0000 0.62130  0.76490  0.55350  Biso   1.000  I
  I50      1.0000 0.23200  0.23300  0.79378  Biso   1.000  I
  I51      1.0000 0.23900  0.20880  0.81900  Biso   1.000  I
  I52      1.0000 0.13580  0.17130  0.70130  Biso   1.000  I
  I53      1.0000 0.64722  0.58690  0.98383  Biso   1.000  I
  Zn21     1.0000 0.62787  0.59356  0.05621  Biso   1.000  Zn
  N49      1.0000 0.67010  0.53130  0.10310  Biso   1.000  N
  N50      1.0000 0.58120  0.51040  0.05360  Biso   1.000  N
  I54      1.0000 0.61374  0.73630  0.08493  Biso   1.000  I
  C145     1.0000 0.69410  0.57620  0.13500  Biso   1.000  C
  C146     1.0000 0.67660  0.44490  0.09930  Biso   1.000  C
  H97      1.0000 0.69080  0.63900  0.13690  Biso   1.000  H
  C147     1.0000 0.72300  0.53640  0.16500  Biso   1.000  C
  C148     1.0000 0.70500  0.39890  0.12870  Biso   1.000  C
  H98      1.0000 0.66100  0.41290  0.07520  Biso   1.000  H
  H99      1.0000 0.73880  0.57090  0.18800  Biso   1.000  H
  C149     1.0000 0.72940  0.44460  0.16220  Biso   1.000  C
  H100     1.0000 0.70760  0.33610  0.12580  Biso   1.000  H
  C150     1.0000 0.76050  0.40080  0.19410  Biso   1.000  C
  N51      1.0000 0.78047  0.45130  0.22720  Biso   1.000  N
  N52      1.0000 0.76667  0.31260  0.18850  Biso   1.000  N
  C151     1.0000 0.80980  0.40970  0.25420  Biso   1.000  C
  C152     1.0000 0.79560  0.27820  0.21880  Biso   1.000  C
  C153     1.0000 0.83340  0.46030  0.29180  Biso   1.000  C
  N53      1.0000 0.81897  0.32340  0.25100  Biso   1.000  N
  C154     1.0000 0.80260  0.17960  0.21840  Biso   1.000  C
  C155     1.0000 0.82530  0.54910  0.30000  Biso   1.000  C
  C156     1.0000 0.86380  0.42070  0.32020  Biso   1.000  C
  C157     1.0000 0.83120  0.14260  0.25030  Biso   1.000  C
  C158     1.0000 0.77960  0.12320  0.18900  Biso   1.000  C
  C159     1.0000 0.84880  0.59210  0.33610  Biso   1.000  C
  H101     1.0000 0.80420  0.57950  0.28140  Biso   1.000  H
  H102     1.0000 0.86930  0.35920  0.31690  Biso   1.000  H
  C160     1.0000 0.88600  0.46950  0.35310  Biso   1.000  C
  C161     1.0000 0.83650  0.05170  0.25070  Biso   1.000  C
  H103     1.0000 0.84720  0.17920  0.27200  Biso   1.000  H
  H104     1.0000 0.75930  0.14590  0.16620  Biso   1.000  H
  C162     1.0000 0.78650  0.03300  0.19300  Biso   1.000  C
  H105     1.0000 0.84250  0.65180  0.34260  Biso   1.000  H
  N54      1.0000 0.87889  0.55480  0.36139  Biso   1.000  N
  H106     1.0000 0.90790  0.44150  0.37140  Biso   1.000  H
  H107     1.0000 0.85730  0.02730  0.27230  Biso   1.000  H
  N55      1.0000 0.81460  0.99670  0.22300  Biso   1.000  N
  H108     1.0000 0.77000  0.99430  0.17290  Biso   1.000  H
  Zn22     1.0000 0.91951  0.62609  0.40754  Biso   1.000  Zn
  Zn23     1.0000 0.82860  0.86060  0.23010  Biso   1.000  Zn
  I55      1.0000 0.97493  0.65405  0.36589  Biso   1.000  I
  I56      1.0000 0.88659  0.74100  0.44550  Biso   1.000  I
  N56      1.0000 0.93669  0.52370  0.45362  Biso   1.000  N
  N57      1.0000 0.86060  0.84400  0.17970  Biso   1.000  N
  I57      1.0000 0.76140  0.77460  0.19640  Biso   1.000  I
  I58      1.0000 0.87336  0.83840  0.30643  Biso   1.000  I
  C163     1.0000 0.89460  0.88310  0.18510  Biso   1.000  C
  C164     1.0000 0.85010  0.78900  0.14450  Biso   1.000  C
  C165     1.0000 0.91980  0.87060  0.15550  Biso   1.000  C
  H109     1.0000 0.90240  0.92150  0.21020  Biso   1.000  H
  C166     1.0000 0.87410  0.77120  0.11440  Biso   1.000  C
  H110     1.0000 0.82530  0.76120  0.14010  Biso   1.000  H
  C167     1.0000 0.90960  0.81160  0.11960  Biso   1.000  C
  H111     1.0000 0.94380  0.90220  0.15970  Biso   1.000  H
  H112     1.0000 0.86590  0.73090  0.09010  Biso   1.000  H
  C168     1.0000 0.93510  0.79660  0.08790  Biso   1.000  C
  N58      1.0000 0.92860  0.72290  0.06230  Biso   1.000  N
  N59      1.0000 0.96380  0.85600  0.08610  Biso   1.000  N
  C169     1.0000 0.95260  0.71320  0.03340  Biso   1.000  C
  C170     1.0000 0.98490  0.83850  0.05530  Biso   1.000  C
  N60      1.0000 0.98001  0.77020  0.02717  Biso   1.000  N
  C171     1.0000 0.94740  0.62920  0.00550  Biso   1.000  C
  C172     1.0000 0.01750  0.89980  0.05420  Biso   1.000  C
  C173     1.0000 0.91970  0.56830  0.01090  Biso   1.000  C
  C174     1.0000 0.97110  0.61090  0.97600  Biso   1.000  C
  C175     1.0000 0.03510  0.94660  0.09100  Biso   1.000  C
  C176     1.0000 0.03400  0.90800  0.01590  Biso   1.000  C
  C177     1.0000 0.91500  0.49310  0.98380  Biso   1.000  C
  H113     1.0000 0.90400  0.57730  0.03280  Biso   1.000  H
  H114     1.0000 0.99160  0.65050  0.97290  Biso   1.000  H
  C178     1.0000 0.96480  0.53370  0.95060  Biso   1.000  C
  C179     1.0000 0.06620  0.99950  0.09040  Biso   1.000  C
  H115     1.0000 0.02530  0.94200  0.11790  Biso   1.000  H
  C180     1.0000 0.06500  0.96360  0.01700  Biso   1.000  C
  H116     1.0000 0.02360  0.87520  0.98940  Biso   1.000  H
  H117     1.0000 0.89530  0.45150  0.98690  Biso   1.000  H
  H118     1.0000 0.98130  0.52120  0.93000  Biso   1.000  H
  H119     1.0000 0.07780  0.03010  0.11720  Biso   1.000  H
  H120     1.0000 0.07560  0.96930  0.99070  Biso   1.000  H
  Zn24     1.0000 0.64080  0.58860  0.03910  Biso   1.000  Zn
  Zn25     1.0000 0.32240  0.36080  0.22060  Biso   1.000  Zn
  I59      1.0000 0.65740  0.55920  0.97540  Biso   1.000  I
  I60      1.0000 0.60800  0.74000  0.09820  Biso   1.000  I
  I61      1.0000 0.96960  0.65660  0.37180  Biso   1.000  I
  I62      1.0000 0.87870  0.73510  0.44650  Biso   1.000  I
  I63      1.0000 0.26800  0.26700  0.20622  Biso   1.000  I
  I64      1.0000 0.26100  0.29120  0.18100  Biso   1.000  I
  I65      1.0000 0.36420  0.32870  0.29870  Biso   1.000  I
  I66      1.0000 0.14722  0.08690  0.98383  Biso   1.000  I
  Zn26     1.0000 0.12787  0.09356  0.05621  Biso   1.000  Zn
  N61      1.0000 0.17010  0.03130  0.10310  Biso   1.000  N
  N62      1.0000 0.08120  0.01040  0.05360  Biso   1.000  N
  I67      1.0000 0.11374  0.23630  0.08493  Biso   1.000  I
  C181     1.0000 0.19410  0.07620  0.13500  Biso   1.000  C
  C182     1.0000 0.17660  0.94490  0.09930  Biso   1.000  C
  H121     1.0000 0.19080  0.13900  0.13690  Biso   1.000  H
  C183     1.0000 0.22300  0.03640  0.16500  Biso   1.000  C
  C184     1.0000 0.20500  0.89890  0.12870  Biso   1.000  C
  H122     1.0000 0.16100  0.91290  0.07520  Biso   1.000  H
  H123     1.0000 0.23880  0.07090  0.18800  Biso   1.000  H
  C185     1.0000 0.22940  0.94460  0.16220  Biso   1.000  C
  H124     1.0000 0.20760  0.83610  0.12580  Biso   1.000  H
  C186     1.0000 0.26050  0.90080  0.19410  Biso   1.000  C
  N63      1.0000 0.28047  0.95130  0.22720  Biso   1.000  N
  N64      1.0000 0.26667  0.81260  0.18850  Biso   1.000  N
  C187     1.0000 0.30980  0.90970  0.25420  Biso   1.000  C
  C188     1.0000 0.29560  0.77820  0.21880  Biso   1.000  C
  C189     1.0000 0.33340  0.96030  0.29180  Biso   1.000  C
  N65      1.0000 0.31897  0.82340  0.25100  Biso   1.000  N
  C190     1.0000 0.30260  0.67960  0.21840  Biso   1.000  C
  C191     1.0000 0.32530  0.04910  0.30000  Biso   1.000  C
  C192     1.0000 0.36380  0.92070  0.32020  Biso   1.000  C
  C193     1.0000 0.33120  0.64260  0.25030  Biso   1.000  C
  C194     1.0000 0.27960  0.62320  0.18900  Biso   1.000  C
  C195     1.0000 0.34880  0.09210  0.33610  Biso   1.000  C
  H125     1.0000 0.30420  0.07950  0.28140  Biso   1.000  H
  H126     1.0000 0.36930  0.85920  0.31690  Biso   1.000  H
  C196     1.0000 0.38600  0.96950  0.35310  Biso   1.000  C
  C197     1.0000 0.33650  0.55170  0.25070  Biso   1.000  C
  H127     1.0000 0.34720  0.67920  0.27200  Biso   1.000  H
  H128     1.0000 0.25930  0.64590  0.16620  Biso   1.000  H
  C198     1.0000 0.28650  0.53300  0.19300  Biso   1.000  C
  H129     1.0000 0.34250  0.15180  0.34260  Biso   1.000  H
  N66      1.0000 0.37889  0.05480  0.36139  Biso   1.000  N
  H130     1.0000 0.40790  0.94150  0.37140  Biso   1.000  H
  H131     1.0000 0.35730  0.52730  0.27230  Biso   1.000  H
  N67      1.0000 0.31460  0.49670  0.22300  Biso   1.000  N
  H132     1.0000 0.27000  0.49430  0.17290  Biso   1.000  H
  Zn27     1.0000 0.41951  0.12609  0.40754  Biso   1.000  Zn
  Zn28     1.0000 0.32860  0.36060  0.23010  Biso   1.000  Zn
  I68      1.0000 0.47493  0.15405  0.36589  Biso   1.000  I
  I69      1.0000 0.38659  0.24100  0.44550  Biso   1.000  I
  N68      1.0000 0.43669  0.02370  0.45362  Biso   1.000  N
  N69      1.0000 0.36060  0.34400  0.17970  Biso   1.000  N
  I70      1.0000 0.26140  0.27460  0.19640  Biso   1.000  I
  I71      1.0000 0.37336  0.33840  0.30643  Biso   1.000  I
  C199     1.0000 0.39460  0.38310  0.18510  Biso   1.000  C
  C200     1.0000 0.35010  0.28900  0.14450  Biso   1.000  C
  C201     1.0000 0.41980  0.37060  0.15550  Biso   1.000  C
  H133     1.0000 0.40240  0.42150  0.21020  Biso   1.000  H
  C202     1.0000 0.37410  0.27120  0.11440  Biso   1.000  C
  H134     1.0000 0.32530  0.26120  0.14010  Biso   1.000  H
  C203     1.0000 0.40960  0.31160  0.11960  Biso   1.000  C
  H135     1.0000 0.44380  0.40220  0.15970  Biso   1.000  H
  H136     1.0000 0.36590  0.23090  0.09010  Biso   1.000  H
  C204     1.0000 0.43510  0.29660  0.08790  Biso   1.000  C
  N70      1.0000 0.42860  0.22290  0.06230  Biso   1.000  N
  N71      1.0000 0.46380  0.35600  0.08610  Biso   1.000  N
  C205     1.0000 0.45260  0.21320  0.03340  Biso   1.000  C
  C206     1.0000 0.48490  0.33850  0.05530  Biso   1.000  C
  N72      1.0000 0.48001  0.27020  0.02717  Biso   1.000  N
  C207     1.0000 0.44740  0.12920  0.00550  Biso   1.000  C
  C208     1.0000 0.51750  0.39980  0.05420  Biso   1.000  C
  C209     1.0000 0.41970  0.06830  0.01090  Biso   1.000  C
  C210     1.0000 0.47110  0.11090  0.97600  Biso   1.000  C
  C211     1.0000 0.53510  0.44660  0.09100  Biso   1.000  C
  C212     1.0000 0.53400  0.40800  0.01590  Biso   1.000  C
  C213     1.0000 0.41500  0.99310  0.98380  Biso   1.000  C
  H137     1.0000 0.40400  0.07730  0.03280  Biso   1.000  H
  H138     1.0000 0.49160  0.15050  0.97290  Biso   1.000  H
  C214     1.0000 0.46480  0.03370  0.95060  Biso   1.000  C
  C215     1.0000 0.56620  0.49950  0.09040  Biso   1.000  C
  H139     1.0000 0.52530  0.44200  0.11790  Biso   1.000  H
  C216     1.0000 0.56500  0.46360  0.01700  Biso   1.000  C
  H140     1.0000 0.52360  0.37520  0.98940  Biso   1.000  H
  H141     1.0000 0.39530  0.95150  0.98690  Biso   1.000  H
  H142     1.0000 0.48130  0.02120  0.93000  Biso   1.000  H
  H143     1.0000 0.57780  0.53010  0.11720  Biso   1.000  H
  H144     1.0000 0.57560  0.46930  0.99070  Biso   1.000  H
  Zn29     1.0000 0.14080  0.08860  0.03910  Biso   1.000  Zn
  Zn30     1.0000 0.82240  0.86080  0.22060  Biso   1.000  Zn
  I72      1.0000 0.15740  0.05920  0.97540  Biso   1.000  I
  I73      1.0000 0.10800  0.24000  0.09820  Biso   1.000  I
  I74      1.0000 0.46960  0.15660  0.37180  Biso   1.000  I
  I75      1.0000 0.37870  0.23510  0.44650  Biso   1.000  I
  I76      1.0000 0.76800  0.76700  0.20622  Biso   1.000  I
  I77      1.0000 0.76100  0.79120  0.18100  Biso   1.000  I
  I78      1.0000 0.86420  0.82870  0.29870  Biso   1.000  I
  I79      1.0000 0.64722  0.41310  0.48383  Biso   1.000  I
  Zn31     1.0000 0.62787  0.40644  0.55621  Biso   1.000  Zn
  N73      1.0000 0.67010  0.46870  0.60310  Biso   1.000  N
  N74      1.0000 0.58120  0.48960  0.55360  Biso   1.000  N
  I80      1.0000 0.61374  0.26370  0.58493  Biso   1.000  I
  C217     1.0000 0.69410  0.42380  0.63500  Biso   1.000  C
  C218     1.0000 0.67660  0.55510  0.59930  Biso   1.000  C
  H145     1.0000 0.69080  0.36100  0.63690  Biso   1.000  H
  C219     1.0000 0.72300  0.46360  0.66500  Biso   1.000  C
  C220     1.0000 0.70500  0.60110  0.62870  Biso   1.000  C
  H146     1.0000 0.66100  0.58710  0.57520  Biso   1.000  H
  H147     1.0000 0.73880  0.42910  0.68800  Biso   1.000  H
  C221     1.0000 0.72940  0.55540  0.66220  Biso   1.000  C
  H148     1.0000 0.70760  0.66390  0.62580  Biso   1.000  H
  C222     1.0000 0.76050  0.59920  0.69410  Biso   1.000  C
  N75      1.0000 0.78047  0.54870  0.72720  Biso   1.000  N
  N76      1.0000 0.76667  0.68740  0.68850  Biso   1.000  N
  C223     1.0000 0.80980  0.59030  0.75420  Biso   1.000  C
  C224     1.0000 0.79560  0.72180  0.71880  Biso   1.000  C
  C225     1.0000 0.83340  0.53970  0.79180  Biso   1.000  C
  N77      1.0000 0.81897  0.67660  0.75100  Biso   1.000  N
  C226     1.0000 0.80260  0.82040  0.71840  Biso   1.000  C
  C227     1.0000 0.82530  0.45090  0.80000  Biso   1.000  C
  C228     1.0000 0.86380  0.57930  0.82020  Biso   1.000  C
  C229     1.0000 0.83120  0.85740  0.75030  Biso   1.000  C
  C230     1.0000 0.77960  0.87680  0.68900  Biso   1.000  C
  C231     1.0000 0.84880  0.40790  0.83610  Biso   1.000  C
  H149     1.0000 0.80420  0.42050  0.78140  Biso   1.000  H
  H150     1.0000 0.86930  0.64080  0.81690  Biso   1.000  H
  C232     1.0000 0.88600  0.53050  0.85310  Biso   1.000  C
  C233     1.0000 0.83650  0.94830  0.75070  Biso   1.000  C
  H151     1.0000 0.84720  0.82080  0.77200  Biso   1.000  H
  H152     1.0000 0.75930  0.85410  0.66620  Biso   1.000  H
  C234     1.0000 0.78650  0.96700  0.69300  Biso   1.000  C
  H153     1.0000 0.84250  0.34820  0.84260  Biso   1.000  H
  N78      1.0000 0.87889  0.44520  0.86139  Biso   1.000  N
  H154     1.0000 0.90790  0.55850  0.87140  Biso   1.000  H
  H155     1.0000 0.85730  0.97270  0.77230  Biso   1.000  H
  N79      1.0000 0.81460  0.00330  0.72300  Biso   1.000  N
  H156     1.0000 0.77000  0.00570  0.67290  Biso   1.000  H
  Zn32     1.0000 0.91951  0.37391  0.90754  Biso   1.000  Zn
  Zn33     1.0000 0.82860  0.13940  0.73010  Biso   1.000  Zn
  I81      1.0000 0.97493  0.34595  0.86589  Biso   1.000  I
  I82      1.0000 0.88659  0.25900  0.94550  Biso   1.000  I
  N80      1.0000 0.93669  0.47630  0.95362  Biso   1.000  N
  N81      1.0000 0.86060  0.15600  0.67970  Biso   1.000  N
  I83      1.0000 0.76140  0.22540  0.69640  Biso   1.000  I
  I84      1.0000 0.87336  0.16160  0.80643  Biso   1.000  I
  C235     1.0000 0.89460  0.11690  0.68510  Biso   1.000  C
  C236     1.0000 0.85010  0.21100  0.64450  Biso   1.000  C
  C237     1.0000 0.91980  0.12940  0.65550  Biso   1.000  C
  H157     1.0000 0.90240  0.07850  0.71020  Biso   1.000  H
  C238     1.0000 0.87410  0.22880  0.61440  Biso   1.000  C
  H158     1.0000 0.82530  0.23880  0.64010  Biso   1.000  H
  C239     1.0000 0.90960  0.18840  0.61960  Biso   1.000  C
  H159     1.0000 0.94380  0.09780  0.65970  Biso   1.000  H
  H160     1.0000 0.86590  0.26910  0.59010  Biso   1.000  H
  C240     1.0000 0.93510  0.20340  0.58790  Biso   1.000  C
  N82      1.0000 0.92860  0.27710  0.56230  Biso   1.000  N
  N83      1.0000 0.96380  0.14400  0.58610  Biso   1.000  N
  C241     1.0000 0.95260  0.28680  0.53340  Biso   1.000  C
  C242     1.0000 0.98490  0.16150  0.55530  Biso   1.000  C
  N84      1.0000 0.98001  0.22980  0.52717  Biso   1.000  N
  C243     1.0000 0.94740  0.37080  0.50550  Biso   1.000  C
  C244     1.0000 0.01750  0.10020  0.55420  Biso   1.000  C
  C245     1.0000 0.91970  0.43170  0.51090  Biso   1.000  C
  C246     1.0000 0.97110  0.38910  0.47600  Biso   1.000  C
  C247     1.0000 0.03510  0.05340  0.59100  Biso   1.000  C
  C248     1.0000 0.03400  0.09200  0.51590  Biso   1.000  C
  C249     1.0000 0.91500  0.50690  0.48380  Biso   1.000  C
  H161     1.0000 0.90400  0.42270  0.53280  Biso   1.000  H
  H162     1.0000 0.99160  0.34950  0.47290  Biso   1.000  H
  C250     1.0000 0.96480  0.46630  0.45060  Biso   1.000  C
  C251     1.0000 0.06620  0.00050  0.59040  Biso   1.000  C
  H163     1.0000 0.02530  0.05800  0.61790  Biso   1.000  H
  C252     1.0000 0.06500  0.03640  0.51700  Biso   1.000  C
  H164     1.0000 0.02360  0.12480  0.48940  Biso   1.000  H
  H165     1.0000 0.89530  0.54850  0.48690  Biso   1.000  H
  H166     1.0000 0.98130  0.47880  0.43000  Biso   1.000  H
  H167     1.0000 0.07780  0.96990  0.61720  Biso   1.000  H
  H168     1.0000 0.07560  0.03070  0.49070  Biso   1.000  H
  Zn34     1.0000 0.64080  0.41140  0.53910  Biso   1.000  Zn
  Zn35     1.0000 0.32240  0.63920  0.72060  Biso   1.000  Zn
  I85      1.0000 0.65740  0.44080  0.47540  Biso   1.000  I
  I86      1.0000 0.60800  0.26000  0.59820  Biso   1.000  I
  I87      1.0000 0.96960  0.34340  0.87180  Biso   1.000  I
  I88      1.0000 0.87870  0.26490  0.94650  Biso   1.000  I
  I89      1.0000 0.26800  0.73300  0.70622  Biso   1.000  I
  I90      1.0000 0.26100  0.70880  0.68100  Biso   1.000  I
  I91      1.0000 0.36420  0.67130  0.79870  Biso   1.000  I
  I92      1.0000 0.14722  0.91310  0.48383  Biso   1.000  I
  Zn36     1.0000 0.12787  0.90644  0.55621  Biso   1.000  Zn
  N85      1.0000 0.17010  0.96870  0.60310  Biso   1.000  N
  N86      1.0000 0.08120  0.98960  0.55360  Biso   1.000  N
  I93      1.0000 0.11374  0.76370  0.58493  Biso   1.000  I
  C253     1.0000 0.19410  0.92380  0.63500  Biso   1.000  C
  C254     1.0000 0.17660  0.05510  0.59930  Biso   1.000  C
  H169     1.0000 0.19080  0.86100  0.63690  Biso   1.000  H
  C255     1.0000 0.22300  0.96360  0.66500  Biso   1.000  C
  C256     1.0000 0.20500  0.10110  0.62870  Biso   1.000  C
  H170     1.0000 0.16100  0.08710  0.57520  Biso   1.000  H
  H171     1.0000 0.23880  0.92910  0.68800  Biso   1.000  H
  C257     1.0000 0.22940  0.05540  0.66220  Biso   1.000  C
  H172     1.0000 0.20760  0.16390  0.62580  Biso   1.000  H
  C258     1.0000 0.26050  0.09920  0.69410  Biso   1.000  C
  N87      1.0000 0.28047  0.04870  0.72720  Biso   1.000  N
  N88      1.0000 0.26667  0.18740  0.68850  Biso   1.000  N
  C259     1.0000 0.30980  0.09030  0.75420  Biso   1.000  C
  C260     1.0000 0.29560  0.22180  0.71880  Biso   1.000  C
  C261     1.0000 0.33340  0.03970  0.79180  Biso   1.000  C
  N89      1.0000 0.31897  0.17660  0.75100  Biso   1.000  N
  C262     1.0000 0.30260  0.32040  0.71840  Biso   1.000  C
  C263     1.0000 0.32530  0.95090  0.80000  Biso   1.000  C
  C264     1.0000 0.36380  0.07930  0.82020  Biso   1.000  C
  C265     1.0000 0.33120  0.35740  0.75030  Biso   1.000  C
  C266     1.0000 0.27960  0.37680  0.68900  Biso   1.000  C
  C267     1.0000 0.34880  0.90790  0.83610  Biso   1.000  C
  H173     1.0000 0.30420  0.92050  0.78140  Biso   1.000  H
  H174     1.0000 0.36930  0.14080  0.81690  Biso   1.000  H
  C268     1.0000 0.38600  0.03050  0.85310  Biso   1.000  C
  C269     1.0000 0.33650  0.44830  0.75070  Biso   1.000  C
  H175     1.0000 0.34720  0.32080  0.77200  Biso   1.000  H
  H176     1.0000 0.25930  0.35410  0.66620  Biso   1.000  H
  C270     1.0000 0.28650  0.46700  0.69300  Biso   1.000  C
  H177     1.0000 0.34250  0.84820  0.84260  Biso   1.000  H
  N90      1.0000 0.37889  0.94520  0.86139  Biso   1.000  N
  H178     1.0000 0.40790  0.05850  0.87140  Biso   1.000  H
  H179     1.0000 0.35730  0.47270  0.77230  Biso   1.000  H
  N91      1.0000 0.31460  0.50330  0.72300  Biso   1.000  N
  H180     1.0000 0.27000  0.50570  0.67290  Biso   1.000  H
  Zn37     1.0000 0.41951  0.87391  0.90754  Biso   1.000  Zn
  Zn38     1.0000 0.32860  0.63940  0.73010  Biso   1.000  Zn
  I94      1.0000 0.47493  0.84595  0.86589  Biso   1.000  I
  I95      1.0000 0.38659  0.75900  0.94550  Biso   1.000  I
  N92      1.0000 0.43669  0.97630  0.95362  Biso   1.000  N
  N93      1.0000 0.36060  0.65600  0.67970  Biso   1.000  N
  I96      1.0000 0.26140  0.72540  0.69640  Biso   1.000  I
  I97      1.0000 0.37336  0.66160  0.80643  Biso   1.000  I
  C271     1.0000 0.39460  0.61690  0.68510  Biso   1.000  C
  C272     1.0000 0.35010  0.71100  0.64450  Biso   1.000  C
  C273     1.0000 0.41980  0.62940  0.65550  Biso   1.000  C
  H181     1.0000 0.40240  0.57850  0.71020  Biso   1.000  H
  C274     1.0000 0.37410  0.72880  0.61440  Biso   1.000  C
  H182     1.0000 0.32530  0.73880  0.64010  Biso   1.000  H
  C275     1.0000 0.40960  0.68840  0.61960  Biso   1.000  C
  H183     1.0000 0.44380  0.59780  0.65970  Biso   1.000  H
  H184     1.0000 0.36590  0.76910  0.59010  Biso   1.000  H
  C276     1.0000 0.43510  0.70340  0.58790  Biso   1.000  C
  N94      1.0000 0.42860  0.77710  0.56230  Biso   1.000  N
  N95      1.0000 0.46380  0.64400  0.58610  Biso   1.000  N
  C277     1.0000 0.45260  0.78680  0.53340  Biso   1.000  C
  C278     1.0000 0.48490  0.66150  0.55530  Biso   1.000  C
  N96      1.0000 0.48001  0.72980  0.52717  Biso   1.000  N
  C279     1.0000 0.44740  0.87080  0.50550  Biso   1.000  C
  C280     1.0000 0.51750  0.60020  0.55420  Biso   1.000  C
  C281     1.0000 0.41970  0.93170  0.51090  Biso   1.000  C
  C282     1.0000 0.47110  0.88910  0.47600  Biso   1.000  C
  C283     1.0000 0.53510  0.55340  0.59100  Biso   1.000  C
  C284     1.0000 0.53400  0.59200  0.51590  Biso   1.000  C
  C285     1.0000 0.41500  0.00690  0.48380  Biso   1.000  C
  H185     1.0000 0.40400  0.92270  0.53280  Biso   1.000  H
  H186     1.0000 0.49160  0.84950  0.47290  Biso   1.000  H
  C286     1.0000 0.46480  0.96630  0.45060  Biso   1.000  C
  C287     1.0000 0.56620  0.50050  0.59040  Biso   1.000  C
  H187     1.0000 0.52530  0.55800  0.61790  Biso   1.000  H
  C288     1.0000 0.56500  0.53640  0.51700  Biso   1.000  C
  H188     1.0000 0.52360  0.62480  0.48940  Biso   1.000  H
  H189     1.0000 0.39530  0.04850  0.48690  Biso   1.000  H
  H190     1.0000 0.48130  0.97880  0.43000  Biso   1.000  H
  H191     1.0000 0.57780  0.46990  0.61720  Biso   1.000  H
  H192     1.0000 0.57560  0.53070  0.49070  Biso   1.000  H
  Zn39     1.0000 0.14080  0.91140  0.53910  Biso   1.000  Zn
  Zn40     1.0000 0.82240  0.13920  0.72060  Biso   1.000  Zn
  I98      1.0000 0.15740  0.94080  0.47540  Biso   1.000  I
  I99      1.0000 0.10800  0.76000  0.59820  Biso   1.000  I
  I100     1.0000 0.46960  0.84340  0.87180  Biso   1.000  I
  I101     1.0000 0.37870  0.76490  0.94650  Biso   1.000  I
  I102     1.0000 0.76800  0.23300  0.70622  Biso   1.000  I
  I103     1.0000 0.76100  0.20880  0.68100  Biso   1.000  I
  I104     1.0000 0.86420  0.17130  0.79870  Biso   1.000  I
