data_image0
_cell_length_a       43.611
_cell_length_b       8.549
_cell_length_c       34.589
_cell_angle_alpha    90
_cell_angle_beta     103.59
_cell_angle_gamma    90

_symmetry_space_group_name_H-M    "P 1"
_symmetry_int_tables_number       1

loop_
  _symmetry_equiv_pos_as_xyz
  'x, y, z'

loop_
  _atom_site_label
  _atom_site_occupancy
  _atom_site_fract_x
  _atom_site_fract_y
  _atom_site_fract_z
  _atom_site_thermal_displace_type
  _atom_site_B_iso_or_equiv
  _atom_site_type_symbol
  Ba1      1.0000 0.71164  0.90442  0.69540  Biso   1.000  Ba
  C1       1.0000 0.42770  0.45700  0.61280  Biso   1.000  C
  C2       1.0000 0.41532  0.42070  0.57360  Biso   1.000  C
  H1       1.0000 0.42880  0.39010  0.55710  Biso   1.000  H
  C3       1.0000 0.38326  0.42860  0.55830  Biso   1.000  C
  C4       1.0000 0.36360  0.47250  0.58180  Biso   1.000  C
  H2       1.0000 0.34150  0.47770  0.57110  Biso   1.000  H
  C5       1.0000 0.37580  0.50910  0.62120  Biso   1.000  C
  N1       1.0000 0.40810  0.50470  0.63690  Biso   1.000  N
  C6       1.0000 0.31540  0.60770  0.69860  Biso   1.000  C
  C7       1.0000 0.35487  0.54190  0.64810  Biso   1.000  C
  C8       1.0000 0.30690  0.49120  0.66890  Biso   1.000  C
  H3       1.0000 0.28790  0.43410  0.66620  Biso   1.000  H
  C9       1.0000 0.34290  0.68700  0.70220  Biso   1.000  C
  H4       1.0000 0.34860  0.76530  0.72210  Biso   1.000  H
  C10      1.0000 0.36300  0.65580  0.67720  Biso   1.000  C
  H5       1.0000 0.38220  0.71220  0.68010  Biso   1.000  H
  C11      1.0000 0.32640  0.46200  0.64410  Biso   1.000  C
  H6       1.0000 0.32040  0.38580  0.62370  Biso   1.000  H
  C12      1.0000 0.68680  0.10150  0.56410  Biso   1.000  C
  C13      1.0000 0.69380  0.98430  0.53940  Biso   1.000  C
  H7       1.0000 0.71180  0.91930  0.54840  Biso   1.000  H
  C14      1.0000 0.67450  0.96290  0.50140  Biso   1.000  C
  H8       1.0000 0.67920  0.88330  0.48450  Biso   1.000  H
  C15      1.0000 0.64830  0.05770  0.48820  Biso   1.000  C
  C16      1.0000 0.64080  0.17360  0.51180  Biso   1.000  C
  H9       1.0000 0.62280  0.23800  0.50260  Biso   1.000  H
  C17      1.0000 0.66090  0.19580  0.55120  Biso   1.000  C
  H10      1.0000 0.65610  0.27540  0.56800  Biso   1.000  H
  C18      1.0000 0.62620  0.02890  0.44800  Biso   1.000  C
  N2       1.0000 0.63840  0.98220  0.41670  Biso   1.000  N
  C19      1.0000 0.61810  0.95910  0.38050  Biso   1.000  C
  C20      1.0000 0.58650  0.98740  0.37540  Biso   1.000  C
  H11      1.0000 0.57260  0.97300  0.35010  Biso   1.000  H
  C21      1.0000 0.57500  0.03680  0.40720  Biso   1.000  C
  C22      1.0000 0.59470  0.05790  0.44370  Biso   1.000  C
  H12      1.0000 0.58680  0.09190  0.46570  Biso   1.000  H
  C23      1.0000 0.63100  0.91300  0.34520  Biso   1.000  C
  C24      1.0000 0.65970  0.97120  0.34130  Biso   1.000  C
  H13      1.0000 0.67220  0.03310  0.36190  Biso   1.000  H
  C25      1.0000 0.67030  0.93980  0.30740  Biso   1.000  C
  H14      1.0000 0.69010  0.97990  0.30490  Biso   1.000  H
  C26      1.0000 0.65250  0.85130  0.27750  Biso   1.000  C
  C27      1.0000 0.62420  0.79350  0.28170  Biso   1.000  C
  H15      1.0000 0.61180  0.73100  0.26130  Biso   1.000  H
  C28      1.0000 0.61380  0.82500  0.31540  Biso   1.000  C
  H16      1.0000 0.59400  0.78430  0.31770  Biso   1.000  H
  O1       1.0000 0.26804  0.50570  0.72920  Biso   1.000  O
  O2       1.0000 0.27299  0.79800  0.72180  Biso   1.000  O
  O3       1.0000 0.31137  0.65180  0.77430  Biso   1.000  O
  O4       1.0000 0.68960  0.15590  0.64171  Biso   1.000  O
  O5       1.0000 0.72900  0.28690  0.61270  Biso   1.000  O
  O6       1.0000 0.73130  0.99140  0.62370  Biso   1.000  O
  O7       1.0000 0.69926  0.83730  0.23820  Biso   1.000  O
  O8       1.0000 0.65115  0.98460  0.20610  Biso   1.000  O
  O9       1.0000 0.65060  0.69280  0.20930  Biso   1.000  O
  O10      1.0000 0.58340  0.35400  0.65150  Biso   1.000  O
  O11      1.0000 0.56730  0.16300  0.69700  Biso   1.000  O
  O12      1.0000 0.57750  0.43800  0.71780  Biso   1.000  O
  O13      1.0000 0.75494  0.66200  0.69517  Biso   1.000  O
  P1       1.0000 0.28996  0.64480  0.73209  Biso   1.000  P
  P2       1.0000 0.71054  0.13000  0.61292  Biso   1.000  P
  P3       1.0000 0.66398  0.83950  0.23086  Biso   1.000  P
  P4       1.0000 0.56607  0.33850  0.68280  Biso   1.000  P
  C29      1.0000 0.50390  0.38300  0.68610  Biso   1.000  C
  H17      1.0000 0.51100  0.36020  0.71370  Biso   1.000  H
  C30      1.0000 0.46150  0.44600  0.63040  Biso   1.000  C
  C31      1.0000 0.52520  0.38700  0.66280  Biso   1.000  C
  C32      1.0000 0.47240  0.41200  0.67050  Biso   1.000  C
  H18      1.0000 0.45800  0.40940  0.68720  Biso   1.000  H
  C33      1.0000 0.48320  0.45000  0.60720  Biso   1.000  C
  H19      1.0000 0.47630  0.47370  0.57970  Biso   1.000  H
  C34      1.0000 0.51440  0.42100  0.62320  Biso   1.000  C
  H20      1.0000 0.52880  0.42470  0.60650  Biso   1.000  H
  Ba2      1.0000 0.37468  0.26010  0.30031  Biso   1.000  Ba
  Ba3      1.0000 0.62161  0.06560  0.63214  Biso   1.000  Ba
  Ba4      1.0000 0.70960  0.41440  0.69090  Biso   1.000  Ba
  C35      1.0000 0.52190  0.11400  0.36760  Biso   1.000  C
  C36      1.0000 0.54050  0.05700  0.40300  Biso   1.000  C
  C37      1.0000 0.52650  0.01100  0.43350  Biso   1.000  C
  H21      1.0000 0.53920  0.97180  0.45770  Biso   1.000  H
  C38      1.0000 0.49400  0.02200  0.42840  Biso   1.000  C
  H22      1.0000 0.48450  0.99100  0.44920  Biso   1.000  H
  C39      1.0000 0.47550  0.08000  0.39300  Biso   1.000  C
  C40      1.0000 0.48940  0.12600  0.36260  Biso   1.000  C
  H23      1.0000 0.47670  0.16470  0.33830  Biso   1.000  H
  O14      1.0000 0.42990  0.26650  0.39940  Biso   1.000  O
  O15      1.0000 0.42180  0.98870  0.41640  Biso   1.000  O
  O16      1.0000 0.41720  0.06000  0.34570  Biso   1.000  O
  P5       1.0000 0.43417  0.09640  0.38810  Biso   1.000  P
  C41      1.0000 0.37610  0.27580  0.45280  Biso   1.000  C
  H24      1.0000 0.38820  0.21510  0.43880  Biso   1.000  H
  C42      1.0000 0.38688  0.29840  0.49360  Biso   1.000  C
  H25      1.0000 0.40630  0.25320  0.50740  Biso   1.000  H
  C43      1.0000 0.36920  0.38720  0.51415  Biso   1.000  C
  C44      1.0000 0.34090  0.45340  0.49400  Biso   1.000  C
  H26      1.0000 0.32880  0.51410  0.50800  Biso   1.000  H
  C45      1.0000 0.33010  0.43080  0.45320  Biso   1.000  C
  H27      1.0000 0.31070  0.47600  0.43950  Biso   1.000  H
  C46      1.0000 0.34780  0.34200  0.43266  Biso   1.000  C
  O17      1.0000 0.30020  0.34120  0.36710  Biso   1.000  O
  O18      1.0000 0.34860  0.19030  0.36430  Biso   1.000  O
  O19      1.0000 0.34830  0.48040  0.36250  Biso   1.000  O
  P6       1.0000 0.33575  0.33460  0.37949  Biso   1.000  P
  C47      1.0000 0.36420  0.50600  0.68840  Biso   1.000  C
  H28      1.0000 0.38430  0.46020  0.69880  Biso   1.000  H
  C48      1.0000 0.34450  0.53700  0.71320  Biso   1.000  C
  H29      1.0000 0.35080  0.51000  0.74060  Biso   1.000  H
  C49      1.0000 0.30850  0.66700  0.65960  Biso   1.000  C
  H30      1.0000 0.29120  0.73580  0.65090  Biso   1.000  H
  C50      1.0000 0.32680  0.62400  0.63410  Biso   1.000  C
  H31      1.0000 0.32030  0.64970  0.60670  Biso   1.000  H
  O20      1.0000 0.57810  0.25280  0.68270  Biso   1.000  O
  O21      1.0000 0.58430  0.49300  0.64570  Biso   1.000  O
  O22      1.0000 0.57950  0.51400  0.71520  Biso   1.000  O
  P7       1.0000 0.56950  0.42640  0.67810  Biso   1.000  P
  C51      1.0000 0.47960  0.33900  0.61150  Biso   1.000  C
  H32      1.0000 0.46950  0.27270  0.59020  Biso   1.000  H
  C52      1.0000 0.51180  0.33200  0.62530  Biso   1.000  C
  H33      1.0000 0.52380  0.26120  0.61360  Biso   1.000  H
  C53      1.0000 0.46180  0.44000  0.62810  Biso   1.000  C
  C54      1.0000 0.50950  0.53100  0.67390  Biso   1.000  C
  H34      1.0000 0.51970  0.59670  0.69520  Biso   1.000  H
  C55      1.0000 0.52650  0.42800  0.65640  Biso   1.000  C
  C56      1.0000 0.47720  0.53500  0.65920  Biso   1.000  C
  H35      1.0000 0.46510  0.60580  0.67070  Biso   1.000  H
  Ba5      1.0000 0.37015  0.36100  0.30243  Biso   1.000  Ba
  Ba6      1.0000 0.37467  0.42330  0.30760  Biso   1.000  Ba
  Ba7      1.0000 0.63050  0.15470  0.63422  Biso   1.000  Ba
  Ba8      1.0000 0.62580  0.23700  0.63119  Biso   1.000  Ba
  Ba9      1.0000 0.71713  0.40050  0.69358  Biso   1.000  Ba
  C57      1.0000 0.54170  0.08800  0.39980  Biso   1.000  C
  C58      1.0000 0.53250  0.20200  0.42360  Biso   1.000  C
  H36      1.0000 0.54800  0.25460  0.44320  Biso   1.000  H
  C59      1.0000 0.50080  0.23900  0.41860  Biso   1.000  C
  H37      1.0000 0.49460  0.31650  0.43480  Biso   1.000  H
  C60      1.0000 0.47820  0.16200  0.38980  Biso   1.000  C
  C61      1.0000 0.48730  0.04800  0.36610  Biso   1.000  C
  H38      1.0000 0.47180  0.99580  0.34640  Biso   1.000  H
  C62      1.0000 0.51900  0.01100  0.37110  Biso   1.000  C
  H39      1.0000 0.52530  0.93380  0.35480  Biso   1.000  H
  P8       1.0000 0.43670  0.19650  0.38920  Biso   1.000  P
  O23      1.0000 0.42740  0.10000  0.42160  Biso   1.000  O
  O24      1.0000 0.43520  0.36780  0.40250  Biso   1.000  O
  O25      1.0000 0.41760  0.19200  0.34630  Biso   1.000  O
  C63      1.0000 0.34840  0.38400  0.43430  Biso   1.000  C
  C64      1.0000 0.38040  0.41000  0.44970  Biso   1.000  C
  H40      1.0000 0.39430  0.41900  0.43230  Biso   1.000  H
  C65      1.0000 0.39210  0.42400  0.49060  Biso   1.000  C
  H41      1.0000 0.41400  0.44220  0.50110  Biso   1.000  H
  C66      1.0000 0.37190  0.41100  0.51600  Biso   1.000  C
  C67      1.0000 0.33990  0.38500  0.50050  Biso   1.000  C
  H42      1.0000 0.32600  0.37580  0.51790  Biso   1.000  H
  C68      1.0000 0.32820  0.37100  0.45970  Biso   1.000  C
  H43      1.0000 0.30630  0.35260  0.44910  Biso   1.000  H
  P9       1.0000 0.33120  0.41500  0.38350  Biso   1.000  P
  O26      1.0000 0.34870  0.54600  0.36770  Biso   1.000  O
  O27      1.0000 0.29670  0.46300  0.37820  Biso   1.000  O
  O28      1.0000 0.33660  0.26100  0.36410  Biso   1.000  O
  Ba10     1.0000 0.21164  0.40442  0.69540  Biso   1.000  Ba
  C69      1.0000 0.92770  0.95700  0.61280  Biso   1.000  C
  C70      1.0000 0.91532  0.92070  0.57360  Biso   1.000  C
  H44      1.0000 0.92880  0.89010  0.55710  Biso   1.000  H
  C71      1.0000 0.88326  0.92860  0.55830  Biso   1.000  C
  C72      1.0000 0.86360  0.97250  0.58180  Biso   1.000  C
  H45      1.0000 0.84150  0.97770  0.57110  Biso   1.000  H
  C73      1.0000 0.87580  0.00910  0.62120  Biso   1.000  C
  N3       1.0000 0.90810  0.00470  0.63690  Biso   1.000  N
  C74      1.0000 0.81540  0.10770  0.69860  Biso   1.000  C
  C75      1.0000 0.85487  0.04190  0.64810  Biso   1.000  C
  C76      1.0000 0.80690  0.99120  0.66890  Biso   1.000  C
  H46      1.0000 0.78790  0.93410  0.66620  Biso   1.000  H
  C77      1.0000 0.84290  0.18700  0.70220  Biso   1.000  C
  H47      1.0000 0.84860  0.26530  0.72210  Biso   1.000  H
  C78      1.0000 0.86300  0.15580  0.67720  Biso   1.000  C
  H48      1.0000 0.88220  0.21220  0.68010  Biso   1.000  H
  C79      1.0000 0.82640  0.96200  0.64410  Biso   1.000  C
  H49      1.0000 0.82040  0.88580  0.62370  Biso   1.000  H
  C80      1.0000 0.18680  0.60150  0.56410  Biso   1.000  C
  C81      1.0000 0.19380  0.48430  0.53940  Biso   1.000  C
  H50      1.0000 0.21180  0.41930  0.54840  Biso   1.000  H
  C82      1.0000 0.17450  0.46290  0.50140  Biso   1.000  C
  H51      1.0000 0.17920  0.38330  0.48450  Biso   1.000  H
  C83      1.0000 0.14830  0.55770  0.48820  Biso   1.000  C
  C84      1.0000 0.14080  0.67360  0.51180  Biso   1.000  C
  H52      1.0000 0.12280  0.73800  0.50260  Biso   1.000  H
  C85      1.0000 0.16090  0.69580  0.55120  Biso   1.000  C
  H53      1.0000 0.15610  0.77540  0.56800  Biso   1.000  H
  C86      1.0000 0.12620  0.52890  0.44800  Biso   1.000  C
  N4       1.0000 0.13840  0.48220  0.41670  Biso   1.000  N
  C87      1.0000 0.11810  0.45910  0.38050  Biso   1.000  C
  C88      1.0000 0.08650  0.48740  0.37540  Biso   1.000  C
  H54      1.0000 0.07260  0.47300  0.35010  Biso   1.000  H
  C89      1.0000 0.07500  0.53680  0.40720  Biso   1.000  C
  C90      1.0000 0.09470  0.55790  0.44370  Biso   1.000  C
  H55      1.0000 0.08680  0.59190  0.46570  Biso   1.000  H
  C91      1.0000 0.13100  0.41300  0.34520  Biso   1.000  C
  C92      1.0000 0.15970  0.47120  0.34130  Biso   1.000  C
  H56      1.0000 0.17220  0.53310  0.36190  Biso   1.000  H
  C93      1.0000 0.17030  0.43980  0.30740  Biso   1.000  C
  H57      1.0000 0.19010  0.47990  0.30490  Biso   1.000  H
  C94      1.0000 0.15250  0.35130  0.27750  Biso   1.000  C
  C95      1.0000 0.12420  0.29350  0.28170  Biso   1.000  C
  H58      1.0000 0.11180  0.23100  0.26130  Biso   1.000  H
  C96      1.0000 0.11380  0.32500  0.31540  Biso   1.000  C
  H59      1.0000 0.09400  0.28430  0.31770  Biso   1.000  H
  O29      1.0000 0.76804  0.00570  0.72920  Biso   1.000  O
  O30      1.0000 0.77299  0.29800  0.72180  Biso   1.000  O
  O31      1.0000 0.81137  0.15180  0.77430  Biso   1.000  O
  O32      1.0000 0.18960  0.65590  0.64171  Biso   1.000  O
  O33      1.0000 0.22900  0.78690  0.61270  Biso   1.000  O
  O34      1.0000 0.23130  0.49140  0.62370  Biso   1.000  O
  O35      1.0000 0.19926  0.33730  0.23820  Biso   1.000  O
  O36      1.0000 0.15115  0.48460  0.20610  Biso   1.000  O
  O37      1.0000 0.15060  0.19280  0.20930  Biso   1.000  O
  O38      1.0000 0.08340  0.85400  0.65150  Biso   1.000  O
  O39      1.0000 0.06730  0.66300  0.69700  Biso   1.000  O
  O40      1.0000 0.07750  0.93800  0.71780  Biso   1.000  O
  O41      1.0000 0.25494  0.16200  0.69517  Biso   1.000  O
  P10      1.0000 0.78996  0.14480  0.73209  Biso   1.000  P
  P11      1.0000 0.21054  0.63000  0.61292  Biso   1.000  P
  P12      1.0000 0.16398  0.33950  0.23086  Biso   1.000  P
  P13      1.0000 0.06607  0.83850  0.68280  Biso   1.000  P
  C97      1.0000 0.00390  0.88300  0.68610  Biso   1.000  C
  H60      1.0000 0.01100  0.86020  0.71370  Biso   1.000  H
  C98      1.0000 0.96150  0.94600  0.63040  Biso   1.000  C
  C99      1.0000 0.02520  0.88700  0.66280  Biso   1.000  C
  C100     1.0000 0.97240  0.91200  0.67050  Biso   1.000  C
  H61      1.0000 0.95800  0.90940  0.68720  Biso   1.000  H
  C101     1.0000 0.98320  0.95000  0.60720  Biso   1.000  C
  H62      1.0000 0.97630  0.97370  0.57970  Biso   1.000  H
  C102     1.0000 0.01440  0.92100  0.62320  Biso   1.000  C
  H63      1.0000 0.02880  0.92470  0.60650  Biso   1.000  H
  Ba11     1.0000 0.87468  0.76010  0.30031  Biso   1.000  Ba
  Ba12     1.0000 0.12161  0.56560  0.63214  Biso   1.000  Ba
  Ba13     1.0000 0.20960  0.91440  0.69090  Biso   1.000  Ba
  C103     1.0000 0.02190  0.61400  0.36760  Biso   1.000  C
  C104     1.0000 0.04050  0.55700  0.40300  Biso   1.000  C
  C105     1.0000 0.02650  0.51100  0.43350  Biso   1.000  C
  H64      1.0000 0.03920  0.47180  0.45770  Biso   1.000  H
  C106     1.0000 0.99400  0.52200  0.42840  Biso   1.000  C
  H65      1.0000 0.98450  0.49100  0.44920  Biso   1.000  H
  C107     1.0000 0.97550  0.58000  0.39300  Biso   1.000  C
  C108     1.0000 0.98940  0.62600  0.36260  Biso   1.000  C
  H66      1.0000 0.97670  0.66470  0.33830  Biso   1.000  H
  O42      1.0000 0.92990  0.76650  0.39940  Biso   1.000  O
  O43      1.0000 0.92180  0.48870  0.41640  Biso   1.000  O
  O44      1.0000 0.91720  0.56000  0.34570  Biso   1.000  O
  P14      1.0000 0.93417  0.59640  0.38810  Biso   1.000  P
  C109     1.0000 0.87610  0.77580  0.45280  Biso   1.000  C
  H67      1.0000 0.88820  0.71510  0.43880  Biso   1.000  H
  C110     1.0000 0.88688  0.79840  0.49360  Biso   1.000  C
  H68      1.0000 0.90630  0.75320  0.50740  Biso   1.000  H
  C111     1.0000 0.86920  0.88720  0.51415  Biso   1.000  C
  C112     1.0000 0.84090  0.95340  0.49400  Biso   1.000  C
  H69      1.0000 0.82880  0.01410  0.50800  Biso   1.000  H
  C113     1.0000 0.83010  0.93080  0.45320  Biso   1.000  C
  H70      1.0000 0.81070  0.97600  0.43950  Biso   1.000  H
  C114     1.0000 0.84780  0.84200  0.43266  Biso   1.000  C
  O45      1.0000 0.80020  0.84120  0.36710  Biso   1.000  O
  O46      1.0000 0.84860  0.69030  0.36430  Biso   1.000  O
  O47      1.0000 0.84830  0.98040  0.36250  Biso   1.000  O
  P15      1.0000 0.83575  0.83460  0.37949  Biso   1.000  P
  C115     1.0000 0.86420  0.00600  0.68840  Biso   1.000  C
  H71      1.0000 0.88430  0.96020  0.69880  Biso   1.000  H
  C116     1.0000 0.84450  0.03700  0.71320  Biso   1.000  C
  H72      1.0000 0.85080  0.01000  0.74060  Biso   1.000  H
  C117     1.0000 0.80850  0.16700  0.65960  Biso   1.000  C
  H73      1.0000 0.79120  0.23580  0.65090  Biso   1.000  H
  C118     1.0000 0.82680  0.12400  0.63410  Biso   1.000  C
  H74      1.0000 0.82030  0.14970  0.60670  Biso   1.000  H
  O48      1.0000 0.07810  0.75280  0.68270  Biso   1.000  O
  O49      1.0000 0.08430  0.99300  0.64570  Biso   1.000  O
  O50      1.0000 0.07950  0.01400  0.71520  Biso   1.000  O
  P16      1.0000 0.06950  0.92640  0.67810  Biso   1.000  P
  C119     1.0000 0.97960  0.83900  0.61150  Biso   1.000  C
  H75      1.0000 0.96950  0.77270  0.59020  Biso   1.000  H
  C120     1.0000 0.01180  0.83200  0.62530  Biso   1.000  C
  H76      1.0000 0.02380  0.76120  0.61360  Biso   1.000  H
  C121     1.0000 0.96180  0.94000  0.62810  Biso   1.000  C
  C122     1.0000 0.00950  0.03100  0.67390  Biso   1.000  C
  H77      1.0000 0.01970  0.09670  0.69520  Biso   1.000  H
  C123     1.0000 0.02650  0.92800  0.65640  Biso   1.000  C
  C124     1.0000 0.97720  0.03500  0.65920  Biso   1.000  C
  H78      1.0000 0.96510  0.10580  0.67070  Biso   1.000  H
  Ba14     1.0000 0.87015  0.86100  0.30243  Biso   1.000  Ba
  Ba15     1.0000 0.87467  0.92330  0.30760  Biso   1.000  Ba
  Ba16     1.0000 0.13050  0.65470  0.63422  Biso   1.000  Ba
  Ba17     1.0000 0.12580  0.73700  0.63119  Biso   1.000  Ba
  Ba18     1.0000 0.21713  0.90050  0.69358  Biso   1.000  Ba
  C125     1.0000 0.04170  0.58800  0.39980  Biso   1.000  C
  C126     1.0000 0.03250  0.70200  0.42360  Biso   1.000  C
  H79      1.0000 0.04800  0.75460  0.44320  Biso   1.000  H
  C127     1.0000 0.00080  0.73900  0.41860  Biso   1.000  C
  H80      1.0000 0.99460  0.81650  0.43480  Biso   1.000  H
  C128     1.0000 0.97820  0.66200  0.38980  Biso   1.000  C
  C129     1.0000 0.98730  0.54800  0.36610  Biso   1.000  C
  H81      1.0000 0.97180  0.49580  0.34640  Biso   1.000  H
  C130     1.0000 0.01900  0.51100  0.37110  Biso   1.000  C
  H82      1.0000 0.02530  0.43380  0.35480  Biso   1.000  H
  P17      1.0000 0.93670  0.69650  0.38920  Biso   1.000  P
  O51      1.0000 0.92740  0.60000  0.42160  Biso   1.000  O
  O52      1.0000 0.93520  0.86780  0.40250  Biso   1.000  O
  O53      1.0000 0.91760  0.69200  0.34630  Biso   1.000  O
  C131     1.0000 0.84840  0.88400  0.43430  Biso   1.000  C
  C132     1.0000 0.88040  0.91000  0.44970  Biso   1.000  C
  H83      1.0000 0.89430  0.91900  0.43230  Biso   1.000  H
  C133     1.0000 0.89210  0.92400  0.49060  Biso   1.000  C
  H84      1.0000 0.91400  0.94220  0.50110  Biso   1.000  H
  C134     1.0000 0.87190  0.91100  0.51600  Biso   1.000  C
  C135     1.0000 0.83990  0.88500  0.50050  Biso   1.000  C
  H85      1.0000 0.82600  0.87580  0.51790  Biso   1.000  H
  C136     1.0000 0.82820  0.87100  0.45970  Biso   1.000  C
  H86      1.0000 0.80630  0.85260  0.44910  Biso   1.000  H
  P18      1.0000 0.83120  0.91500  0.38350  Biso   1.000  P
  O54      1.0000 0.84870  0.04600  0.36770  Biso   1.000  O
  O55      1.0000 0.79670  0.96300  0.37820  Biso   1.000  O
  O56      1.0000 0.83660  0.76100  0.36410  Biso   1.000  O
  Ba19     1.0000 0.28836  0.90442  0.80460  Biso   1.000  Ba
  C137     1.0000 0.57230  0.45700  0.88720  Biso   1.000  C
  C138     1.0000 0.58468  0.42070  0.92640  Biso   1.000  C
  H87      1.0000 0.57120  0.39010  0.94290  Biso   1.000  H
  C139     1.0000 0.61674  0.42860  0.94170  Biso   1.000  C
  C140     1.0000 0.63640  0.47250  0.91820  Biso   1.000  C
  H88      1.0000 0.65850  0.47770  0.92890  Biso   1.000  H
  C141     1.0000 0.62420  0.50910  0.87880  Biso   1.000  C
  N5       1.0000 0.59190  0.50470  0.86310  Biso   1.000  N
  C142     1.0000 0.68460  0.60770  0.80140  Biso   1.000  C
  C143     1.0000 0.64513  0.54190  0.85190  Biso   1.000  C
  C144     1.0000 0.69310  0.49120  0.83110  Biso   1.000  C
  H89      1.0000 0.71210  0.43410  0.83380  Biso   1.000  H
  C145     1.0000 0.65710  0.68700  0.79780  Biso   1.000  C
  H90      1.0000 0.65140  0.76530  0.77790  Biso   1.000  H
  C146     1.0000 0.63700  0.65580  0.82280  Biso   1.000  C
  H91      1.0000 0.61780  0.71220  0.81990  Biso   1.000  H
  C147     1.0000 0.67360  0.46200  0.85590  Biso   1.000  C
  H92      1.0000 0.67960  0.38580  0.87630  Biso   1.000  H
  C148     1.0000 0.31320  0.10150  0.93590  Biso   1.000  C
  C149     1.0000 0.30620  0.98430  0.96060  Biso   1.000  C
  H93      1.0000 0.28820  0.91930  0.95160  Biso   1.000  H
  C150     1.0000 0.32550  0.96290  0.99860  Biso   1.000  C
  H94      1.0000 0.32080  0.88330  0.01550  Biso   1.000  H
  C151     1.0000 0.35170  0.05770  0.01180  Biso   1.000  C
  C152     1.0000 0.35920  0.17360  0.98820  Biso   1.000  C
  H95      1.0000 0.37720  0.23800  0.99740  Biso   1.000  H
  C153     1.0000 0.33910  0.19580  0.94880  Biso   1.000  C
  H96      1.0000 0.34390  0.27540  0.93200  Biso   1.000  H
  C154     1.0000 0.37380  0.02890  0.05200  Biso   1.000  C
  N6       1.0000 0.36160  0.98220  0.08330  Biso   1.000  N
  C155     1.0000 0.38190  0.95910  0.11950  Biso   1.000  C
  C156     1.0000 0.41350  0.98740  0.12460  Biso   1.000  C
  H97      1.0000 0.42740  0.97300  0.14990  Biso   1.000  H
  C157     1.0000 0.42500  0.03680  0.09280  Biso   1.000  C
  C158     1.0000 0.40530  0.05790  0.05630  Biso   1.000  C
  H98      1.0000 0.41320  0.09190  0.03430  Biso   1.000  H
  C159     1.0000 0.36900  0.91300  0.15480  Biso   1.000  C
  C160     1.0000 0.34030  0.97120  0.15870  Biso   1.000  C
  H99      1.0000 0.32780  0.03310  0.13810  Biso   1.000  H
  C161     1.0000 0.32970  0.93980  0.19260  Biso   1.000  C
  H100     1.0000 0.30990  0.97990  0.19510  Biso   1.000  H
  C162     1.0000 0.34750  0.85130  0.22250  Biso   1.000  C
  C163     1.0000 0.37580  0.79350  0.21830  Biso   1.000  C
  H101     1.0000 0.38820  0.73100  0.23870  Biso   1.000  H
  C164     1.0000 0.38620  0.82500  0.18460  Biso   1.000  C
  H102     1.0000 0.40600  0.78430  0.18230  Biso   1.000  H
  O57      1.0000 0.73196  0.50570  0.77080  Biso   1.000  O
  O58      1.0000 0.72701  0.79800  0.77820  Biso   1.000  O
  O59      1.0000 0.68863  0.65180  0.72570  Biso   1.000  O
  O60      1.0000 0.31040  0.15590  0.85829  Biso   1.000  O
  O61      1.0000 0.27100  0.28690  0.88730  Biso   1.000  O
  O62      1.0000 0.26870  0.99140  0.87630  Biso   1.000  O
  O63      1.0000 0.30074  0.83730  0.26180  Biso   1.000  O
  O64      1.0000 0.34885  0.98460  0.29390  Biso   1.000  O
  O65      1.0000 0.34940  0.69280  0.29070  Biso   1.000  O
  O66      1.0000 0.41660  0.35400  0.84850  Biso   1.000  O
  O67      1.0000 0.43270  0.16300  0.80300  Biso   1.000  O
  O68      1.0000 0.42250  0.43800  0.78220  Biso   1.000  O
  O69      1.0000 0.24506  0.66200  0.80483  Biso   1.000  O
  P19      1.0000 0.71004  0.64480  0.76791  Biso   1.000  P
  P20      1.0000 0.28946  0.13000  0.88708  Biso   1.000  P
  P21      1.0000 0.33602  0.83950  0.26914  Biso   1.000  P
  P22      1.0000 0.43393  0.33850  0.81720  Biso   1.000  P
  C165     1.0000 0.49610  0.38300  0.81390  Biso   1.000  C
  H103     1.0000 0.48900  0.36020  0.78630  Biso   1.000  H
  C166     1.0000 0.53850  0.44600  0.86960  Biso   1.000  C
  C167     1.0000 0.47480  0.38700  0.83720  Biso   1.000  C
  C168     1.0000 0.52760  0.41200  0.82950  Biso   1.000  C
  H104     1.0000 0.54200  0.40940  0.81280  Biso   1.000  H
  C169     1.0000 0.51680  0.45000  0.89280  Biso   1.000  C
  H105     1.0000 0.52370  0.47370  0.92030  Biso   1.000  H
  C170     1.0000 0.48560  0.42100  0.87680  Biso   1.000  C
  H106     1.0000 0.47120  0.42470  0.89350  Biso   1.000  H
  Ba20     1.0000 0.62532  0.26010  0.19969  Biso   1.000  Ba
  Ba21     1.0000 0.37839  0.06560  0.86786  Biso   1.000  Ba
  Ba22     1.0000 0.29040  0.41440  0.80910  Biso   1.000  Ba
  C171     1.0000 0.47810  0.11400  0.13240  Biso   1.000  C
  C172     1.0000 0.45950  0.05700  0.09700  Biso   1.000  C
  C173     1.0000 0.47350  0.01100  0.06650  Biso   1.000  C
  H107     1.0000 0.46080  0.97180  0.04230  Biso   1.000  H
  C174     1.0000 0.50600  0.02200  0.07160  Biso   1.000  C
  H108     1.0000 0.51550  0.99100  0.05080  Biso   1.000  H
  C175     1.0000 0.52450  0.08000  0.10700  Biso   1.000  C
  C176     1.0000 0.51060  0.12600  0.13740  Biso   1.000  C
  H109     1.0000 0.52330  0.16470  0.16170  Biso   1.000  H
  O70      1.0000 0.57010  0.26650  0.10060  Biso   1.000  O
  O71      1.0000 0.57820  0.98870  0.08360  Biso   1.000  O
  O72      1.0000 0.58280  0.06000  0.15430  Biso   1.000  O
  P23      1.0000 0.56583  0.09640  0.11190  Biso   1.000  P
  C177     1.0000 0.62390  0.27580  0.04720  Biso   1.000  C
  H110     1.0000 0.61180  0.21510  0.06120  Biso   1.000  H
  C178     1.0000 0.61312  0.29840  0.00640  Biso   1.000  C
  H111     1.0000 0.59370  0.25320  0.99260  Biso   1.000  H
  C179     1.0000 0.63080  0.38720  0.98585  Biso   1.000  C
  C180     1.0000 0.65910  0.45340  0.00600  Biso   1.000  C
  H112     1.0000 0.67120  0.51410  0.99200  Biso   1.000  H
  C181     1.0000 0.66990  0.43080  0.04680  Biso   1.000  C
  H113     1.0000 0.68930  0.47600  0.06050  Biso   1.000  H
  C182     1.0000 0.65220  0.34200  0.06734  Biso   1.000  C
  O73      1.0000 0.69980  0.34120  0.13290  Biso   1.000  O
  O74      1.0000 0.65140  0.19030  0.13570  Biso   1.000  O
  O75      1.0000 0.65170  0.48040  0.13750  Biso   1.000  O
  P24      1.0000 0.66425  0.33460  0.12051  Biso   1.000  P
  C183     1.0000 0.63580  0.50600  0.81160  Biso   1.000  C
  H114     1.0000 0.61570  0.46020  0.80120  Biso   1.000  H
  C184     1.0000 0.65550  0.53700  0.78680  Biso   1.000  C
  H115     1.0000 0.64920  0.51000  0.75940  Biso   1.000  H
  C185     1.0000 0.69150  0.66700  0.84040  Biso   1.000  C
  H116     1.0000 0.70880  0.73580  0.84910  Biso   1.000  H
  C186     1.0000 0.67320  0.62400  0.86590  Biso   1.000  C
  H117     1.0000 0.67970  0.64970  0.89330  Biso   1.000  H
  O76      1.0000 0.42190  0.25280  0.81730  Biso   1.000  O
  O77      1.0000 0.41570  0.49300  0.85430  Biso   1.000  O
  O78      1.0000 0.42050  0.51400  0.78480  Biso   1.000  O
  P25      1.0000 0.43050  0.42640  0.82190  Biso   1.000  P
  C187     1.0000 0.52040  0.33900  0.88850  Biso   1.000  C
  H118     1.0000 0.53050  0.27270  0.90980  Biso   1.000  H
  C188     1.0000 0.48820  0.33200  0.87470  Biso   1.000  C
  H119     1.0000 0.47620  0.26120  0.88640  Biso   1.000  H
  C189     1.0000 0.53820  0.44000  0.87190  Biso   1.000  C
  C190     1.0000 0.49050  0.53100  0.82610  Biso   1.000  C
  H120     1.0000 0.48030  0.59670  0.80480  Biso   1.000  H
  C191     1.0000 0.47350  0.42800  0.84360  Biso   1.000  C
  C192     1.0000 0.52280  0.53500  0.84080  Biso   1.000  C
  H121     1.0000 0.53490  0.60580  0.82930  Biso   1.000  H
  Ba23     1.0000 0.62985  0.36100  0.19757  Biso   1.000  Ba
  Ba24     1.0000 0.62533  0.42330  0.19240  Biso   1.000  Ba
  Ba25     1.0000 0.36950  0.15470  0.86578  Biso   1.000  Ba
  Ba26     1.0000 0.37420  0.23700  0.86881  Biso   1.000  Ba
  Ba27     1.0000 0.28287  0.40050  0.80642  Biso   1.000  Ba
  C193     1.0000 0.45830  0.08800  0.10020  Biso   1.000  C
  C194     1.0000 0.46750  0.20200  0.07640  Biso   1.000  C
  H122     1.0000 0.45200  0.25460  0.05680  Biso   1.000  H
  C195     1.0000 0.49920  0.23900  0.08140  Biso   1.000  C
  H123     1.0000 0.50540  0.31650  0.06520  Biso   1.000  H
  C196     1.0000 0.52180  0.16200  0.11020  Biso   1.000  C
  C197     1.0000 0.51270  0.04800  0.13390  Biso   1.000  C
  H124     1.0000 0.52820  0.99580  0.15360  Biso   1.000  H
  C198     1.0000 0.48100  0.01100  0.12890  Biso   1.000  C
  H125     1.0000 0.47470  0.93380  0.14520  Biso   1.000  H
  P26      1.0000 0.56330  0.19650  0.11080  Biso   1.000  P
  O79      1.0000 0.57260  0.10000  0.07840  Biso   1.000  O
  O80      1.0000 0.56480  0.36780  0.09750  Biso   1.000  O
  O81      1.0000 0.58240  0.19200  0.15370  Biso   1.000  O
  C199     1.0000 0.65160  0.38400  0.06570  Biso   1.000  C
  C200     1.0000 0.61960  0.41000  0.05030  Biso   1.000  C
  H126     1.0000 0.60570  0.41900  0.06770  Biso   1.000  H
  C201     1.0000 0.60790  0.42400  0.00940  Biso   1.000  C
  H127     1.0000 0.58600  0.44220  0.99890  Biso   1.000  H
  C202     1.0000 0.62810  0.41100  0.98400  Biso   1.000  C
  C203     1.0000 0.66010  0.38500  0.99950  Biso   1.000  C
  H128     1.0000 0.67400  0.37580  0.98210  Biso   1.000  H
  C204     1.0000 0.67180  0.37100  0.04030  Biso   1.000  C
  H129     1.0000 0.69370  0.35260  0.05090  Biso   1.000  H
  P27      1.0000 0.66880  0.41500  0.11650  Biso   1.000  P
  O82      1.0000 0.65130  0.54600  0.13230  Biso   1.000  O
  O83      1.0000 0.70330  0.46300  0.12180  Biso   1.000  O
  O84      1.0000 0.66340  0.26100  0.13590  Biso   1.000  O
  Ba28     1.0000 0.78836  0.40442  0.80460  Biso   1.000  Ba
  C205     1.0000 0.07230  0.95700  0.88720  Biso   1.000  C
  C206     1.0000 0.08468  0.92070  0.92640  Biso   1.000  C
  H130     1.0000 0.07120  0.89010  0.94290  Biso   1.000  H
  C207     1.0000 0.11674  0.92860  0.94170  Biso   1.000  C
  C208     1.0000 0.13640  0.97250  0.91820  Biso   1.000  C
  H131     1.0000 0.15850  0.97770  0.92890  Biso   1.000  H
  C209     1.0000 0.12420  0.00910  0.87880  Biso   1.000  C
  N7       1.0000 0.09190  0.00470  0.86310  Biso   1.000  N
  C210     1.0000 0.18460  0.10770  0.80140  Biso   1.000  C
  C211     1.0000 0.14513  0.04190  0.85190  Biso   1.000  C
  C212     1.0000 0.19310  0.99120  0.83110  Biso   1.000  C
  H132     1.0000 0.21210  0.93410  0.83380  Biso   1.000  H
  C213     1.0000 0.15710  0.18700  0.79780  Biso   1.000  C
  H133     1.0000 0.15140  0.26530  0.77790  Biso   1.000  H
  C214     1.0000 0.13700  0.15580  0.82280  Biso   1.000  C
  H134     1.0000 0.11780  0.21220  0.81990  Biso   1.000  H
  C215     1.0000 0.17360  0.96200  0.85590  Biso   1.000  C
  H135     1.0000 0.17960  0.88580  0.87630  Biso   1.000  H
  C216     1.0000 0.81320  0.60150  0.93590  Biso   1.000  C
  C217     1.0000 0.80620  0.48430  0.96060  Biso   1.000  C
  H136     1.0000 0.78820  0.41930  0.95160  Biso   1.000  H
  C218     1.0000 0.82550  0.46290  0.99860  Biso   1.000  C
  H137     1.0000 0.82080  0.38330  0.01550  Biso   1.000  H
  C219     1.0000 0.85170  0.55770  0.01180  Biso   1.000  C
  C220     1.0000 0.85920  0.67360  0.98820  Biso   1.000  C
  H138     1.0000 0.87720  0.73800  0.99740  Biso   1.000  H
  C221     1.0000 0.83910  0.69580  0.94880  Biso   1.000  C
  H139     1.0000 0.84390  0.77540  0.93200  Biso   1.000  H
  C222     1.0000 0.87380  0.52890  0.05200  Biso   1.000  C
  N8       1.0000 0.86160  0.48220  0.08330  Biso   1.000  N
  C223     1.0000 0.88190  0.45910  0.11950  Biso   1.000  C
  C224     1.0000 0.91350  0.48740  0.12460  Biso   1.000  C
  H140     1.0000 0.92740  0.47300  0.14990  Biso   1.000  H
  C225     1.0000 0.92500  0.53680  0.09280  Biso   1.000  C
  C226     1.0000 0.90530  0.55790  0.05630  Biso   1.000  C
  H141     1.0000 0.91320  0.59190  0.03430  Biso   1.000  H
  C227     1.0000 0.86900  0.41300  0.15480  Biso   1.000  C
  C228     1.0000 0.84030  0.47120  0.15870  Biso   1.000  C
  H142     1.0000 0.82780  0.53310  0.13810  Biso   1.000  H
  C229     1.0000 0.82970  0.43980  0.19260  Biso   1.000  C
  H143     1.0000 0.80990  0.47990  0.19510  Biso   1.000  H
  C230     1.0000 0.84750  0.35130  0.22250  Biso   1.000  C
  C231     1.0000 0.87580  0.29350  0.21830  Biso   1.000  C
  H144     1.0000 0.88820  0.23100  0.23870  Biso   1.000  H
  C232     1.0000 0.88620  0.32500  0.18460  Biso   1.000  C
  H145     1.0000 0.90600  0.28430  0.18230  Biso   1.000  H
  O85      1.0000 0.23196  0.00570  0.77080  Biso   1.000  O
  O86      1.0000 0.22701  0.29800  0.77820  Biso   1.000  O
  O87      1.0000 0.18863  0.15180  0.72570  Biso   1.000  O
  O88      1.0000 0.81040  0.65590  0.85829  Biso   1.000  O
  O89      1.0000 0.77100  0.78690  0.88730  Biso   1.000  O
  O90      1.0000 0.76870  0.49140  0.87630  Biso   1.000  O
  O91      1.0000 0.80074  0.33730  0.26180  Biso   1.000  O
  O92      1.0000 0.84885  0.48460  0.29390  Biso   1.000  O
  O93      1.0000 0.84940  0.19280  0.29070  Biso   1.000  O
  O94      1.0000 0.91660  0.85400  0.84850  Biso   1.000  O
  O95      1.0000 0.93270  0.66300  0.80300  Biso   1.000  O
  O96      1.0000 0.92250  0.93800  0.78220  Biso   1.000  O
  O97      1.0000 0.74506  0.16200  0.80483  Biso   1.000  O
  P28      1.0000 0.21004  0.14480  0.76791  Biso   1.000  P
  P29      1.0000 0.78946  0.63000  0.88708  Biso   1.000  P
  P30      1.0000 0.83602  0.33950  0.26914  Biso   1.000  P
  P31      1.0000 0.93393  0.83850  0.81720  Biso   1.000  P
  C233     1.0000 0.99610  0.88300  0.81390  Biso   1.000  C
  H146     1.0000 0.98900  0.86020  0.78630  Biso   1.000  H
  C234     1.0000 0.03850  0.94600  0.86960  Biso   1.000  C
  C235     1.0000 0.97480  0.88700  0.83720  Biso   1.000  C
  C236     1.0000 0.02760  0.91200  0.82950  Biso   1.000  C
  H147     1.0000 0.04200  0.90940  0.81280  Biso   1.000  H
  C237     1.0000 0.01680  0.95000  0.89280  Biso   1.000  C
  H148     1.0000 0.02370  0.97370  0.92030  Biso   1.000  H
  C238     1.0000 0.98560  0.92100  0.87680  Biso   1.000  C
  H149     1.0000 0.97120  0.92470  0.89350  Biso   1.000  H
  Ba29     1.0000 0.12532  0.76010  0.19969  Biso   1.000  Ba
  Ba30     1.0000 0.87839  0.56560  0.86786  Biso   1.000  Ba
  Ba31     1.0000 0.79040  0.91440  0.80910  Biso   1.000  Ba
  C239     1.0000 0.97810  0.61400  0.13240  Biso   1.000  C
  C240     1.0000 0.95950  0.55700  0.09700  Biso   1.000  C
  C241     1.0000 0.97350  0.51100  0.06650  Biso   1.000  C
  H150     1.0000 0.96080  0.47180  0.04230  Biso   1.000  H
  C242     1.0000 0.00600  0.52200  0.07160  Biso   1.000  C
  H151     1.0000 0.01550  0.49100  0.05080  Biso   1.000  H
  C243     1.0000 0.02450  0.58000  0.10700  Biso   1.000  C
  C244     1.0000 0.01060  0.62600  0.13740  Biso   1.000  C
  H152     1.0000 0.02330  0.66470  0.16170  Biso   1.000  H
  O98      1.0000 0.07010  0.76650  0.10060  Biso   1.000  O
  O99      1.0000 0.07820  0.48870  0.08360  Biso   1.000  O
  O100     1.0000 0.08280  0.56000  0.15430  Biso   1.000  O
  P32      1.0000 0.06583  0.59640  0.11190  Biso   1.000  P
  C245     1.0000 0.12390  0.77580  0.04720  Biso   1.000  C
  H153     1.0000 0.11180  0.71510  0.06120  Biso   1.000  H
  C246     1.0000 0.11312  0.79840  0.00640  Biso   1.000  C
  H154     1.0000 0.09370  0.75320  0.99260  Biso   1.000  H
  C247     1.0000 0.13080  0.88720  0.98585  Biso   1.000  C
  C248     1.0000 0.15910  0.95340  0.00600  Biso   1.000  C
  H155     1.0000 0.17120  0.01410  0.99200  Biso   1.000  H
  C249     1.0000 0.16990  0.93080  0.04680  Biso   1.000  C
  H156     1.0000 0.18930  0.97600  0.06050  Biso   1.000  H
  C250     1.0000 0.15220  0.84200  0.06734  Biso   1.000  C
  O101     1.0000 0.19980  0.84120  0.13290  Biso   1.000  O
  O102     1.0000 0.15140  0.69030  0.13570  Biso   1.000  O
  O103     1.0000 0.15170  0.98040  0.13750  Biso   1.000  O
  P33      1.0000 0.16425  0.83460  0.12051  Biso   1.000  P
  C251     1.0000 0.13580  0.00600  0.81160  Biso   1.000  C
  H157     1.0000 0.11570  0.96020  0.80120  Biso   1.000  H
  C252     1.0000 0.15550  0.03700  0.78680  Biso   1.000  C
  H158     1.0000 0.14920  0.01000  0.75940  Biso   1.000  H
  C253     1.0000 0.19150  0.16700  0.84040  Biso   1.000  C
  H159     1.0000 0.20880  0.23580  0.84910  Biso   1.000  H
  C254     1.0000 0.17320  0.12400  0.86590  Biso   1.000  C
  H160     1.0000 0.17970  0.14970  0.89330  Biso   1.000  H
  O104     1.0000 0.92190  0.75280  0.81730  Biso   1.000  O
  O105     1.0000 0.91570  0.99300  0.85430  Biso   1.000  O
  O106     1.0000 0.92050  0.01400  0.78480  Biso   1.000  O
  P34      1.0000 0.93050  0.92640  0.82190  Biso   1.000  P
  C255     1.0000 0.02040  0.83900  0.88850  Biso   1.000  C
  H161     1.0000 0.03050  0.77270  0.90980  Biso   1.000  H
  C256     1.0000 0.98820  0.83200  0.87470  Biso   1.000  C
  H162     1.0000 0.97620  0.76120  0.88640  Biso   1.000  H
  C257     1.0000 0.03820  0.94000  0.87190  Biso   1.000  C
  C258     1.0000 0.99050  0.03100  0.82610  Biso   1.000  C
  H163     1.0000 0.98030  0.09670  0.80480  Biso   1.000  H
  C259     1.0000 0.97350  0.92800  0.84360  Biso   1.000  C
  C260     1.0000 0.02280  0.03500  0.84080  Biso   1.000  C
  H164     1.0000 0.03490  0.10580  0.82930  Biso   1.000  H
  Ba32     1.0000 0.12985  0.86100  0.19757  Biso   1.000  Ba
  Ba33     1.0000 0.12533  0.92330  0.19240  Biso   1.000  Ba
  Ba34     1.0000 0.86950  0.65470  0.86578  Biso   1.000  Ba
  Ba35     1.0000 0.87420  0.73700  0.86881  Biso   1.000  Ba
  Ba36     1.0000 0.78287  0.90050  0.80642  Biso   1.000  Ba
  C261     1.0000 0.95830  0.58800  0.10020  Biso   1.000  C
  C262     1.0000 0.96750  0.70200  0.07640  Biso   1.000  C
  H165     1.0000 0.95200  0.75460  0.05680  Biso   1.000  H
  C263     1.0000 0.99920  0.73900  0.08140  Biso   1.000  C
  H166     1.0000 0.00540  0.81650  0.06520  Biso   1.000  H
  C264     1.0000 0.02180  0.66200  0.11020  Biso   1.000  C
  C265     1.0000 0.01270  0.54800  0.13390  Biso   1.000  C
  H167     1.0000 0.02820  0.49580  0.15360  Biso   1.000  H
  C266     1.0000 0.98100  0.51100  0.12890  Biso   1.000  C
  H168     1.0000 0.97470  0.43380  0.14520  Biso   1.000  H
  P35      1.0000 0.06330  0.69650  0.11080  Biso   1.000  P
  O107     1.0000 0.07260  0.60000  0.07840  Biso   1.000  O
  O108     1.0000 0.06480  0.86780  0.09750  Biso   1.000  O
  O109     1.0000 0.08240  0.69200  0.15370  Biso   1.000  O
  C267     1.0000 0.15160  0.88400  0.06570  Biso   1.000  C
  C268     1.0000 0.11960  0.91000  0.05030  Biso   1.000  C
  H169     1.0000 0.10570  0.91900  0.06770  Biso   1.000  H
  C269     1.0000 0.10790  0.92400  0.00940  Biso   1.000  C
  H170     1.0000 0.08600  0.94220  0.99890  Biso   1.000  H
  C270     1.0000 0.12810  0.91100  0.98400  Biso   1.000  C
  C271     1.0000 0.16010  0.88500  0.99950  Biso   1.000  C
  H171     1.0000 0.17400  0.87580  0.98210  Biso   1.000  H
  C272     1.0000 0.17180  0.87100  0.04030  Biso   1.000  C
  H172     1.0000 0.19370  0.85260  0.05090  Biso   1.000  H
  P36      1.0000 0.16880  0.91500  0.11650  Biso   1.000  P
  O110     1.0000 0.15130  0.04600  0.13230  Biso   1.000  O
  O111     1.0000 0.20330  0.96300  0.12180  Biso   1.000  O
  O112     1.0000 0.16340  0.76100  0.13590  Biso   1.000  O
  Ba37     1.0000 0.28836  0.09558  0.30460  Biso   1.000  Ba
  C273     1.0000 0.57230  0.54300  0.38720  Biso   1.000  C
  C274     1.0000 0.58468  0.57930  0.42640  Biso   1.000  C
  H173     1.0000 0.57120  0.60990  0.44290  Biso   1.000  H
  C275     1.0000 0.61674  0.57140  0.44170  Biso   1.000  C
  C276     1.0000 0.63640  0.52750  0.41820  Biso   1.000  C
  H174     1.0000 0.65850  0.52230  0.42890  Biso   1.000  H
  C277     1.0000 0.62420  0.49090  0.37880  Biso   1.000  C
  N9       1.0000 0.59190  0.49530  0.36310  Biso   1.000  N
  C278     1.0000 0.68460  0.39230  0.30140  Biso   1.000  C
  C279     1.0000 0.64513  0.45810  0.35190  Biso   1.000  C
  C280     1.0000 0.69310  0.50880  0.33110  Biso   1.000  C
  H175     1.0000 0.71210  0.56590  0.33380  Biso   1.000  H
  C281     1.0000 0.65710  0.31300  0.29780  Biso   1.000  C
  H176     1.0000 0.65140  0.23470  0.27790  Biso   1.000  H
  C282     1.0000 0.63700  0.34420  0.32280  Biso   1.000  C
  H177     1.0000 0.61780  0.28780  0.31990  Biso   1.000  H
  C283     1.0000 0.67360  0.53800  0.35590  Biso   1.000  C
  H178     1.0000 0.67960  0.61420  0.37630  Biso   1.000  H
  C284     1.0000 0.31320  0.89850  0.43590  Biso   1.000  C
  C285     1.0000 0.30620  0.01570  0.46060  Biso   1.000  C
  H179     1.0000 0.28820  0.08070  0.45160  Biso   1.000  H
  C286     1.0000 0.32550  0.03710  0.49860  Biso   1.000  C
  H180     1.0000 0.32080  0.11670  0.51550  Biso   1.000  H
  C287     1.0000 0.35170  0.94230  0.51180  Biso   1.000  C
  C288     1.0000 0.35920  0.82640  0.48820  Biso   1.000  C
  H181     1.0000 0.37720  0.76200  0.49740  Biso   1.000  H
  C289     1.0000 0.33910  0.80420  0.44880  Biso   1.000  C
  H182     1.0000 0.34390  0.72460  0.43200  Biso   1.000  H
  C290     1.0000 0.37380  0.97110  0.55200  Biso   1.000  C
  N10      1.0000 0.36160  0.01780  0.58330  Biso   1.000  N
  C291     1.0000 0.38190  0.04090  0.61950  Biso   1.000  C
  C292     1.0000 0.41350  0.01260  0.62460  Biso   1.000  C
  H183     1.0000 0.42740  0.02700  0.64990  Biso   1.000  H
  C293     1.0000 0.42500  0.96320  0.59280  Biso   1.000  C
  C294     1.0000 0.40530  0.94210  0.55630  Biso   1.000  C
  H184     1.0000 0.41320  0.90810  0.53430  Biso   1.000  H
  C295     1.0000 0.36900  0.08700  0.65480  Biso   1.000  C
  C296     1.0000 0.34030  0.02880  0.65870  Biso   1.000  C
  H185     1.0000 0.32780  0.96690  0.63810  Biso   1.000  H
  C297     1.0000 0.32970  0.06020  0.69260  Biso   1.000  C
  H186     1.0000 0.30990  0.02010  0.69510  Biso   1.000  H
  C298     1.0000 0.34750  0.14870  0.72250  Biso   1.000  C
  C299     1.0000 0.37580  0.20650  0.71830  Biso   1.000  C
  H187     1.0000 0.38820  0.26900  0.73870  Biso   1.000  H
  C300     1.0000 0.38620  0.17500  0.68460  Biso   1.000  C
  H188     1.0000 0.40600  0.21570  0.68230  Biso   1.000  H
  O113     1.0000 0.73196  0.49430  0.27080  Biso   1.000  O
  O114     1.0000 0.72701  0.20200  0.27820  Biso   1.000  O
  O115     1.0000 0.68863  0.34820  0.22570  Biso   1.000  O
  O116     1.0000 0.31040  0.84410  0.35829  Biso   1.000  O
  O117     1.0000 0.27100  0.71310  0.38730  Biso   1.000  O
  O118     1.0000 0.26870  0.00860  0.37630  Biso   1.000  O
  O119     1.0000 0.30074  0.16270  0.76180  Biso   1.000  O
  O120     1.0000 0.34885  0.01540  0.79390  Biso   1.000  O
  O121     1.0000 0.34940  0.30720  0.79070  Biso   1.000  O
  O122     1.0000 0.41660  0.64600  0.34850  Biso   1.000  O
  O123     1.0000 0.43270  0.83700  0.30300  Biso   1.000  O
  O124     1.0000 0.42250  0.56200  0.28220  Biso   1.000  O
  O125     1.0000 0.24506  0.33800  0.30483  Biso   1.000  O
  P37      1.0000 0.71004  0.35520  0.26791  Biso   1.000  P
  P38      1.0000 0.28946  0.87000  0.38708  Biso   1.000  P
  P39      1.0000 0.33602  0.16050  0.76914  Biso   1.000  P
  P40      1.0000 0.43393  0.66150  0.31720  Biso   1.000  P
  C301     1.0000 0.49610  0.61700  0.31390  Biso   1.000  C
  H189     1.0000 0.48900  0.63980  0.28630  Biso   1.000  H
  C302     1.0000 0.53850  0.55400  0.36960  Biso   1.000  C
  C303     1.0000 0.47480  0.61300  0.33720  Biso   1.000  C
  C304     1.0000 0.52760  0.58800  0.32950  Biso   1.000  C
  H190     1.0000 0.54200  0.59060  0.31280  Biso   1.000  H
  C305     1.0000 0.51680  0.55000  0.39280  Biso   1.000  C
  H191     1.0000 0.52370  0.52630  0.42030  Biso   1.000  H
  C306     1.0000 0.48560  0.57900  0.37680  Biso   1.000  C
  H192     1.0000 0.47120  0.57530  0.39350  Biso   1.000  H
  Ba38     1.0000 0.62532  0.73990  0.69969  Biso   1.000  Ba
  Ba39     1.0000 0.37839  0.93440  0.36786  Biso   1.000  Ba
  Ba40     1.0000 0.29040  0.58560  0.30910  Biso   1.000  Ba
  C307     1.0000 0.47810  0.88600  0.63240  Biso   1.000  C
  C308     1.0000 0.45950  0.94300  0.59700  Biso   1.000  C
  C309     1.0000 0.47350  0.98900  0.56650  Biso   1.000  C
  H193     1.0000 0.46080  0.02820  0.54230  Biso   1.000  H
  C310     1.0000 0.50600  0.97800  0.57160  Biso   1.000  C
  H194     1.0000 0.51550  0.00900  0.55080  Biso   1.000  H
  C311     1.0000 0.52450  0.92000  0.60700  Biso   1.000  C
  C312     1.0000 0.51060  0.87400  0.63740  Biso   1.000  C
  H195     1.0000 0.52330  0.83530  0.66170  Biso   1.000  H
  O126     1.0000 0.57010  0.73350  0.60060  Biso   1.000  O
  O127     1.0000 0.57820  0.01130  0.58360  Biso   1.000  O
  O128     1.0000 0.58280  0.94000  0.65430  Biso   1.000  O
  P41      1.0000 0.56583  0.90360  0.61190  Biso   1.000  P
  C313     1.0000 0.62390  0.72420  0.54720  Biso   1.000  C
  H196     1.0000 0.61180  0.78490  0.56120  Biso   1.000  H
  C314     1.0000 0.61312  0.70160  0.50640  Biso   1.000  C
  H197     1.0000 0.59370  0.74680  0.49260  Biso   1.000  H
  C315     1.0000 0.63080  0.61280  0.48585  Biso   1.000  C
  C316     1.0000 0.65910  0.54660  0.50600  Biso   1.000  C
  H198     1.0000 0.67120  0.48590  0.49200  Biso   1.000  H
  C317     1.0000 0.66990  0.56920  0.54680  Biso   1.000  C
  H199     1.0000 0.68930  0.52400  0.56050  Biso   1.000  H
  C318     1.0000 0.65220  0.65800  0.56734  Biso   1.000  C
  O129     1.0000 0.69980  0.65880  0.63290  Biso   1.000  O
  O130     1.0000 0.65140  0.80970  0.63570  Biso   1.000  O
  O131     1.0000 0.65170  0.51960  0.63750  Biso   1.000  O
  P42      1.0000 0.66425  0.66540  0.62051  Biso   1.000  P
  C319     1.0000 0.63580  0.49400  0.31160  Biso   1.000  C
  H200     1.0000 0.61570  0.53980  0.30120  Biso   1.000  H
  C320     1.0000 0.65550  0.46300  0.28680  Biso   1.000  C
  H201     1.0000 0.64920  0.49000  0.25940  Biso   1.000  H
  C321     1.0000 0.69150  0.33300  0.34040  Biso   1.000  C
  H202     1.0000 0.70880  0.26420  0.34910  Biso   1.000  H
  C322     1.0000 0.67320  0.37600  0.36590  Biso   1.000  C
  H203     1.0000 0.67970  0.35030  0.39330  Biso   1.000  H
  O132     1.0000 0.42190  0.74720  0.31730  Biso   1.000  O
  O133     1.0000 0.41570  0.50700  0.35430  Biso   1.000  O
  O134     1.0000 0.42050  0.48600  0.28480  Biso   1.000  O
  P43      1.0000 0.43050  0.57360  0.32190  Biso   1.000  P
  C323     1.0000 0.52040  0.66100  0.38850  Biso   1.000  C
  H204     1.0000 0.53050  0.72730  0.40980  Biso   1.000  H
  C324     1.0000 0.48820  0.66800  0.37470  Biso   1.000  C
  H205     1.0000 0.47620  0.73880  0.38640  Biso   1.000  H
  C325     1.0000 0.53820  0.56000  0.37190  Biso   1.000  C
  C326     1.0000 0.49050  0.46900  0.32610  Biso   1.000  C
  H206     1.0000 0.48030  0.40330  0.30480  Biso   1.000  H
  C327     1.0000 0.47350  0.57200  0.34360  Biso   1.000  C
  C328     1.0000 0.52280  0.46500  0.34080  Biso   1.000  C
  H207     1.0000 0.53490  0.39420  0.32930  Biso   1.000  H
  Ba41     1.0000 0.62985  0.63900  0.69757  Biso   1.000  Ba
  Ba42     1.0000 0.62533  0.57670  0.69240  Biso   1.000  Ba
  Ba43     1.0000 0.36950  0.84530  0.36578  Biso   1.000  Ba
  Ba44     1.0000 0.37420  0.76300  0.36881  Biso   1.000  Ba
  Ba45     1.0000 0.28287  0.59950  0.30642  Biso   1.000  Ba
  C329     1.0000 0.45830  0.91200  0.60020  Biso   1.000  C
  C330     1.0000 0.46750  0.79800  0.57640  Biso   1.000  C
  H208     1.0000 0.45200  0.74540  0.55680  Biso   1.000  H
  C331     1.0000 0.49920  0.76100  0.58140  Biso   1.000  C
  H209     1.0000 0.50540  0.68350  0.56520  Biso   1.000  H
  C332     1.0000 0.52180  0.83800  0.61020  Biso   1.000  C
  C333     1.0000 0.51270  0.95200  0.63390  Biso   1.000  C
  H210     1.0000 0.52820  0.00420  0.65360  Biso   1.000  H
  C334     1.0000 0.48100  0.98900  0.62890  Biso   1.000  C
  H211     1.0000 0.47470  0.06620  0.64520  Biso   1.000  H
  P44      1.0000 0.56330  0.80350  0.61080  Biso   1.000  P
  O135     1.0000 0.57260  0.90000  0.57840  Biso   1.000  O
  O136     1.0000 0.56480  0.63220  0.59750  Biso   1.000  O
  O137     1.0000 0.58240  0.80800  0.65370  Biso   1.000  O
  C335     1.0000 0.65160  0.61600  0.56570  Biso   1.000  C
  C336     1.0000 0.61960  0.59000  0.55030  Biso   1.000  C
  H212     1.0000 0.60570  0.58100  0.56770  Biso   1.000  H
  C337     1.0000 0.60790  0.57600  0.50940  Biso   1.000  C
  H213     1.0000 0.58600  0.55780  0.49890  Biso   1.000  H
  C338     1.0000 0.62810  0.58900  0.48400  Biso   1.000  C
  C339     1.0000 0.66010  0.61500  0.49950  Biso   1.000  C
  H214     1.0000 0.67400  0.62420  0.48210  Biso   1.000  H
  C340     1.0000 0.67180  0.62900  0.54030  Biso   1.000  C
  H215     1.0000 0.69370  0.64740  0.55090  Biso   1.000  H
  P45      1.0000 0.66880  0.58500  0.61650  Biso   1.000  P
  O138     1.0000 0.65130  0.45400  0.63230  Biso   1.000  O
  O139     1.0000 0.70330  0.53700  0.62180  Biso   1.000  O
  O140     1.0000 0.66340  0.73900  0.63590  Biso   1.000  O
  Ba46     1.0000 0.78836  0.59558  0.30460  Biso   1.000  Ba
  C341     1.0000 0.07230  0.04300  0.38720  Biso   1.000  C
  C342     1.0000 0.08468  0.07930  0.42640  Biso   1.000  C
  H216     1.0000 0.07120  0.10990  0.44290  Biso   1.000  H
  C343     1.0000 0.11674  0.07140  0.44170  Biso   1.000  C
  C344     1.0000 0.13640  0.02750  0.41820  Biso   1.000  C
  H217     1.0000 0.15850  0.02230  0.42890  Biso   1.000  H
  C345     1.0000 0.12420  0.99090  0.37880  Biso   1.000  C
  N11      1.0000 0.09190  0.99530  0.36310  Biso   1.000  N
  C346     1.0000 0.18460  0.89230  0.30140  Biso   1.000  C
  C347     1.0000 0.14513  0.95810  0.35190  Biso   1.000  C
  C348     1.0000 0.19310  0.00880  0.33110  Biso   1.000  C
  H218     1.0000 0.21210  0.06590  0.33380  Biso   1.000  H
  C349     1.0000 0.15710  0.81300  0.29780  Biso   1.000  C
  H219     1.0000 0.15140  0.73470  0.27790  Biso   1.000  H
  C350     1.0000 0.13700  0.84420  0.32280  Biso   1.000  C
  H220     1.0000 0.11780  0.78780  0.31990  Biso   1.000  H
  C351     1.0000 0.17360  0.03800  0.35590  Biso   1.000  C
  H221     1.0000 0.17960  0.11420  0.37630  Biso   1.000  H
  C352     1.0000 0.81320  0.39850  0.43590  Biso   1.000  C
  C353     1.0000 0.80620  0.51570  0.46060  Biso   1.000  C
  H222     1.0000 0.78820  0.58070  0.45160  Biso   1.000  H
  C354     1.0000 0.82550  0.53710  0.49860  Biso   1.000  C
  H223     1.0000 0.82080  0.61670  0.51550  Biso   1.000  H
  C355     1.0000 0.85170  0.44230  0.51180  Biso   1.000  C
  C356     1.0000 0.85920  0.32640  0.48820  Biso   1.000  C
  H224     1.0000 0.87720  0.26200  0.49740  Biso   1.000  H
  C357     1.0000 0.83910  0.30420  0.44880  Biso   1.000  C
  H225     1.0000 0.84390  0.22460  0.43200  Biso   1.000  H
  C358     1.0000 0.87380  0.47110  0.55200  Biso   1.000  C
  N12      1.0000 0.86160  0.51780  0.58330  Biso   1.000  N
  C359     1.0000 0.88190  0.54090  0.61950  Biso   1.000  C
  C360     1.0000 0.91350  0.51260  0.62460  Biso   1.000  C
  H226     1.0000 0.92740  0.52700  0.64990  Biso   1.000  H
  C361     1.0000 0.92500  0.46320  0.59280  Biso   1.000  C
  C362     1.0000 0.90530  0.44210  0.55630  Biso   1.000  C
  H227     1.0000 0.91320  0.40810  0.53430  Biso   1.000  H
  C363     1.0000 0.86900  0.58700  0.65480  Biso   1.000  C
  C364     1.0000 0.84030  0.52880  0.65870  Biso   1.000  C
  H228     1.0000 0.82780  0.46690  0.63810  Biso   1.000  H
  C365     1.0000 0.82970  0.56020  0.69260  Biso   1.000  C
  H229     1.0000 0.80990  0.52010  0.69510  Biso   1.000  H
  C366     1.0000 0.84750  0.64870  0.72250  Biso   1.000  C
  C367     1.0000 0.87580  0.70650  0.71830  Biso   1.000  C
  H230     1.0000 0.88820  0.76900  0.73870  Biso   1.000  H
  C368     1.0000 0.88620  0.67500  0.68460  Biso   1.000  C
  H231     1.0000 0.90600  0.71570  0.68230  Biso   1.000  H
  O141     1.0000 0.23196  0.99430  0.27080  Biso   1.000  O
  O142     1.0000 0.22701  0.70200  0.27820  Biso   1.000  O
  O143     1.0000 0.18863  0.84820  0.22570  Biso   1.000  O
  O144     1.0000 0.81040  0.34410  0.35829  Biso   1.000  O
  O145     1.0000 0.77100  0.21310  0.38730  Biso   1.000  O
  O146     1.0000 0.76870  0.50860  0.37630  Biso   1.000  O
  O147     1.0000 0.80074  0.66270  0.76180  Biso   1.000  O
  O148     1.0000 0.84885  0.51540  0.79390  Biso   1.000  O
  O149     1.0000 0.84940  0.80720  0.79070  Biso   1.000  O
  O150     1.0000 0.91660  0.14600  0.34850  Biso   1.000  O
  O151     1.0000 0.93270  0.33700  0.30300  Biso   1.000  O
  O152     1.0000 0.92250  0.06200  0.28220  Biso   1.000  O
  O153     1.0000 0.74506  0.83800  0.30483  Biso   1.000  O
  P46      1.0000 0.21004  0.85520  0.26791  Biso   1.000  P
  P47      1.0000 0.78946  0.37000  0.38708  Biso   1.000  P
  P48      1.0000 0.83602  0.66050  0.76914  Biso   1.000  P
  P49      1.0000 0.93393  0.16150  0.31720  Biso   1.000  P
  C369     1.0000 0.99610  0.11700  0.31390  Biso   1.000  C
  H232     1.0000 0.98900  0.13980  0.28630  Biso   1.000  H
  C370     1.0000 0.03850  0.05400  0.36960  Biso   1.000  C
  C371     1.0000 0.97480  0.11300  0.33720  Biso   1.000  C
  C372     1.0000 0.02760  0.08800  0.32950  Biso   1.000  C
  H233     1.0000 0.04200  0.09060  0.31280  Biso   1.000  H
  C373     1.0000 0.01680  0.05000  0.39280  Biso   1.000  C
  H234     1.0000 0.02370  0.02630  0.42030  Biso   1.000  H
  C374     1.0000 0.98560  0.07900  0.37680  Biso   1.000  C
  H235     1.0000 0.97120  0.07530  0.39350  Biso   1.000  H
  Ba47     1.0000 0.12532  0.23990  0.69969  Biso   1.000  Ba
  Ba48     1.0000 0.87839  0.43440  0.36786  Biso   1.000  Ba
  Ba49     1.0000 0.79040  0.08560  0.30910  Biso   1.000  Ba
  C375     1.0000 0.97810  0.38600  0.63240  Biso   1.000  C
  C376     1.0000 0.95950  0.44300  0.59700  Biso   1.000  C
  C377     1.0000 0.97350  0.48900  0.56650  Biso   1.000  C
  H236     1.0000 0.96080  0.52820  0.54230  Biso   1.000  H
  C378     1.0000 0.00600  0.47800  0.57160  Biso   1.000  C
  H237     1.0000 0.01550  0.50900  0.55080  Biso   1.000  H
  C379     1.0000 0.02450  0.42000  0.60700  Biso   1.000  C
  C380     1.0000 0.01060  0.37400  0.63740  Biso   1.000  C
  H238     1.0000 0.02330  0.33530  0.66170  Biso   1.000  H
  O154     1.0000 0.07010  0.23350  0.60060  Biso   1.000  O
  O155     1.0000 0.07820  0.51130  0.58360  Biso   1.000  O
  O156     1.0000 0.08280  0.44000  0.65430  Biso   1.000  O
  P50      1.0000 0.06583  0.40360  0.61190  Biso   1.000  P
  C381     1.0000 0.12390  0.22420  0.54720  Biso   1.000  C
  H239     1.0000 0.11180  0.28490  0.56120  Biso   1.000  H
  C382     1.0000 0.11312  0.20160  0.50640  Biso   1.000  C
  H240     1.0000 0.09370  0.24680  0.49260  Biso   1.000  H
  C383     1.0000 0.13080  0.11280  0.48585  Biso   1.000  C
  C384     1.0000 0.15910  0.04660  0.50600  Biso   1.000  C
  H241     1.0000 0.17120  0.98590  0.49200  Biso   1.000  H
  C385     1.0000 0.16990  0.06920  0.54680  Biso   1.000  C
  H242     1.0000 0.18930  0.02400  0.56050  Biso   1.000  H
  C386     1.0000 0.15220  0.15800  0.56734  Biso   1.000  C
  O157     1.0000 0.19980  0.15880  0.63290  Biso   1.000  O
  O158     1.0000 0.15140  0.30970  0.63570  Biso   1.000  O
  O159     1.0000 0.15170  0.01960  0.63750  Biso   1.000  O
  P51      1.0000 0.16425  0.16540  0.62051  Biso   1.000  P
  C387     1.0000 0.13580  0.99400  0.31160  Biso   1.000  C
  H243     1.0000 0.11570  0.03980  0.30120  Biso   1.000  H
  C388     1.0000 0.15550  0.96300  0.28680  Biso   1.000  C
  H244     1.0000 0.14920  0.99000  0.25940  Biso   1.000  H
  C389     1.0000 0.19150  0.83300  0.34040  Biso   1.000  C
  H245     1.0000 0.20880  0.76420  0.34910  Biso   1.000  H
  C390     1.0000 0.17320  0.87600  0.36590  Biso   1.000  C
  H246     1.0000 0.17970  0.85030  0.39330  Biso   1.000  H
  O160     1.0000 0.92190  0.24720  0.31730  Biso   1.000  O
  O161     1.0000 0.91570  0.00700  0.35430  Biso   1.000  O
  O162     1.0000 0.92050  0.98600  0.28480  Biso   1.000  O
  P52      1.0000 0.93050  0.07360  0.32190  Biso   1.000  P
  C391     1.0000 0.02040  0.16100  0.38850  Biso   1.000  C
  H247     1.0000 0.03050  0.22730  0.40980  Biso   1.000  H
  C392     1.0000 0.98820  0.16800  0.37470  Biso   1.000  C
  H248     1.0000 0.97620  0.23880  0.38640  Biso   1.000  H
  C393     1.0000 0.03820  0.06000  0.37190  Biso   1.000  C
  C394     1.0000 0.99050  0.96900  0.32610  Biso   1.000  C
  H249     1.0000 0.98030  0.90330  0.30480  Biso   1.000  H
  C395     1.0000 0.97350  0.07200  0.34360  Biso   1.000  C
  C396     1.0000 0.02280  0.96500  0.34080  Biso   1.000  C
  H250     1.0000 0.03490  0.89420  0.32930  Biso   1.000  H
  Ba50     1.0000 0.12985  0.13900  0.69757  Biso   1.000  Ba
  Ba51     1.0000 0.12533  0.07670  0.69240  Biso   1.000  Ba
  Ba52     1.0000 0.86950  0.34530  0.36578  Biso   1.000  Ba
  Ba53     1.0000 0.87420  0.26300  0.36881  Biso   1.000  Ba
  Ba54     1.0000 0.78287  0.09950  0.30642  Biso   1.000  Ba
  C397     1.0000 0.95830  0.41200  0.60020  Biso   1.000  C
  C398     1.0000 0.96750  0.29800  0.57640  Biso   1.000  C
  H251     1.0000 0.95200  0.24540  0.55680  Biso   1.000  H
  C399     1.0000 0.99920  0.26100  0.58140  Biso   1.000  C
  H252     1.0000 0.00540  0.18350  0.56520  Biso   1.000  H
  C400     1.0000 0.02180  0.33800  0.61020  Biso   1.000  C
  C401     1.0000 0.01270  0.45200  0.63390  Biso   1.000  C
  H253     1.0000 0.02820  0.50420  0.65360  Biso   1.000  H
  C402     1.0000 0.98100  0.48900  0.62890  Biso   1.000  C
  H254     1.0000 0.97470  0.56620  0.64520  Biso   1.000  H
  P53      1.0000 0.06330  0.30350  0.61080  Biso   1.000  P
  O163     1.0000 0.07260  0.40000  0.57840  Biso   1.000  O
  O164     1.0000 0.06480  0.13220  0.59750  Biso   1.000  O
  O165     1.0000 0.08240  0.30800  0.65370  Biso   1.000  O
  C403     1.0000 0.15160  0.11600  0.56570  Biso   1.000  C
  C404     1.0000 0.11960  0.09000  0.55030  Biso   1.000  C
  H255     1.0000 0.10570  0.08100  0.56770  Biso   1.000  H
  C405     1.0000 0.10790  0.07600  0.50940  Biso   1.000  C
  H256     1.0000 0.08600  0.05780  0.49890  Biso   1.000  H
  C406     1.0000 0.12810  0.08900  0.48400  Biso   1.000  C
  C407     1.0000 0.16010  0.11500  0.49950  Biso   1.000  C
  H257     1.0000 0.17400  0.12420  0.48210  Biso   1.000  H
  C408     1.0000 0.17180  0.12900  0.54030  Biso   1.000  C
  H258     1.0000 0.19370  0.14740  0.55090  Biso   1.000  H
  P54      1.0000 0.16880  0.08500  0.61650  Biso   1.000  P
  O166     1.0000 0.15130  0.95400  0.63230  Biso   1.000  O
  O167     1.0000 0.20330  0.03700  0.62180  Biso   1.000  O
  O168     1.0000 0.16340  0.23900  0.63590  Biso   1.000  O
  Ba55     1.0000 0.71164  0.09558  0.19540  Biso   1.000  Ba
  C409     1.0000 0.42770  0.54300  0.11280  Biso   1.000  C
  C410     1.0000 0.41532  0.57930  0.07360  Biso   1.000  C
  H259     1.0000 0.42880  0.60990  0.05710  Biso   1.000  H
  C411     1.0000 0.38326  0.57140  0.05830  Biso   1.000  C
  C412     1.0000 0.36360  0.52750  0.08180  Biso   1.000  C
  H260     1.0000 0.34150  0.52230  0.07110  Biso   1.000  H
  C413     1.0000 0.37580  0.49090  0.12120  Biso   1.000  C
  N13      1.0000 0.40810  0.49530  0.13690  Biso   1.000  N
  C414     1.0000 0.31540  0.39230  0.19860  Biso   1.000  C
  C415     1.0000 0.35487  0.45810  0.14810  Biso   1.000  C
  C416     1.0000 0.30690  0.50880  0.16890  Biso   1.000  C
  H261     1.0000 0.28790  0.56590  0.16620  Biso   1.000  H
  C417     1.0000 0.34290  0.31300  0.20220  Biso   1.000  C
  H262     1.0000 0.34860  0.23470  0.22210  Biso   1.000  H
  C418     1.0000 0.36300  0.34420  0.17720  Biso   1.000  C
  H263     1.0000 0.38220  0.28780  0.18010  Biso   1.000  H
  C419     1.0000 0.32640  0.53800  0.14410  Biso   1.000  C
  H264     1.0000 0.32040  0.61420  0.12370  Biso   1.000  H
  C420     1.0000 0.68680  0.89850  0.06410  Biso   1.000  C
  C421     1.0000 0.69380  0.01570  0.03940  Biso   1.000  C
  H265     1.0000 0.71180  0.08070  0.04840  Biso   1.000  H
  C422     1.0000 0.67450  0.03710  0.00140  Biso   1.000  C
  H266     1.0000 0.67920  0.11670  0.98450  Biso   1.000  H
  C423     1.0000 0.64830  0.94230  0.98820  Biso   1.000  C
  C424     1.0000 0.64080  0.82640  0.01180  Biso   1.000  C
  H267     1.0000 0.62280  0.76200  0.00260  Biso   1.000  H
  C425     1.0000 0.66090  0.80420  0.05120  Biso   1.000  C
  H268     1.0000 0.65610  0.72460  0.06800  Biso   1.000  H
  C426     1.0000 0.62620  0.97110  0.94800  Biso   1.000  C
  N14      1.0000 0.63840  0.01780  0.91670  Biso   1.000  N
  C427     1.0000 0.61810  0.04090  0.88050  Biso   1.000  C
  C428     1.0000 0.58650  0.01260  0.87540  Biso   1.000  C
  H269     1.0000 0.57260  0.02700  0.85010  Biso   1.000  H
  C429     1.0000 0.57500  0.96320  0.90720  Biso   1.000  C
  C430     1.0000 0.59470  0.94210  0.94370  Biso   1.000  C
  H270     1.0000 0.58680  0.90810  0.96570  Biso   1.000  H
  C431     1.0000 0.63100  0.08700  0.84520  Biso   1.000  C
  C432     1.0000 0.65970  0.02880  0.84130  Biso   1.000  C
  H271     1.0000 0.67220  0.96690  0.86190  Biso   1.000  H
  C433     1.0000 0.67030  0.06020  0.80740  Biso   1.000  C
  H272     1.0000 0.69010  0.02010  0.80490  Biso   1.000  H
  C434     1.0000 0.65250  0.14870  0.77750  Biso   1.000  C
  C435     1.0000 0.62420  0.20650  0.78170  Biso   1.000  C
  H273     1.0000 0.61180  0.26900  0.76130  Biso   1.000  H
  C436     1.0000 0.61380  0.17500  0.81540  Biso   1.000  C
  H274     1.0000 0.59400  0.21570  0.81770  Biso   1.000  H
  O169     1.0000 0.26804  0.49430  0.22920  Biso   1.000  O
  O170     1.0000 0.27299  0.20200  0.22180  Biso   1.000  O
  O171     1.0000 0.31137  0.34820  0.27430  Biso   1.000  O
  O172     1.0000 0.68960  0.84410  0.14171  Biso   1.000  O
  O173     1.0000 0.72900  0.71310  0.11270  Biso   1.000  O
  O174     1.0000 0.73130  0.00860  0.12370  Biso   1.000  O
  O175     1.0000 0.69926  0.16270  0.73820  Biso   1.000  O
  O176     1.0000 0.65115  0.01540  0.70610  Biso   1.000  O
  O177     1.0000 0.65060  0.30720  0.70930  Biso   1.000  O
  O178     1.0000 0.58340  0.64600  0.15150  Biso   1.000  O
  O179     1.0000 0.56730  0.83700  0.19700  Biso   1.000  O
  O180     1.0000 0.57750  0.56200  0.21780  Biso   1.000  O
  O181     1.0000 0.75494  0.33800  0.19517  Biso   1.000  O
  P55      1.0000 0.28996  0.35520  0.23209  Biso   1.000  P
  P56      1.0000 0.71054  0.87000  0.11292  Biso   1.000  P
  P57      1.0000 0.66398  0.16050  0.73086  Biso   1.000  P
  P58      1.0000 0.56607  0.66150  0.18280  Biso   1.000  P
  C437     1.0000 0.50390  0.61700  0.18610  Biso   1.000  C
  H275     1.0000 0.51100  0.63980  0.21370  Biso   1.000  H
  C438     1.0000 0.46150  0.55400  0.13040  Biso   1.000  C
  C439     1.0000 0.52520  0.61300  0.16280  Biso   1.000  C
  C440     1.0000 0.47240  0.58800  0.17050  Biso   1.000  C
  H276     1.0000 0.45800  0.59060  0.18720  Biso   1.000  H
  C441     1.0000 0.48320  0.55000  0.10720  Biso   1.000  C
  H277     1.0000 0.47630  0.52630  0.07970  Biso   1.000  H
  C442     1.0000 0.51440  0.57900  0.12320  Biso   1.000  C
  H278     1.0000 0.52880  0.57530  0.10650  Biso   1.000  H
  Ba56     1.0000 0.37468  0.73990  0.80031  Biso   1.000  Ba
  Ba57     1.0000 0.62161  0.93440  0.13214  Biso   1.000  Ba
  Ba58     1.0000 0.70960  0.58560  0.19090  Biso   1.000  Ba
  C443     1.0000 0.52190  0.88600  0.86760  Biso   1.000  C
  C444     1.0000 0.54050  0.94300  0.90300  Biso   1.000  C
  C445     1.0000 0.52650  0.98900  0.93350  Biso   1.000  C
  H279     1.0000 0.53920  0.02820  0.95770  Biso   1.000  H
  C446     1.0000 0.49400  0.97800  0.92840  Biso   1.000  C
  H280     1.0000 0.48450  0.00900  0.94920  Biso   1.000  H
  C447     1.0000 0.47550  0.92000  0.89300  Biso   1.000  C
  C448     1.0000 0.48940  0.87400  0.86260  Biso   1.000  C
  H281     1.0000 0.47670  0.83530  0.83830  Biso   1.000  H
  O182     1.0000 0.42990  0.73350  0.89940  Biso   1.000  O
  O183     1.0000 0.42180  0.01130  0.91640  Biso   1.000  O
  O184     1.0000 0.41720  0.94000  0.84570  Biso   1.000  O
  P59      1.0000 0.43417  0.90360  0.88810  Biso   1.000  P
  C449     1.0000 0.37610  0.72420  0.95280  Biso   1.000  C
  H282     1.0000 0.38820  0.78490  0.93880  Biso   1.000  H
  C450     1.0000 0.38688  0.70160  0.99360  Biso   1.000  C
  H283     1.0000 0.40630  0.74680  0.00740  Biso   1.000  H
  C451     1.0000 0.36920  0.61280  0.01415  Biso   1.000  C
  C452     1.0000 0.34090  0.54660  0.99400  Biso   1.000  C
  H284     1.0000 0.32880  0.48590  0.00800  Biso   1.000  H
  C453     1.0000 0.33010  0.56920  0.95320  Biso   1.000  C
  H285     1.0000 0.31070  0.52400  0.93950  Biso   1.000  H
  C454     1.0000 0.34780  0.65800  0.93266  Biso   1.000  C
  O185     1.0000 0.30020  0.65880  0.86710  Biso   1.000  O
  O186     1.0000 0.34860  0.80970  0.86430  Biso   1.000  O
  O187     1.0000 0.34830  0.51960  0.86250  Biso   1.000  O
  P60      1.0000 0.33575  0.66540  0.87949  Biso   1.000  P
  C455     1.0000 0.36420  0.49400  0.18840  Biso   1.000  C
  H286     1.0000 0.38430  0.53980  0.19880  Biso   1.000  H
  C456     1.0000 0.34450  0.46300  0.21320  Biso   1.000  C
  H287     1.0000 0.35080  0.49000  0.24060  Biso   1.000  H
  C457     1.0000 0.30850  0.33300  0.15960  Biso   1.000  C
  H288     1.0000 0.29120  0.26420  0.15090  Biso   1.000  H
  C458     1.0000 0.32680  0.37600  0.13410  Biso   1.000  C
  H289     1.0000 0.32030  0.35030  0.10670  Biso   1.000  H
  O188     1.0000 0.57810  0.74720  0.18270  Biso   1.000  O
  O189     1.0000 0.58430  0.50700  0.14570  Biso   1.000  O
  O190     1.0000 0.57950  0.48600  0.21520  Biso   1.000  O
  P61      1.0000 0.56950  0.57360  0.17810  Biso   1.000  P
  C459     1.0000 0.47960  0.66100  0.11150  Biso   1.000  C
  H290     1.0000 0.46950  0.72730  0.09020  Biso   1.000  H
  C460     1.0000 0.51180  0.66800  0.12530  Biso   1.000  C
  H291     1.0000 0.52380  0.73880  0.11360  Biso   1.000  H
  C461     1.0000 0.46180  0.56000  0.12810  Biso   1.000  C
  C462     1.0000 0.50950  0.46900  0.17390  Biso   1.000  C
  H292     1.0000 0.51970  0.40330  0.19520  Biso   1.000  H
  C463     1.0000 0.52650  0.57200  0.15640  Biso   1.000  C
  C464     1.0000 0.47720  0.46500  0.15920  Biso   1.000  C
  H293     1.0000 0.46510  0.39420  0.17070  Biso   1.000  H
  Ba59     1.0000 0.37015  0.63900  0.80243  Biso   1.000  Ba
  Ba60     1.0000 0.37467  0.57670  0.80760  Biso   1.000  Ba
  Ba61     1.0000 0.63050  0.84530  0.13422  Biso   1.000  Ba
  Ba62     1.0000 0.62580  0.76300  0.13119  Biso   1.000  Ba
  Ba63     1.0000 0.71713  0.59950  0.19358  Biso   1.000  Ba
  C465     1.0000 0.54170  0.91200  0.89980  Biso   1.000  C
  C466     1.0000 0.53250  0.79800  0.92360  Biso   1.000  C
  H294     1.0000 0.54800  0.74540  0.94320  Biso   1.000  H
  C467     1.0000 0.50080  0.76100  0.91860  Biso   1.000  C
  H295     1.0000 0.49460  0.68350  0.93480  Biso   1.000  H
  C468     1.0000 0.47820  0.83800  0.88980  Biso   1.000  C
  C469     1.0000 0.48730  0.95200  0.86610  Biso   1.000  C
  H296     1.0000 0.47180  0.00420  0.84640  Biso   1.000  H
  C470     1.0000 0.51900  0.98900  0.87110  Biso   1.000  C
  H297     1.0000 0.52530  0.06620  0.85480  Biso   1.000  H
  P62      1.0000 0.43670  0.80350  0.88920  Biso   1.000  P
  O191     1.0000 0.42740  0.90000  0.92160  Biso   1.000  O
  O192     1.0000 0.43520  0.63220  0.90250  Biso   1.000  O
  O193     1.0000 0.41760  0.80800  0.84630  Biso   1.000  O
  C471     1.0000 0.34840  0.61600  0.93430  Biso   1.000  C
  C472     1.0000 0.38040  0.59000  0.94970  Biso   1.000  C
  H298     1.0000 0.39430  0.58100  0.93230  Biso   1.000  H
  C473     1.0000 0.39210  0.57600  0.99060  Biso   1.000  C
  H299     1.0000 0.41400  0.55780  0.00110  Biso   1.000  H
  C474     1.0000 0.37190  0.58900  0.01600  Biso   1.000  C
  C475     1.0000 0.33990  0.61500  0.00050  Biso   1.000  C
  H300     1.0000 0.32600  0.62420  0.01790  Biso   1.000  H
  C476     1.0000 0.32820  0.62900  0.95970  Biso   1.000  C
  H301     1.0000 0.30630  0.64740  0.94910  Biso   1.000  H
  P63      1.0000 0.33120  0.58500  0.88350  Biso   1.000  P
  O194     1.0000 0.34870  0.45400  0.86770  Biso   1.000  O
  O195     1.0000 0.29670  0.53700  0.87820  Biso   1.000  O
  O196     1.0000 0.33660  0.73900  0.86410  Biso   1.000  O
  Ba64     1.0000 0.21164  0.59558  0.19540  Biso   1.000  Ba
  C477     1.0000 0.92770  0.04300  0.11280  Biso   1.000  C
  C478     1.0000 0.91532  0.07930  0.07360  Biso   1.000  C
  H302     1.0000 0.92880  0.10990  0.05710  Biso   1.000  H
  C479     1.0000 0.88326  0.07140  0.05830  Biso   1.000  C
  C480     1.0000 0.86360  0.02750  0.08180  Biso   1.000  C
  H303     1.0000 0.84150  0.02230  0.07110  Biso   1.000  H
  C481     1.0000 0.87580  0.99090  0.12120  Biso   1.000  C
  N15      1.0000 0.90810  0.99530  0.13690  Biso   1.000  N
  C482     1.0000 0.81540  0.89230  0.19860  Biso   1.000  C
  C483     1.0000 0.85487  0.95810  0.14810  Biso   1.000  C
  C484     1.0000 0.80690  0.00880  0.16890  Biso   1.000  C
  H304     1.0000 0.78790  0.06590  0.16620  Biso   1.000  H
  C485     1.0000 0.84290  0.81300  0.20220  Biso   1.000  C
  H305     1.0000 0.84860  0.73470  0.22210  Biso   1.000  H
  C486     1.0000 0.86300  0.84420  0.17720  Biso   1.000  C
  H306     1.0000 0.88220  0.78780  0.18010  Biso   1.000  H
  C487     1.0000 0.82640  0.03800  0.14410  Biso   1.000  C
  H307     1.0000 0.82040  0.11420  0.12370  Biso   1.000  H
  C488     1.0000 0.18680  0.39850  0.06410  Biso   1.000  C
  C489     1.0000 0.19380  0.51570  0.03940  Biso   1.000  C
  H308     1.0000 0.21180  0.58070  0.04840  Biso   1.000  H
  C490     1.0000 0.17450  0.53710  0.00140  Biso   1.000  C
  H309     1.0000 0.17920  0.61670  0.98450  Biso   1.000  H
  C491     1.0000 0.14830  0.44230  0.98820  Biso   1.000  C
  C492     1.0000 0.14080  0.32640  0.01180  Biso   1.000  C
  H310     1.0000 0.12280  0.26200  0.00260  Biso   1.000  H
  C493     1.0000 0.16090  0.30420  0.05120  Biso   1.000  C
  H311     1.0000 0.15610  0.22460  0.06800  Biso   1.000  H
  C494     1.0000 0.12620  0.47110  0.94800  Biso   1.000  C
  N16      1.0000 0.13840  0.51780  0.91670  Biso   1.000  N
  C495     1.0000 0.11810  0.54090  0.88050  Biso   1.000  C
  C496     1.0000 0.08650  0.51260  0.87540  Biso   1.000  C
  H312     1.0000 0.07260  0.52700  0.85010  Biso   1.000  H
  C497     1.0000 0.07500  0.46320  0.90720  Biso   1.000  C
  C498     1.0000 0.09470  0.44210  0.94370  Biso   1.000  C
  H313     1.0000 0.08680  0.40810  0.96570  Biso   1.000  H
  C499     1.0000 0.13100  0.58700  0.84520  Biso   1.000  C
  C500     1.0000 0.15970  0.52880  0.84130  Biso   1.000  C
  H314     1.0000 0.17220  0.46690  0.86190  Biso   1.000  H
  C501     1.0000 0.17030  0.56020  0.80740  Biso   1.000  C
  H315     1.0000 0.19010  0.52010  0.80490  Biso   1.000  H
  C502     1.0000 0.15250  0.64870  0.77750  Biso   1.000  C
  C503     1.0000 0.12420  0.70650  0.78170  Biso   1.000  C
  H316     1.0000 0.11180  0.76900  0.76130  Biso   1.000  H
  C504     1.0000 0.11380  0.67500  0.81540  Biso   1.000  C
  H317     1.0000 0.09400  0.71570  0.81770  Biso   1.000  H
  O197     1.0000 0.76804  0.99430  0.22920  Biso   1.000  O
  O198     1.0000 0.77299  0.70200  0.22180  Biso   1.000  O
  O199     1.0000 0.81137  0.84820  0.27430  Biso   1.000  O
  O200     1.0000 0.18960  0.34410  0.14171  Biso   1.000  O
  O201     1.0000 0.22900  0.21310  0.11270  Biso   1.000  O
  O202     1.0000 0.23130  0.50860  0.12370  Biso   1.000  O
  O203     1.0000 0.19926  0.66270  0.73820  Biso   1.000  O
  O204     1.0000 0.15115  0.51540  0.70610  Biso   1.000  O
  O205     1.0000 0.15060  0.80720  0.70930  Biso   1.000  O
  O206     1.0000 0.08340  0.14600  0.15150  Biso   1.000  O
  O207     1.0000 0.06730  0.33700  0.19700  Biso   1.000  O
  O208     1.0000 0.07750  0.06200  0.21780  Biso   1.000  O
  O209     1.0000 0.25494  0.83800  0.19517  Biso   1.000  O
  P64      1.0000 0.78996  0.85520  0.23209  Biso   1.000  P
  P65      1.0000 0.21054  0.37000  0.11292  Biso   1.000  P
  P66      1.0000 0.16398  0.66050  0.73086  Biso   1.000  P
  P67      1.0000 0.06607  0.16150  0.18280  Biso   1.000  P
  C505     1.0000 0.00390  0.11700  0.18610  Biso   1.000  C
  H318     1.0000 0.01100  0.13980  0.21370  Biso   1.000  H
  C506     1.0000 0.96150  0.05400  0.13040  Biso   1.000  C
  C507     1.0000 0.02520  0.11300  0.16280  Biso   1.000  C
  C508     1.0000 0.97240  0.08800  0.17050  Biso   1.000  C
  H319     1.0000 0.95800  0.09060  0.18720  Biso   1.000  H
  C509     1.0000 0.98320  0.05000  0.10720  Biso   1.000  C
  H320     1.0000 0.97630  0.02630  0.07970  Biso   1.000  H
  C510     1.0000 0.01440  0.07900  0.12320  Biso   1.000  C
  H321     1.0000 0.02880  0.07530  0.10650  Biso   1.000  H
  Ba65     1.0000 0.87468  0.23990  0.80031  Biso   1.000  Ba
  Ba66     1.0000 0.12161  0.43440  0.13214  Biso   1.000  Ba
  Ba67     1.0000 0.20960  0.08560  0.19090  Biso   1.000  Ba
  C511     1.0000 0.02190  0.38600  0.86760  Biso   1.000  C
  C512     1.0000 0.04050  0.44300  0.90300  Biso   1.000  C
  C513     1.0000 0.02650  0.48900  0.93350  Biso   1.000  C
  H322     1.0000 0.03920  0.52820  0.95770  Biso   1.000  H
  C514     1.0000 0.99400  0.47800  0.92840  Biso   1.000  C
  H323     1.0000 0.98450  0.50900  0.94920  Biso   1.000  H
  C515     1.0000 0.97550  0.42000  0.89300  Biso   1.000  C
  C516     1.0000 0.98940  0.37400  0.86260  Biso   1.000  C
  H324     1.0000 0.97670  0.33530  0.83830  Biso   1.000  H
  O210     1.0000 0.92990  0.23350  0.89940  Biso   1.000  O
  O211     1.0000 0.92180  0.51130  0.91640  Biso   1.000  O
  O212     1.0000 0.91720  0.44000  0.84570  Biso   1.000  O
  P68      1.0000 0.93417  0.40360  0.88810  Biso   1.000  P
  C517     1.0000 0.87610  0.22420  0.95280  Biso   1.000  C
  H325     1.0000 0.88820  0.28490  0.93880  Biso   1.000  H
  C518     1.0000 0.88688  0.20160  0.99360  Biso   1.000  C
  H326     1.0000 0.90630  0.24680  0.00740  Biso   1.000  H
  C519     1.0000 0.86920  0.11280  0.01415  Biso   1.000  C
  C520     1.0000 0.84090  0.04660  0.99400  Biso   1.000  C
  H327     1.0000 0.82880  0.98590  0.00800  Biso   1.000  H
  C521     1.0000 0.83010  0.06920  0.95320  Biso   1.000  C
  H328     1.0000 0.81070  0.02400  0.93950  Biso   1.000  H
  C522     1.0000 0.84780  0.15800  0.93266  Biso   1.000  C
  O213     1.0000 0.80020  0.15880  0.86710  Biso   1.000  O
  O214     1.0000 0.84860  0.30970  0.86430  Biso   1.000  O
  O215     1.0000 0.84830  0.01960  0.86250  Biso   1.000  O
  P69      1.0000 0.83575  0.16540  0.87949  Biso   1.000  P
  C523     1.0000 0.86420  0.99400  0.18840  Biso   1.000  C
  H329     1.0000 0.88430  0.03980  0.19880  Biso   1.000  H
  C524     1.0000 0.84450  0.96300  0.21320  Biso   1.000  C
  H330     1.0000 0.85080  0.99000  0.24060  Biso   1.000  H
  C525     1.0000 0.80850  0.83300  0.15960  Biso   1.000  C
  H331     1.0000 0.79120  0.76420  0.15090  Biso   1.000  H
  C526     1.0000 0.82680  0.87600  0.13410  Biso   1.000  C
  H332     1.0000 0.82030  0.85030  0.10670  Biso   1.000  H
  O216     1.0000 0.07810  0.24720  0.18270  Biso   1.000  O
  O217     1.0000 0.08430  0.00700  0.14570  Biso   1.000  O
  O218     1.0000 0.07950  0.98600  0.21520  Biso   1.000  O
  P70      1.0000 0.06950  0.07360  0.17810  Biso   1.000  P
  C527     1.0000 0.97960  0.16100  0.11150  Biso   1.000  C
  H333     1.0000 0.96950  0.22730  0.09020  Biso   1.000  H
  C528     1.0000 0.01180  0.16800  0.12530  Biso   1.000  C
  H334     1.0000 0.02380  0.23880  0.11360  Biso   1.000  H
  C529     1.0000 0.96180  0.06000  0.12810  Biso   1.000  C
  C530     1.0000 0.00950  0.96900  0.17390  Biso   1.000  C
  H335     1.0000 0.01970  0.90330  0.19520  Biso   1.000  H
  C531     1.0000 0.02650  0.07200  0.15640  Biso   1.000  C
  C532     1.0000 0.97720  0.96500  0.15920  Biso   1.000  C
  H336     1.0000 0.96510  0.89420  0.17070  Biso   1.000  H
  Ba68     1.0000 0.87015  0.13900  0.80243  Biso   1.000  Ba
  Ba69     1.0000 0.87467  0.07670  0.80760  Biso   1.000  Ba
  Ba70     1.0000 0.13050  0.34530  0.13422  Biso   1.000  Ba
  Ba71     1.0000 0.12580  0.26300  0.13119  Biso   1.000  Ba
  Ba72     1.0000 0.21713  0.09950  0.19358  Biso   1.000  Ba
  C533     1.0000 0.04170  0.41200  0.89980  Biso   1.000  C
  C534     1.0000 0.03250  0.29800  0.92360  Biso   1.000  C
  H337     1.0000 0.04800  0.24540  0.94320  Biso   1.000  H
  C535     1.0000 0.00080  0.26100  0.91860  Biso   1.000  C
  H338     1.0000 0.99460  0.18350  0.93480  Biso   1.000  H
  C536     1.0000 0.97820  0.33800  0.88980  Biso   1.000  C
  C537     1.0000 0.98730  0.45200  0.86610  Biso   1.000  C
  H339     1.0000 0.97180  0.50420  0.84640  Biso   1.000  H
  C538     1.0000 0.01900  0.48900  0.87110  Biso   1.000  C
  H340     1.0000 0.02530  0.56620  0.85480  Biso   1.000  H
  P71      1.0000 0.93670  0.30350  0.88920  Biso   1.000  P
  O219     1.0000 0.92740  0.40000  0.92160  Biso   1.000  O
  O220     1.0000 0.93520  0.13220  0.90250  Biso   1.000  O
  O221     1.0000 0.91760  0.30800  0.84630  Biso   1.000  O
  C539     1.0000 0.84840  0.11600  0.93430  Biso   1.000  C
  C540     1.0000 0.88040  0.09000  0.94970  Biso   1.000  C
  H341     1.0000 0.89430  0.08100  0.93230  Biso   1.000  H
  C541     1.0000 0.89210  0.07600  0.99060  Biso   1.000  C
  H342     1.0000 0.91400  0.05780  0.00110  Biso   1.000  H
  C542     1.0000 0.87190  0.08900  0.01600  Biso   1.000  C
  C543     1.0000 0.83990  0.11500  0.00050  Biso   1.000  C
  H343     1.0000 0.82600  0.12420  0.01790  Biso   1.000  H
  C544     1.0000 0.82820  0.12900  0.95970  Biso   1.000  C
  H344     1.0000 0.80630  0.14740  0.94910  Biso   1.000  H
  P72      1.0000 0.83120  0.08500  0.88350  Biso   1.000  P
  O222     1.0000 0.84870  0.95400  0.86770  Biso   1.000  O
  O223     1.0000 0.79670  0.03700  0.87820  Biso   1.000  O
  O224     1.0000 0.83660  0.23900  0.86410  Biso   1.000  O
