data_image0
_cell_length_a       34.6633
_cell_length_b       15.3199
_cell_length_c       32.2057
_cell_angle_alpha    90
_cell_angle_beta     103.837
_cell_angle_gamma    90

_symmetry_space_group_name_H-M    "P 1"
_symmetry_int_tables_number       1

loop_
  _symmetry_equiv_pos_as_xyz
  'x, y, z'

loop_
  _atom_site_label
  _atom_site_occupancy
  _atom_site_fract_x
  _atom_site_fract_y
  _atom_site_fract_z
  _atom_site_thermal_displace_type
  _atom_site_B_iso_or_equiv
  _atom_site_type_symbol
  Br1      1.0000 0.14602  0.42695  0.99541  Biso   1.000  Br
  Br2      1.0000 0.10968  0.26500  0.09292  Biso   1.000  Br
  Br3      1.0000 0.99064  0.10640  0.87131  Biso   1.000  Br
  Br4      1.0000 0.89435  0.22530  0.92411  Biso   1.000  Br
  C1       1.0000 0.06140  0.54170  0.02780  Biso   1.000  C
  H1       1.0000 0.07340  0.54120  0.00490  Biso   1.000  H
  C2       1.0000 0.02880  0.59770  0.02580  Biso   1.000  C
  H2       1.0000 0.01920  0.63170  0.00160  Biso   1.000  H
  C3       1.0000 0.01130  0.60200  0.05970  Biso   1.000  C
  C4       1.0000 0.02720  0.54830  0.09570  Biso   1.000  C
  H3       1.0000 0.01710  0.55040  0.11990  Biso   1.000  H
  C5       1.0000 0.05690  0.49500  0.09380  Biso   1.000  C
  H4       1.0000 0.06580  0.45750  0.11680  Biso   1.000  H
  C6       1.0000 0.97950  0.66390  0.05940  Biso   1.000  C
  C7       1.0000 0.94650  0.78660  0.03230  Biso   1.000  C
  C8       1.0000 0.92760  0.71070  0.08420  Biso   1.000  C
  C9       1.0000 0.94330  0.86370  0.00330  Biso   1.000  C
  C10      1.0000 0.97300  0.88230  0.98320  Biso   1.000  C
  H5       1.0000 0.99600  0.84860  0.98900  Biso   1.000  H
  C11      1.0000 0.96940  0.94850  0.95520  Biso   1.000  C
  H6       1.0000 0.98940  0.95820  0.94100  Biso   1.000  H
  C12      1.0000 0.90880  0.98700  0.96900  Biso   1.000  C
  H7       1.0000 0.88740  0.02510  0.96530  Biso   1.000  H
  C13      1.0000 0.91050  0.91870  0.99620  Biso   1.000  C
  H8       1.0000 0.89010  0.90880  0.00980  Biso   1.000  H
  C14      1.0000 0.83640  0.71570  0.12960  Biso   1.000  C
  H9       1.0000 0.81180  0.74340  0.12400  Biso   1.000  H
  C15      1.0000 0.86210  0.73420  0.10210  Biso   1.000  C
  H10      1.0000 0.85420  0.77070  0.07850  Biso   1.000  H
  C16      1.0000 0.89920  0.69550  0.11190  Biso   1.000  C
  C17      1.0000 0.90970  0.64070  0.14690  Biso   1.000  C
  H11      1.0000 0.93480  0.61520  0.15460  Biso   1.000  H
  C18      1.0000 0.88180  0.62540  0.16960  Biso   1.000  C
  H12      1.0000 0.88840  0.58620  0.19220  Biso   1.000  H
  C19      1.0000 0.80700  0.88990  0.75520  Biso   1.000  C
  C20      1.0000 0.78760  0.76280  0.72120  Biso   1.000  C
  C21      1.0000 0.75450  0.88600  0.69980  Biso   1.000  C
  C22      1.0000 0.85770  0.06970  0.82510  Biso   1.000  C
  H13      1.0000 0.85480  0.12970  0.82730  Biso   1.000  H
  C23      1.0000 0.83190  0.02640  0.79310  Biso   1.000  C
  H14      1.0000 0.81200  0.05680  0.77410  Biso   1.000  H
  C24      1.0000 0.83530  0.94020  0.78930  Biso   1.000  C
  C25      1.0000 0.86520  0.89700  0.81740  Biso   1.000  C
  H15      1.0000 0.86840  0.83710  0.81540  Biso   1.000  H
  C26      1.0000 0.89000  0.94480  0.84830  Biso   1.000  C
  H16      1.0000 0.91040  0.91530  0.86710  Biso   1.000  H
  C27      1.0000 0.82580  0.53230  0.73840  Biso   1.000  C
  H17      1.0000 0.84580  0.50220  0.75740  Biso   1.000  H
  C28      1.0000 0.82330  0.62380  0.74350  Biso   1.000  C
  H18      1.0000 0.84210  0.65340  0.76410  Biso   1.000  H
  C29      1.0000 0.79340  0.66580  0.71800  Biso   1.000  C
  C30      1.0000 0.76520  0.61690  0.68650  Biso   1.000  C
  H19      1.0000 0.74380  0.64430  0.66830  Biso   1.000  H
  C31      1.0000 0.77090  0.53110  0.68430  Biso   1.000  C
  H20      1.0000 0.75210  0.49930  0.66470  Biso   1.000  H
  C32      1.0000 0.72190  0.93550  0.66890  Biso   1.000  C
  C33      1.0000 0.69540  0.89010  0.63630  Biso   1.000  C
  H21      1.0000 0.69720  0.83000  0.63350  Biso   1.000  H
  C34      1.0000 0.66710  0.93750  0.60890  Biso   1.000  C
  H22      1.0000 0.64890  0.90700  0.58790  Biso   1.000  H
  C35      1.0000 0.68880  0.06610  0.64220  Biso   1.000  C
  H23      1.0000 0.68620  0.12610  0.64490  Biso   1.000  H
  C36      1.0000 0.71850  0.02260  0.67120  Biso   1.000  C
  H24      1.0000 0.73620  0.05370  0.69230  Biso   1.000  H
  N1       1.0000 0.07570  0.49050  0.06020  Biso   1.000  N
  N2       1.0000 0.84540  0.66210  0.16210  Biso   1.000  N
  N3       1.0000 0.93680  0.00210  0.94700  Biso   1.000  N
  N4       1.0000 0.92060  0.77860  0.05710  Biso   1.000  N
  N5       1.0000 0.95720  0.65300  0.08710  Biso   1.000  N
  N6       1.0000 0.97540  0.73080  0.03130  Biso   1.000  N
  N7       1.0000 0.88730  0.02970  0.85370  Biso   1.000  N
  N8       1.0000 0.80150  0.48750  0.70820  Biso   1.000  N
  N9       1.0000 0.66330  0.02340  0.60970  Biso   1.000  N
  N10      1.0000 0.77740  0.93290  0.73060  Biso   1.000  N
  N11      1.0000 0.81430  0.80320  0.75250  Biso   1.000  N
  N12      1.0000 0.75800  0.79990  0.69380  Biso   1.000  N
  Zn1      1.0000 0.12339  0.41110  0.06401  Biso   1.000  Zn
  Zn2      1.0000 0.92840  0.09592  0.90011  Biso   1.000  Zn
  Zn3      1.0000 0.80890  0.35373  0.70261  Biso   1.000  Zn
  Br5      1.0000 0.73576  0.30190  0.65284  Biso   1.000  Br
  Br6      1.0000 0.86138  0.31750  0.78314  Biso   1.000  Br
  Br7      1.0000 0.75117  0.27579  0.68093  Biso   1.000  Br
  Br8      1.0000 0.83593  0.28920  0.76957  Biso   1.000  Br
  Br9      1.0000 0.64602  0.92695  0.99541  Biso   1.000  Br
  Br10     1.0000 0.60968  0.76500  0.09292  Biso   1.000  Br
  Br11     1.0000 0.49064  0.60640  0.87131  Biso   1.000  Br
  Br12     1.0000 0.39435  0.72530  0.92411  Biso   1.000  Br
  C37      1.0000 0.56140  0.04170  0.02780  Biso   1.000  C
  H25      1.0000 0.57340  0.04120  0.00490  Biso   1.000  H
  C38      1.0000 0.52880  0.09770  0.02580  Biso   1.000  C
  H26      1.0000 0.51920  0.13170  0.00160  Biso   1.000  H
  C39      1.0000 0.51130  0.10200  0.05970  Biso   1.000  C
  C40      1.0000 0.52720  0.04830  0.09570  Biso   1.000  C
  H27      1.0000 0.51710  0.05040  0.11990  Biso   1.000  H
  C41      1.0000 0.55690  0.99500  0.09380  Biso   1.000  C
  H28      1.0000 0.56580  0.95750  0.11680  Biso   1.000  H
  C42      1.0000 0.47950  0.16390  0.05940  Biso   1.000  C
  C43      1.0000 0.44650  0.28660  0.03230  Biso   1.000  C
  C44      1.0000 0.42760  0.21070  0.08420  Biso   1.000  C
  C45      1.0000 0.44330  0.36370  0.00330  Biso   1.000  C
  C46      1.0000 0.47300  0.38230  0.98320  Biso   1.000  C
  H29      1.0000 0.49600  0.34860  0.98900  Biso   1.000  H
  C47      1.0000 0.46940  0.44850  0.95520  Biso   1.000  C
  H30      1.0000 0.48940  0.45820  0.94100  Biso   1.000  H
  C48      1.0000 0.40880  0.48700  0.96900  Biso   1.000  C
  H31      1.0000 0.38740  0.52510  0.96530  Biso   1.000  H
  C49      1.0000 0.41050  0.41870  0.99620  Biso   1.000  C
  H32      1.0000 0.39010  0.40880  0.00980  Biso   1.000  H
  C50      1.0000 0.33640  0.21570  0.12960  Biso   1.000  C
  H33      1.0000 0.31180  0.24340  0.12400  Biso   1.000  H
  C51      1.0000 0.36210  0.23420  0.10210  Biso   1.000  C
  H34      1.0000 0.35420  0.27070  0.07850  Biso   1.000  H
  C52      1.0000 0.39920  0.19550  0.11190  Biso   1.000  C
  C53      1.0000 0.40970  0.14070  0.14690  Biso   1.000  C
  H35      1.0000 0.43480  0.11520  0.15460  Biso   1.000  H
  C54      1.0000 0.38180  0.12540  0.16960  Biso   1.000  C
  H36      1.0000 0.38840  0.08620  0.19220  Biso   1.000  H
  C55      1.0000 0.30700  0.38990  0.75520  Biso   1.000  C
  C56      1.0000 0.28760  0.26280  0.72120  Biso   1.000  C
  C57      1.0000 0.25450  0.38600  0.69980  Biso   1.000  C
  C58      1.0000 0.35770  0.56970  0.82510  Biso   1.000  C
  H37      1.0000 0.35480  0.62970  0.82730  Biso   1.000  H
  C59      1.0000 0.33190  0.52640  0.79310  Biso   1.000  C
  H38      1.0000 0.31200  0.55680  0.77410  Biso   1.000  H
  C60      1.0000 0.33530  0.44020  0.78930  Biso   1.000  C
  C61      1.0000 0.36520  0.39700  0.81740  Biso   1.000  C
  H39      1.0000 0.36840  0.33710  0.81540  Biso   1.000  H
  C62      1.0000 0.39000  0.44480  0.84830  Biso   1.000  C
  H40      1.0000 0.41040  0.41530  0.86710  Biso   1.000  H
  C63      1.0000 0.32580  0.03230  0.73840  Biso   1.000  C
  H41      1.0000 0.34580  0.00220  0.75740  Biso   1.000  H
  C64      1.0000 0.32330  0.12380  0.74350  Biso   1.000  C
  H42      1.0000 0.34210  0.15340  0.76410  Biso   1.000  H
  C65      1.0000 0.29340  0.16580  0.71800  Biso   1.000  C
  C66      1.0000 0.26520  0.11690  0.68650  Biso   1.000  C
  H43      1.0000 0.24380  0.14430  0.66830  Biso   1.000  H
  C67      1.0000 0.27090  0.03110  0.68430  Biso   1.000  C
  H44      1.0000 0.25210  0.99930  0.66470  Biso   1.000  H
  C68      1.0000 0.22190  0.43550  0.66890  Biso   1.000  C
  C69      1.0000 0.19540  0.39010  0.63630  Biso   1.000  C
  H45      1.0000 0.19720  0.33000  0.63350  Biso   1.000  H
  C70      1.0000 0.16710  0.43750  0.60890  Biso   1.000  C
  H46      1.0000 0.14890  0.40700  0.58790  Biso   1.000  H
  C71      1.0000 0.18880  0.56610  0.64220  Biso   1.000  C
  H47      1.0000 0.18620  0.62610  0.64490  Biso   1.000  H
  C72      1.0000 0.21850  0.52260  0.67120  Biso   1.000  C
  H48      1.0000 0.23620  0.55370  0.69230  Biso   1.000  H
  N13      1.0000 0.57570  0.99050  0.06020  Biso   1.000  N
  N14      1.0000 0.34540  0.16210  0.16210  Biso   1.000  N
  N15      1.0000 0.43680  0.50210  0.94700  Biso   1.000  N
  N16      1.0000 0.42060  0.27860  0.05710  Biso   1.000  N
  N17      1.0000 0.45720  0.15300  0.08710  Biso   1.000  N
  N18      1.0000 0.47540  0.23080  0.03130  Biso   1.000  N
  N19      1.0000 0.38730  0.52970  0.85370  Biso   1.000  N
  N20      1.0000 0.30150  0.98750  0.70820  Biso   1.000  N
  N21      1.0000 0.16330  0.52340  0.60970  Biso   1.000  N
  N22      1.0000 0.27740  0.43290  0.73060  Biso   1.000  N
  N23      1.0000 0.31430  0.30320  0.75250  Biso   1.000  N
  N24      1.0000 0.25800  0.29990  0.69380  Biso   1.000  N
  Zn4      1.0000 0.62339  0.91110  0.06401  Biso   1.000  Zn
  Zn5      1.0000 0.42840  0.59592  0.90011  Biso   1.000  Zn
  Zn6      1.0000 0.30890  0.85373  0.70261  Biso   1.000  Zn
  Br13     1.0000 0.23576  0.80190  0.65284  Biso   1.000  Br
  Br14     1.0000 0.36138  0.81750  0.78314  Biso   1.000  Br
  Br15     1.0000 0.25117  0.77579  0.68093  Biso   1.000  Br
  Br16     1.0000 0.33593  0.78920  0.76957  Biso   1.000  Br
  Br17     1.0000 0.14602  0.57305  0.49541  Biso   1.000  Br
  Br18     1.0000 0.10968  0.73500  0.59292  Biso   1.000  Br
  Br19     1.0000 0.99064  0.89360  0.37131  Biso   1.000  Br
  Br20     1.0000 0.89435  0.77470  0.42411  Biso   1.000  Br
  C73      1.0000 0.06140  0.45830  0.52780  Biso   1.000  C
  H49      1.0000 0.07340  0.45880  0.50490  Biso   1.000  H
  C74      1.0000 0.02880  0.40230  0.52580  Biso   1.000  C
  H50      1.0000 0.01920  0.36830  0.50160  Biso   1.000  H
  C75      1.0000 0.01130  0.39800  0.55970  Biso   1.000  C
  C76      1.0000 0.02720  0.45170  0.59570  Biso   1.000  C
  H51      1.0000 0.01710  0.44960  0.61990  Biso   1.000  H
  C77      1.0000 0.05690  0.50500  0.59380  Biso   1.000  C
  H52      1.0000 0.06580  0.54250  0.61680  Biso   1.000  H
  C78      1.0000 0.97950  0.33610  0.55940  Biso   1.000  C
  C79      1.0000 0.94650  0.21340  0.53230  Biso   1.000  C
  C80      1.0000 0.92760  0.28930  0.58420  Biso   1.000  C
  C81      1.0000 0.94330  0.13630  0.50330  Biso   1.000  C
  C82      1.0000 0.97300  0.11770  0.48320  Biso   1.000  C
  H53      1.0000 0.99600  0.15140  0.48900  Biso   1.000  H
  C83      1.0000 0.96940  0.05150  0.45520  Biso   1.000  C
  H54      1.0000 0.98940  0.04180  0.44100  Biso   1.000  H
  C84      1.0000 0.90880  0.01300  0.46900  Biso   1.000  C
  H55      1.0000 0.88740  0.97490  0.46530  Biso   1.000  H
  C85      1.0000 0.91050  0.08130  0.49620  Biso   1.000  C
  H56      1.0000 0.89010  0.09120  0.50980  Biso   1.000  H
  C86      1.0000 0.83640  0.28430  0.62960  Biso   1.000  C
  H57      1.0000 0.81180  0.25660  0.62400  Biso   1.000  H
  C87      1.0000 0.86210  0.26580  0.60210  Biso   1.000  C
  H58      1.0000 0.85420  0.22930  0.57850  Biso   1.000  H
  C88      1.0000 0.89920  0.30450  0.61190  Biso   1.000  C
  C89      1.0000 0.90970  0.35930  0.64690  Biso   1.000  C
  H59      1.0000 0.93480  0.38480  0.65460  Biso   1.000  H
  C90      1.0000 0.88180  0.37460  0.66960  Biso   1.000  C
  H60      1.0000 0.88840  0.41380  0.69220  Biso   1.000  H
  C91      1.0000 0.80700  0.11010  0.25520  Biso   1.000  C
  C92      1.0000 0.78760  0.23720  0.22120  Biso   1.000  C
  C93      1.0000 0.75450  0.11400  0.19980  Biso   1.000  C
  C94      1.0000 0.85770  0.93030  0.32510  Biso   1.000  C
  H61      1.0000 0.85480  0.87030  0.32730  Biso   1.000  H
  C95      1.0000 0.83190  0.97360  0.29310  Biso   1.000  C
  H62      1.0000 0.81200  0.94320  0.27410  Biso   1.000  H
  C96      1.0000 0.83530  0.05980  0.28930  Biso   1.000  C
  C97      1.0000 0.86520  0.10300  0.31740  Biso   1.000  C
  H63      1.0000 0.86840  0.16290  0.31540  Biso   1.000  H
  C98      1.0000 0.89000  0.05520  0.34830  Biso   1.000  C
  H64      1.0000 0.91040  0.08470  0.36710  Biso   1.000  H
  C99      1.0000 0.82580  0.46770  0.23840  Biso   1.000  C
  H65      1.0000 0.84580  0.49780  0.25740  Biso   1.000  H
  C100     1.0000 0.82330  0.37620  0.24350  Biso   1.000  C
  H66      1.0000 0.84210  0.34660  0.26410  Biso   1.000  H
  C101     1.0000 0.79340  0.33420  0.21800  Biso   1.000  C
  C102     1.0000 0.76520  0.38310  0.18650  Biso   1.000  C
  H67      1.0000 0.74380  0.35570  0.16830  Biso   1.000  H
  C103     1.0000 0.77090  0.46890  0.18430  Biso   1.000  C
  H68      1.0000 0.75210  0.50070  0.16470  Biso   1.000  H
  C104     1.0000 0.72190  0.06450  0.16890  Biso   1.000  C
  C105     1.0000 0.69540  0.10990  0.13630  Biso   1.000  C
  H69      1.0000 0.69720  0.17000  0.13350  Biso   1.000  H
  C106     1.0000 0.66710  0.06250  0.10890  Biso   1.000  C
  H70      1.0000 0.64890  0.09300  0.08790  Biso   1.000  H
  C107     1.0000 0.68880  0.93390  0.14220  Biso   1.000  C
  H71      1.0000 0.68620  0.87390  0.14490  Biso   1.000  H
  C108     1.0000 0.71850  0.97740  0.17120  Biso   1.000  C
  H72      1.0000 0.73620  0.94630  0.19230  Biso   1.000  H
  N25      1.0000 0.07570  0.50950  0.56020  Biso   1.000  N
  N26      1.0000 0.84540  0.33790  0.66210  Biso   1.000  N
  N27      1.0000 0.93680  0.99790  0.44700  Biso   1.000  N
  N28      1.0000 0.92060  0.22140  0.55710  Biso   1.000  N
  N29      1.0000 0.95720  0.34700  0.58710  Biso   1.000  N
  N30      1.0000 0.97540  0.26920  0.53130  Biso   1.000  N
  N31      1.0000 0.88730  0.97030  0.35370  Biso   1.000  N
  N32      1.0000 0.80150  0.51250  0.20820  Biso   1.000  N
  N33      1.0000 0.66330  0.97660  0.10970  Biso   1.000  N
  N34      1.0000 0.77740  0.06710  0.23060  Biso   1.000  N
  N35      1.0000 0.81430  0.19680  0.25250  Biso   1.000  N
  N36      1.0000 0.75800  0.20010  0.19380  Biso   1.000  N
  Zn7      1.0000 0.12339  0.58890  0.56401  Biso   1.000  Zn
  Zn8      1.0000 0.92840  0.90408  0.40011  Biso   1.000  Zn
  Zn9      1.0000 0.80890  0.64627  0.20261  Biso   1.000  Zn
  Br21     1.0000 0.73576  0.69810  0.15284  Biso   1.000  Br
  Br22     1.0000 0.86138  0.68250  0.28314  Biso   1.000  Br
  Br23     1.0000 0.75117  0.72421  0.18093  Biso   1.000  Br
  Br24     1.0000 0.83593  0.71080  0.26957  Biso   1.000  Br
  Br25     1.0000 0.64602  0.07305  0.49541  Biso   1.000  Br
  Br26     1.0000 0.60968  0.23500  0.59292  Biso   1.000  Br
  Br27     1.0000 0.49064  0.39360  0.37131  Biso   1.000  Br
  Br28     1.0000 0.39435  0.27470  0.42411  Biso   1.000  Br
  C109     1.0000 0.56140  0.95830  0.52780  Biso   1.000  C
  H73      1.0000 0.57340  0.95880  0.50490  Biso   1.000  H
  C110     1.0000 0.52880  0.90230  0.52580  Biso   1.000  C
  H74      1.0000 0.51920  0.86830  0.50160  Biso   1.000  H
  C111     1.0000 0.51130  0.89800  0.55970  Biso   1.000  C
  C112     1.0000 0.52720  0.95170  0.59570  Biso   1.000  C
  H75      1.0000 0.51710  0.94960  0.61990  Biso   1.000  H
  C113     1.0000 0.55690  0.00500  0.59380  Biso   1.000  C
  H76      1.0000 0.56580  0.04250  0.61680  Biso   1.000  H
  C114     1.0000 0.47950  0.83610  0.55940  Biso   1.000  C
  C115     1.0000 0.44650  0.71340  0.53230  Biso   1.000  C
  C116     1.0000 0.42760  0.78930  0.58420  Biso   1.000  C
  C117     1.0000 0.44330  0.63630  0.50330  Biso   1.000  C
  C118     1.0000 0.47300  0.61770  0.48320  Biso   1.000  C
  H77      1.0000 0.49600  0.65140  0.48900  Biso   1.000  H
  C119     1.0000 0.46940  0.55150  0.45520  Biso   1.000  C
  H78      1.0000 0.48940  0.54180  0.44100  Biso   1.000  H
  C120     1.0000 0.40880  0.51300  0.46900  Biso   1.000  C
  H79      1.0000 0.38740  0.47490  0.46530  Biso   1.000  H
  C121     1.0000 0.41050  0.58130  0.49620  Biso   1.000  C
  H80      1.0000 0.39010  0.59120  0.50980  Biso   1.000  H
  C122     1.0000 0.33640  0.78430  0.62960  Biso   1.000  C
  H81      1.0000 0.31180  0.75660  0.62400  Biso   1.000  H
  C123     1.0000 0.36210  0.76580  0.60210  Biso   1.000  C
  H82      1.0000 0.35420  0.72930  0.57850  Biso   1.000  H
  C124     1.0000 0.39920  0.80450  0.61190  Biso   1.000  C
  C125     1.0000 0.40970  0.85930  0.64690  Biso   1.000  C
  H83      1.0000 0.43480  0.88480  0.65460  Biso   1.000  H
  C126     1.0000 0.38180  0.87460  0.66960  Biso   1.000  C
  H84      1.0000 0.38840  0.91380  0.69220  Biso   1.000  H
  C127     1.0000 0.30700  0.61010  0.25520  Biso   1.000  C
  C128     1.0000 0.28760  0.73720  0.22120  Biso   1.000  C
  C129     1.0000 0.25450  0.61400  0.19980  Biso   1.000  C
  C130     1.0000 0.35770  0.43030  0.32510  Biso   1.000  C
  H85      1.0000 0.35480  0.37030  0.32730  Biso   1.000  H
  C131     1.0000 0.33190  0.47360  0.29310  Biso   1.000  C
  H86      1.0000 0.31200  0.44320  0.27410  Biso   1.000  H
  C132     1.0000 0.33530  0.55980  0.28930  Biso   1.000  C
  C133     1.0000 0.36520  0.60300  0.31740  Biso   1.000  C
  H87      1.0000 0.36840  0.66290  0.31540  Biso   1.000  H
  C134     1.0000 0.39000  0.55520  0.34830  Biso   1.000  C
  H88      1.0000 0.41040  0.58470  0.36710  Biso   1.000  H
  C135     1.0000 0.32580  0.96770  0.23840  Biso   1.000  C
  H89      1.0000 0.34580  0.99780  0.25740  Biso   1.000  H
  C136     1.0000 0.32330  0.87620  0.24350  Biso   1.000  C
  H90      1.0000 0.34210  0.84660  0.26410  Biso   1.000  H
  C137     1.0000 0.29340  0.83420  0.21800  Biso   1.000  C
  C138     1.0000 0.26520  0.88310  0.18650  Biso   1.000  C
  H91      1.0000 0.24380  0.85570  0.16830  Biso   1.000  H
  C139     1.0000 0.27090  0.96890  0.18430  Biso   1.000  C
  H92      1.0000 0.25210  0.00070  0.16470  Biso   1.000  H
  C140     1.0000 0.22190  0.56450  0.16890  Biso   1.000  C
  C141     1.0000 0.19540  0.60990  0.13630  Biso   1.000  C
  H93      1.0000 0.19720  0.67000  0.13350  Biso   1.000  H
  C142     1.0000 0.16710  0.56250  0.10890  Biso   1.000  C
  H94      1.0000 0.14890  0.59300  0.08790  Biso   1.000  H
  C143     1.0000 0.18880  0.43390  0.14220  Biso   1.000  C
  H95      1.0000 0.18620  0.37390  0.14490  Biso   1.000  H
  C144     1.0000 0.21850  0.47740  0.17120  Biso   1.000  C
  H96      1.0000 0.23620  0.44630  0.19230  Biso   1.000  H
  N37      1.0000 0.57570  0.00950  0.56020  Biso   1.000  N
  N38      1.0000 0.34540  0.83790  0.66210  Biso   1.000  N
  N39      1.0000 0.43680  0.49790  0.44700  Biso   1.000  N
  N40      1.0000 0.42060  0.72140  0.55710  Biso   1.000  N
  N41      1.0000 0.45720  0.84700  0.58710  Biso   1.000  N
  N42      1.0000 0.47540  0.76920  0.53130  Biso   1.000  N
  N43      1.0000 0.38730  0.47030  0.35370  Biso   1.000  N
  N44      1.0000 0.30150  0.01250  0.20820  Biso   1.000  N
  N45      1.0000 0.16330  0.47660  0.10970  Biso   1.000  N
  N46      1.0000 0.27740  0.56710  0.23060  Biso   1.000  N
  N47      1.0000 0.31430  0.69680  0.25250  Biso   1.000  N
  N48      1.0000 0.25800  0.70010  0.19380  Biso   1.000  N
  Zn10     1.0000 0.62339  0.08890  0.56401  Biso   1.000  Zn
  Zn11     1.0000 0.42840  0.40408  0.40011  Biso   1.000  Zn
  Zn12     1.0000 0.30890  0.14627  0.20261  Biso   1.000  Zn
  Br29     1.0000 0.23576  0.19810  0.15284  Biso   1.000  Br
  Br30     1.0000 0.36138  0.18250  0.28314  Biso   1.000  Br
  Br31     1.0000 0.25117  0.22421  0.18093  Biso   1.000  Br
  Br32     1.0000 0.33593  0.21080  0.26957  Biso   1.000  Br
  Br33     1.0000 0.85398  0.42695  0.50459  Biso   1.000  Br
  Br34     1.0000 0.89032  0.26500  0.40708  Biso   1.000  Br
  Br35     1.0000 0.00936  0.10640  0.62869  Biso   1.000  Br
  Br36     1.0000 0.10565  0.22530  0.57589  Biso   1.000  Br
  C145     1.0000 0.93860  0.54170  0.47220  Biso   1.000  C
  H97      1.0000 0.92660  0.54120  0.49510  Biso   1.000  H
  C146     1.0000 0.97120  0.59770  0.47420  Biso   1.000  C
  H98      1.0000 0.98080  0.63170  0.49840  Biso   1.000  H
  C147     1.0000 0.98870  0.60200  0.44030  Biso   1.000  C
  C148     1.0000 0.97280  0.54830  0.40430  Biso   1.000  C
  H99      1.0000 0.98290  0.55040  0.38010  Biso   1.000  H
  C149     1.0000 0.94310  0.49500  0.40620  Biso   1.000  C
  H100     1.0000 0.93420  0.45750  0.38320  Biso   1.000  H
  C150     1.0000 0.02050  0.66390  0.44060  Biso   1.000  C
  C151     1.0000 0.05350  0.78660  0.46770  Biso   1.000  C
  C152     1.0000 0.07240  0.71070  0.41580  Biso   1.000  C
  C153     1.0000 0.05670  0.86370  0.49670  Biso   1.000  C
  C154     1.0000 0.02700  0.88230  0.51680  Biso   1.000  C
  H101     1.0000 0.00400  0.84860  0.51100  Biso   1.000  H
  C155     1.0000 0.03060  0.94850  0.54480  Biso   1.000  C
  H102     1.0000 0.01060  0.95820  0.55900  Biso   1.000  H
  C156     1.0000 0.09120  0.98700  0.53100  Biso   1.000  C
  H103     1.0000 0.11260  0.02510  0.53470  Biso   1.000  H
  C157     1.0000 0.08950  0.91870  0.50380  Biso   1.000  C
  H104     1.0000 0.10990  0.90880  0.49020  Biso   1.000  H
  C158     1.0000 0.16360  0.71570  0.37040  Biso   1.000  C
  H105     1.0000 0.18820  0.74340  0.37600  Biso   1.000  H
  C159     1.0000 0.13790  0.73420  0.39790  Biso   1.000  C
  H106     1.0000 0.14580  0.77070  0.42150  Biso   1.000  H
  C160     1.0000 0.10080  0.69550  0.38810  Biso   1.000  C
  C161     1.0000 0.09030  0.64070  0.35310  Biso   1.000  C
  H107     1.0000 0.06520  0.61520  0.34540  Biso   1.000  H
  C162     1.0000 0.11820  0.62540  0.33040  Biso   1.000  C
  H108     1.0000 0.11160  0.58620  0.30780  Biso   1.000  H
  C163     1.0000 0.19300  0.88990  0.74480  Biso   1.000  C
  C164     1.0000 0.21240  0.76280  0.77880  Biso   1.000  C
  C165     1.0000 0.24550  0.88600  0.80020  Biso   1.000  C
  C166     1.0000 0.14230  0.06970  0.67490  Biso   1.000  C
  H109     1.0000 0.14520  0.12970  0.67270  Biso   1.000  H
  C167     1.0000 0.16810  0.02640  0.70690  Biso   1.000  C
  H110     1.0000 0.18800  0.05680  0.72590  Biso   1.000  H
  C168     1.0000 0.16470  0.94020  0.71070  Biso   1.000  C
  C169     1.0000 0.13480  0.89700  0.68260  Biso   1.000  C
  H111     1.0000 0.13160  0.83710  0.68460  Biso   1.000  H
  C170     1.0000 0.11000  0.94480  0.65170  Biso   1.000  C
  H112     1.0000 0.08960  0.91530  0.63290  Biso   1.000  H
  C171     1.0000 0.17420  0.53230  0.76160  Biso   1.000  C
  H113     1.0000 0.15420  0.50220  0.74260  Biso   1.000  H
  C172     1.0000 0.17670  0.62380  0.75650  Biso   1.000  C
  H114     1.0000 0.15790  0.65340  0.73590  Biso   1.000  H
  C173     1.0000 0.20660  0.66580  0.78200  Biso   1.000  C
  C174     1.0000 0.23480  0.61690  0.81350  Biso   1.000  C
  H115     1.0000 0.25620  0.64430  0.83170  Biso   1.000  H
  C175     1.0000 0.22910  0.53110  0.81570  Biso   1.000  C
  H116     1.0000 0.24790  0.49930  0.83530  Biso   1.000  H
  C176     1.0000 0.27810  0.93550  0.83110  Biso   1.000  C
  C177     1.0000 0.30460  0.89010  0.86370  Biso   1.000  C
  H117     1.0000 0.30280  0.83000  0.86650  Biso   1.000  H
  C178     1.0000 0.33290  0.93750  0.89110  Biso   1.000  C
  H118     1.0000 0.35110  0.90700  0.91210  Biso   1.000  H
  C179     1.0000 0.31120  0.06610  0.85780  Biso   1.000  C
  H119     1.0000 0.31380  0.12610  0.85510  Biso   1.000  H
  C180     1.0000 0.28150  0.02260  0.82880  Biso   1.000  C
  H120     1.0000 0.26380  0.05370  0.80770  Biso   1.000  H
  N49      1.0000 0.92430  0.49050  0.43980  Biso   1.000  N
  N50      1.0000 0.15460  0.66210  0.33790  Biso   1.000  N
  N51      1.0000 0.06320  0.00210  0.55300  Biso   1.000  N
  N52      1.0000 0.07940  0.77860  0.44290  Biso   1.000  N
  N53      1.0000 0.04280  0.65300  0.41290  Biso   1.000  N
  N54      1.0000 0.02460  0.73080  0.46870  Biso   1.000  N
  N55      1.0000 0.11270  0.02970  0.64630  Biso   1.000  N
  N56      1.0000 0.19850  0.48750  0.79180  Biso   1.000  N
  N57      1.0000 0.33670  0.02340  0.89030  Biso   1.000  N
  N58      1.0000 0.22260  0.93290  0.76940  Biso   1.000  N
  N59      1.0000 0.18570  0.80320  0.74750  Biso   1.000  N
  N60      1.0000 0.24200  0.79990  0.80620  Biso   1.000  N
  Zn13     1.0000 0.87661  0.41110  0.43599  Biso   1.000  Zn
  Zn14     1.0000 0.07160  0.09592  0.59989  Biso   1.000  Zn
  Zn15     1.0000 0.19110  0.35373  0.79739  Biso   1.000  Zn
  Br37     1.0000 0.26424  0.30190  0.84716  Biso   1.000  Br
  Br38     1.0000 0.13862  0.31750  0.71686  Biso   1.000  Br
  Br39     1.0000 0.24883  0.27579  0.81907  Biso   1.000  Br
  Br40     1.0000 0.16407  0.28920  0.73043  Biso   1.000  Br
  Br41     1.0000 0.35398  0.92695  0.50459  Biso   1.000  Br
  Br42     1.0000 0.39032  0.76500  0.40708  Biso   1.000  Br
  Br43     1.0000 0.50936  0.60640  0.62869  Biso   1.000  Br
  Br44     1.0000 0.60565  0.72530  0.57589  Biso   1.000  Br
  C181     1.0000 0.43860  0.04170  0.47220  Biso   1.000  C
  H121     1.0000 0.42660  0.04120  0.49510  Biso   1.000  H
  C182     1.0000 0.47120  0.09770  0.47420  Biso   1.000  C
  H122     1.0000 0.48080  0.13170  0.49840  Biso   1.000  H
  C183     1.0000 0.48870  0.10200  0.44030  Biso   1.000  C
  C184     1.0000 0.47280  0.04830  0.40430  Biso   1.000  C
  H123     1.0000 0.48290  0.05040  0.38010  Biso   1.000  H
  C185     1.0000 0.44310  0.99500  0.40620  Biso   1.000  C
  H124     1.0000 0.43420  0.95750  0.38320  Biso   1.000  H
  C186     1.0000 0.52050  0.16390  0.44060  Biso   1.000  C
  C187     1.0000 0.55350  0.28660  0.46770  Biso   1.000  C
  C188     1.0000 0.57240  0.21070  0.41580  Biso   1.000  C
  C189     1.0000 0.55670  0.36370  0.49670  Biso   1.000  C
  C190     1.0000 0.52700  0.38230  0.51680  Biso   1.000  C
  H125     1.0000 0.50400  0.34860  0.51100  Biso   1.000  H
  C191     1.0000 0.53060  0.44850  0.54480  Biso   1.000  C
  H126     1.0000 0.51060  0.45820  0.55900  Biso   1.000  H
  C192     1.0000 0.59120  0.48700  0.53100  Biso   1.000  C
  H127     1.0000 0.61260  0.52510  0.53470  Biso   1.000  H
  C193     1.0000 0.58950  0.41870  0.50380  Biso   1.000  C
  H128     1.0000 0.60990  0.40880  0.49020  Biso   1.000  H
  C194     1.0000 0.66360  0.21570  0.37040  Biso   1.000  C
  H129     1.0000 0.68820  0.24340  0.37600  Biso   1.000  H
  C195     1.0000 0.63790  0.23420  0.39790  Biso   1.000  C
  H130     1.0000 0.64580  0.27070  0.42150  Biso   1.000  H
  C196     1.0000 0.60080  0.19550  0.38810  Biso   1.000  C
  C197     1.0000 0.59030  0.14070  0.35310  Biso   1.000  C
  H131     1.0000 0.56520  0.11520  0.34540  Biso   1.000  H
  C198     1.0000 0.61820  0.12540  0.33040  Biso   1.000  C
  H132     1.0000 0.61160  0.08620  0.30780  Biso   1.000  H
  C199     1.0000 0.69300  0.38990  0.74480  Biso   1.000  C
  C200     1.0000 0.71240  0.26280  0.77880  Biso   1.000  C
  C201     1.0000 0.74550  0.38600  0.80020  Biso   1.000  C
  C202     1.0000 0.64230  0.56970  0.67490  Biso   1.000  C
  H133     1.0000 0.64520  0.62970  0.67270  Biso   1.000  H
  C203     1.0000 0.66810  0.52640  0.70690  Biso   1.000  C
  H134     1.0000 0.68800  0.55680  0.72590  Biso   1.000  H
  C204     1.0000 0.66470  0.44020  0.71070  Biso   1.000  C
  C205     1.0000 0.63480  0.39700  0.68260  Biso   1.000  C
  H135     1.0000 0.63160  0.33710  0.68460  Biso   1.000  H
  C206     1.0000 0.61000  0.44480  0.65170  Biso   1.000  C
  H136     1.0000 0.58960  0.41530  0.63290  Biso   1.000  H
  C207     1.0000 0.67420  0.03230  0.76160  Biso   1.000  C
  H137     1.0000 0.65420  0.00220  0.74260  Biso   1.000  H
  C208     1.0000 0.67670  0.12380  0.75650  Biso   1.000  C
  H138     1.0000 0.65790  0.15340  0.73590  Biso   1.000  H
  C209     1.0000 0.70660  0.16580  0.78200  Biso   1.000  C
  C210     1.0000 0.73480  0.11690  0.81350  Biso   1.000  C
  H139     1.0000 0.75620  0.14430  0.83170  Biso   1.000  H
  C211     1.0000 0.72910  0.03110  0.81570  Biso   1.000  C
  H140     1.0000 0.74790  0.99930  0.83530  Biso   1.000  H
  C212     1.0000 0.77810  0.43550  0.83110  Biso   1.000  C
  C213     1.0000 0.80460  0.39010  0.86370  Biso   1.000  C
  H141     1.0000 0.80280  0.33000  0.86650  Biso   1.000  H
  C214     1.0000 0.83290  0.43750  0.89110  Biso   1.000  C
  H142     1.0000 0.85110  0.40700  0.91210  Biso   1.000  H
  C215     1.0000 0.81120  0.56610  0.85780  Biso   1.000  C
  H143     1.0000 0.81380  0.62610  0.85510  Biso   1.000  H
  C216     1.0000 0.78150  0.52260  0.82880  Biso   1.000  C
  H144     1.0000 0.76380  0.55370  0.80770  Biso   1.000  H
  N61      1.0000 0.42430  0.99050  0.43980  Biso   1.000  N
  N62      1.0000 0.65460  0.16210  0.33790  Biso   1.000  N
  N63      1.0000 0.56320  0.50210  0.55300  Biso   1.000  N
  N64      1.0000 0.57940  0.27860  0.44290  Biso   1.000  N
  N65      1.0000 0.54280  0.15300  0.41290  Biso   1.000  N
  N66      1.0000 0.52460  0.23080  0.46870  Biso   1.000  N
  N67      1.0000 0.61270  0.52970  0.64630  Biso   1.000  N
  N68      1.0000 0.69850  0.98750  0.79180  Biso   1.000  N
  N69      1.0000 0.83670  0.52340  0.89030  Biso   1.000  N
  N70      1.0000 0.72260  0.43290  0.76940  Biso   1.000  N
  N71      1.0000 0.68570  0.30320  0.74750  Biso   1.000  N
  N72      1.0000 0.74200  0.29990  0.80620  Biso   1.000  N
  Zn16     1.0000 0.37661  0.91110  0.43599  Biso   1.000  Zn
  Zn17     1.0000 0.57160  0.59592  0.59989  Biso   1.000  Zn
  Zn18     1.0000 0.69110  0.85373  0.79739  Biso   1.000  Zn
  Br45     1.0000 0.76424  0.80190  0.84716  Biso   1.000  Br
  Br46     1.0000 0.63862  0.81750  0.71686  Biso   1.000  Br
  Br47     1.0000 0.74883  0.77579  0.81907  Biso   1.000  Br
  Br48     1.0000 0.66407  0.78920  0.73043  Biso   1.000  Br
  Br49     1.0000 0.85398  0.57305  0.00459  Biso   1.000  Br
  Br50     1.0000 0.89032  0.73500  0.90708  Biso   1.000  Br
  Br51     1.0000 0.00936  0.89360  0.12869  Biso   1.000  Br
  Br52     1.0000 0.10565  0.77470  0.07589  Biso   1.000  Br
  C217     1.0000 0.93860  0.45830  0.97220  Biso   1.000  C
  H145     1.0000 0.92660  0.45880  0.99510  Biso   1.000  H
  C218     1.0000 0.97120  0.40230  0.97420  Biso   1.000  C
  H146     1.0000 0.98080  0.36830  0.99840  Biso   1.000  H
  C219     1.0000 0.98870  0.39800  0.94030  Biso   1.000  C
  C220     1.0000 0.97280  0.45170  0.90430  Biso   1.000  C
  H147     1.0000 0.98290  0.44960  0.88010  Biso   1.000  H
  C221     1.0000 0.94310  0.50500  0.90620  Biso   1.000  C
  H148     1.0000 0.93420  0.54250  0.88320  Biso   1.000  H
  C222     1.0000 0.02050  0.33610  0.94060  Biso   1.000  C
  C223     1.0000 0.05350  0.21340  0.96770  Biso   1.000  C
  C224     1.0000 0.07240  0.28930  0.91580  Biso   1.000  C
  C225     1.0000 0.05670  0.13630  0.99670  Biso   1.000  C
  C226     1.0000 0.02700  0.11770  0.01680  Biso   1.000  C
  H149     1.0000 0.00400  0.15140  0.01100  Biso   1.000  H
  C227     1.0000 0.03060  0.05150  0.04480  Biso   1.000  C
  H150     1.0000 0.01060  0.04180  0.05900  Biso   1.000  H
  C228     1.0000 0.09120  0.01300  0.03100  Biso   1.000  C
  H151     1.0000 0.11260  0.97490  0.03470  Biso   1.000  H
  C229     1.0000 0.08950  0.08130  0.00380  Biso   1.000  C
  H152     1.0000 0.10990  0.09120  0.99020  Biso   1.000  H
  C230     1.0000 0.16360  0.28430  0.87040  Biso   1.000  C
  H153     1.0000 0.18820  0.25660  0.87600  Biso   1.000  H
  C231     1.0000 0.13790  0.26580  0.89790  Biso   1.000  C
  H154     1.0000 0.14580  0.22930  0.92150  Biso   1.000  H
  C232     1.0000 0.10080  0.30450  0.88810  Biso   1.000  C
  C233     1.0000 0.09030  0.35930  0.85310  Biso   1.000  C
  H155     1.0000 0.06520  0.38480  0.84540  Biso   1.000  H
  C234     1.0000 0.11820  0.37460  0.83040  Biso   1.000  C
  H156     1.0000 0.11160  0.41380  0.80780  Biso   1.000  H
  C235     1.0000 0.19300  0.11010  0.24480  Biso   1.000  C
  C236     1.0000 0.21240  0.23720  0.27880  Biso   1.000  C
  C237     1.0000 0.24550  0.11400  0.30020  Biso   1.000  C
  C238     1.0000 0.14230  0.93030  0.17490  Biso   1.000  C
  H157     1.0000 0.14520  0.87030  0.17270  Biso   1.000  H
  C239     1.0000 0.16810  0.97360  0.20690  Biso   1.000  C
  H158     1.0000 0.18800  0.94320  0.22590  Biso   1.000  H
  C240     1.0000 0.16470  0.05980  0.21070  Biso   1.000  C
  C241     1.0000 0.13480  0.10300  0.18260  Biso   1.000  C
  H159     1.0000 0.13160  0.16290  0.18460  Biso   1.000  H
  C242     1.0000 0.11000  0.05520  0.15170  Biso   1.000  C
  H160     1.0000 0.08960  0.08470  0.13290  Biso   1.000  H
  C243     1.0000 0.17420  0.46770  0.26160  Biso   1.000  C
  H161     1.0000 0.15420  0.49780  0.24260  Biso   1.000  H
  C244     1.0000 0.17670  0.37620  0.25650  Biso   1.000  C
  H162     1.0000 0.15790  0.34660  0.23590  Biso   1.000  H
  C245     1.0000 0.20660  0.33420  0.28200  Biso   1.000  C
  C246     1.0000 0.23480  0.38310  0.31350  Biso   1.000  C
  H163     1.0000 0.25620  0.35570  0.33170  Biso   1.000  H
  C247     1.0000 0.22910  0.46890  0.31570  Biso   1.000  C
  H164     1.0000 0.24790  0.50070  0.33530  Biso   1.000  H
  C248     1.0000 0.27810  0.06450  0.33110  Biso   1.000  C
  C249     1.0000 0.30460  0.10990  0.36370  Biso   1.000  C
  H165     1.0000 0.30280  0.17000  0.36650  Biso   1.000  H
  C250     1.0000 0.33290  0.06250  0.39110  Biso   1.000  C
  H166     1.0000 0.35110  0.09300  0.41210  Biso   1.000  H
  C251     1.0000 0.31120  0.93390  0.35780  Biso   1.000  C
  H167     1.0000 0.31380  0.87390  0.35510  Biso   1.000  H
  C252     1.0000 0.28150  0.97740  0.32880  Biso   1.000  C
  H168     1.0000 0.26380  0.94630  0.30770  Biso   1.000  H
  N73      1.0000 0.92430  0.50950  0.93980  Biso   1.000  N
  N74      1.0000 0.15460  0.33790  0.83790  Biso   1.000  N
  N75      1.0000 0.06320  0.99790  0.05300  Biso   1.000  N
  N76      1.0000 0.07940  0.22140  0.94290  Biso   1.000  N
  N77      1.0000 0.04280  0.34700  0.91290  Biso   1.000  N
  N78      1.0000 0.02460  0.26920  0.96870  Biso   1.000  N
  N79      1.0000 0.11270  0.97030  0.14630  Biso   1.000  N
  N80      1.0000 0.19850  0.51250  0.29180  Biso   1.000  N
  N81      1.0000 0.33670  0.97660  0.39030  Biso   1.000  N
  N82      1.0000 0.22260  0.06710  0.26940  Biso   1.000  N
  N83      1.0000 0.18570  0.19680  0.24750  Biso   1.000  N
  N84      1.0000 0.24200  0.20010  0.30620  Biso   1.000  N
  Zn19     1.0000 0.87661  0.58890  0.93599  Biso   1.000  Zn
  Zn20     1.0000 0.07160  0.90408  0.09989  Biso   1.000  Zn
  Zn21     1.0000 0.19110  0.64627  0.29739  Biso   1.000  Zn
  Br53     1.0000 0.26424  0.69810  0.34716  Biso   1.000  Br
  Br54     1.0000 0.13862  0.68250  0.21686  Biso   1.000  Br
  Br55     1.0000 0.24883  0.72421  0.31907  Biso   1.000  Br
  Br56     1.0000 0.16407  0.71080  0.23043  Biso   1.000  Br
  Br57     1.0000 0.35398  0.07305  0.00459  Biso   1.000  Br
  Br58     1.0000 0.39032  0.23500  0.90708  Biso   1.000  Br
  Br59     1.0000 0.50936  0.39360  0.12869  Biso   1.000  Br
  Br60     1.0000 0.60565  0.27470  0.07589  Biso   1.000  Br
  C253     1.0000 0.43860  0.95830  0.97220  Biso   1.000  C
  H169     1.0000 0.42660  0.95880  0.99510  Biso   1.000  H
  C254     1.0000 0.47120  0.90230  0.97420  Biso   1.000  C
  H170     1.0000 0.48080  0.86830  0.99840  Biso   1.000  H
  C255     1.0000 0.48870  0.89800  0.94030  Biso   1.000  C
  C256     1.0000 0.47280  0.95170  0.90430  Biso   1.000  C
  H171     1.0000 0.48290  0.94960  0.88010  Biso   1.000  H
  C257     1.0000 0.44310  0.00500  0.90620  Biso   1.000  C
  H172     1.0000 0.43420  0.04250  0.88320  Biso   1.000  H
  C258     1.0000 0.52050  0.83610  0.94060  Biso   1.000  C
  C259     1.0000 0.55350  0.71340  0.96770  Biso   1.000  C
  C260     1.0000 0.57240  0.78930  0.91580  Biso   1.000  C
  C261     1.0000 0.55670  0.63630  0.99670  Biso   1.000  C
  C262     1.0000 0.52700  0.61770  0.01680  Biso   1.000  C
  H173     1.0000 0.50400  0.65140  0.01100  Biso   1.000  H
  C263     1.0000 0.53060  0.55150  0.04480  Biso   1.000  C
  H174     1.0000 0.51060  0.54180  0.05900  Biso   1.000  H
  C264     1.0000 0.59120  0.51300  0.03100  Biso   1.000  C
  H175     1.0000 0.61260  0.47490  0.03470  Biso   1.000  H
  C265     1.0000 0.58950  0.58130  0.00380  Biso   1.000  C
  H176     1.0000 0.60990  0.59120  0.99020  Biso   1.000  H
  C266     1.0000 0.66360  0.78430  0.87040  Biso   1.000  C
  H177     1.0000 0.68820  0.75660  0.87600  Biso   1.000  H
  C267     1.0000 0.63790  0.76580  0.89790  Biso   1.000  C
  H178     1.0000 0.64580  0.72930  0.92150  Biso   1.000  H
  C268     1.0000 0.60080  0.80450  0.88810  Biso   1.000  C
  C269     1.0000 0.59030  0.85930  0.85310  Biso   1.000  C
  H179     1.0000 0.56520  0.88480  0.84540  Biso   1.000  H
  C270     1.0000 0.61820  0.87460  0.83040  Biso   1.000  C
  H180     1.0000 0.61160  0.91380  0.80780  Biso   1.000  H
  C271     1.0000 0.69300  0.61010  0.24480  Biso   1.000  C
  C272     1.0000 0.71240  0.73720  0.27880  Biso   1.000  C
  C273     1.0000 0.74550  0.61400  0.30020  Biso   1.000  C
  C274     1.0000 0.64230  0.43030  0.17490  Biso   1.000  C
  H181     1.0000 0.64520  0.37030  0.17270  Biso   1.000  H
  C275     1.0000 0.66810  0.47360  0.20690  Biso   1.000  C
  H182     1.0000 0.68800  0.44320  0.22590  Biso   1.000  H
  C276     1.0000 0.66470  0.55980  0.21070  Biso   1.000  C
  C277     1.0000 0.63480  0.60300  0.18260  Biso   1.000  C
  H183     1.0000 0.63160  0.66290  0.18460  Biso   1.000  H
  C278     1.0000 0.61000  0.55520  0.15170  Biso   1.000  C
  H184     1.0000 0.58960  0.58470  0.13290  Biso   1.000  H
  C279     1.0000 0.67420  0.96770  0.26160  Biso   1.000  C
  H185     1.0000 0.65420  0.99780  0.24260  Biso   1.000  H
  C280     1.0000 0.67670  0.87620  0.25650  Biso   1.000  C
  H186     1.0000 0.65790  0.84660  0.23590  Biso   1.000  H
  C281     1.0000 0.70660  0.83420  0.28200  Biso   1.000  C
  C282     1.0000 0.73480  0.88310  0.31350  Biso   1.000  C
  H187     1.0000 0.75620  0.85570  0.33170  Biso   1.000  H
  C283     1.0000 0.72910  0.96890  0.31570  Biso   1.000  C
  H188     1.0000 0.74790  0.00070  0.33530  Biso   1.000  H
  C284     1.0000 0.77810  0.56450  0.33110  Biso   1.000  C
  C285     1.0000 0.80460  0.60990  0.36370  Biso   1.000  C
  H189     1.0000 0.80280  0.67000  0.36650  Biso   1.000  H
  C286     1.0000 0.83290  0.56250  0.39110  Biso   1.000  C
  H190     1.0000 0.85110  0.59300  0.41210  Biso   1.000  H
  C287     1.0000 0.81120  0.43390  0.35780  Biso   1.000  C
  H191     1.0000 0.81380  0.37390  0.35510  Biso   1.000  H
  C288     1.0000 0.78150  0.47740  0.32880  Biso   1.000  C
  H192     1.0000 0.76380  0.44630  0.30770  Biso   1.000  H
  N85      1.0000 0.42430  0.00950  0.93980  Biso   1.000  N
  N86      1.0000 0.65460  0.83790  0.83790  Biso   1.000  N
  N87      1.0000 0.56320  0.49790  0.05300  Biso   1.000  N
  N88      1.0000 0.57940  0.72140  0.94290  Biso   1.000  N
  N89      1.0000 0.54280  0.84700  0.91290  Biso   1.000  N
  N90      1.0000 0.52460  0.76920  0.96870  Biso   1.000  N
  N91      1.0000 0.61270  0.47030  0.14630  Biso   1.000  N
  N92      1.0000 0.69850  0.01250  0.29180  Biso   1.000  N
  N93      1.0000 0.83670  0.47660  0.39030  Biso   1.000  N
  N94      1.0000 0.72260  0.56710  0.26940  Biso   1.000  N
  N95      1.0000 0.68570  0.69680  0.24750  Biso   1.000  N
  N96      1.0000 0.74200  0.70010  0.30620  Biso   1.000  N
  Zn22     1.0000 0.37661  0.08890  0.93599  Biso   1.000  Zn
  Zn23     1.0000 0.57160  0.40408  0.09989  Biso   1.000  Zn
  Zn24     1.0000 0.69110  0.14627  0.29739  Biso   1.000  Zn
  Br61     1.0000 0.76424  0.19810  0.34716  Biso   1.000  Br
  Br62     1.0000 0.63862  0.18250  0.21686  Biso   1.000  Br
  Br63     1.0000 0.74883  0.22421  0.31907  Biso   1.000  Br
  Br64     1.0000 0.66407  0.21080  0.23043  Biso   1.000  Br
