data_image0
_cell_length_a       34.72
_cell_length_b       14.7122
_cell_length_c       31.412
_cell_angle_alpha    90
_cell_angle_beta     103.293
_cell_angle_gamma    90

_symmetry_space_group_name_H-M    "P 1"
_symmetry_int_tables_number       1

loop_
  _symmetry_equiv_pos_as_xyz
  'x, y, z'

loop_
  _atom_site_label
  _atom_site_occupancy
  _atom_site_fract_x
  _atom_site_fract_y
  _atom_site_fract_z
  _atom_site_thermal_displace_type
  _atom_site_B_iso_or_equiv
  _atom_site_type_symbol
  Br1      1.0000 0.85854  0.53176  0.07102  Biso   1.000  Br
  Br2      1.0000 0.76874  0.63830  0.12363  Biso   1.000  Br
  Br3      1.0000 0.11920  0.68336  0.50840  Biso   1.000  Br
  Br4      1.0000 0.28500  0.43590  0.60522  Biso   1.000  Br
  Br5      1.0000 0.38906  0.49165  0.56969  Biso   1.000  Br
  Br6      1.0000 0.40757  0.58840  0.71016  Biso   1.000  Br
  Br7      1.0000 0.61808  0.36005  0.00844  Biso   1.000  Br
  Br8      1.0000 0.64334  0.51505  0.90694  Biso   1.000  Br
  Br9      1.0000 0.97952  0.98378  0.79331  Biso   1.000  Br
  Br10     1.0000 0.14017  0.53626  0.40222  Biso   1.000  Br
  Br11     1.0000 0.50237  0.54250  0.81100  Biso   1.000  Br
  Br12     1.0000 0.87828  0.06197  0.70157  Biso   1.000  Br
  C1       1.0000 0.86300  0.80440  0.15170  Biso   1.000  C
  H1       1.0000 0.84190  0.83350  0.13310  Biso   1.000  H
  C2       1.0000 0.88820  0.85760  0.18280  Biso   1.000  C
  H2       1.0000 0.88510  0.92020  0.18390  Biso   1.000  H
  C3       1.0000 0.91820  0.81290  0.21220  Biso   1.000  C
  C4       1.0000 0.92270  0.71760  0.20800  Biso   1.000  C
  H3       1.0000 0.94240  0.68510  0.22690  Biso   1.000  H
  C5       1.0000 0.89610  0.67610  0.17430  Biso   1.000  C
  H4       1.0000 0.89930  0.61400  0.17090  Biso   1.000  H
  C6       1.0000 0.94340  0.86650  0.24700  Biso   1.000  C
  C7       1.0000 0.96150  0.00100  0.27840  Biso   1.000  C
  C8       1.0000 0.99390  0.87450  0.30850  Biso   1.000  C
  C9       1.0000 0.95690  0.10080  0.27610  Biso   1.000  C
  C10      1.0000 0.93430  0.14170  0.24020  Biso   1.000  C
  H5       1.0000 0.92340  0.10640  0.21590  Biso   1.000  H
  C11      1.0000 0.92720  0.23180  0.23890  Biso   1.000  C
  H6       1.0000 0.91100  0.25610  0.21360  Biso   1.000  H
  C12      1.0000 0.96690  0.25060  0.30800  Biso   1.000  C
  H7       1.0000 0.97830  0.28970  0.33060  Biso   1.000  H
  C13      1.0000 0.97560  0.15890  0.31250  Biso   1.000  C
  H8       1.0000 0.99260  0.13560  0.33750  Biso   1.000  H
  C14      1.0000 0.02550  0.82980  0.34080  Biso   1.000  C
  C15      1.0000 0.05500  0.87650  0.36760  Biso   1.000  C
  H9       1.0000 0.05490  0.93970  0.36750  Biso   1.000  H
  C16      1.0000 0.08530  0.82920  0.39520  Biso   1.000  C
  H10      1.0000 0.10590  0.86160  0.41290  Biso   1.000  H
  C17      1.0000 0.05610  0.68980  0.37150  Biso   1.000  C
  H11      1.0000 0.05620  0.62680  0.37360  Biso   1.000  H
  C18      1.0000 0.02610  0.73250  0.34220  Biso   1.000  C
  H12      1.0000 0.00650  0.69880  0.32370  Biso   1.000  H
  C19      1.0000 0.19770  0.75110  0.40480  Biso   1.000  C
  H13      1.0000 0.18960  0.70750  0.38320  Biso   1.000  H
  C20      1.0000 0.22730  0.80740  0.40150  Biso   1.000  C
  H14      1.0000 0.23950  0.80150  0.37820  Biso   1.000  H
  C21      1.0000 0.23950  0.87340  0.43240  Biso   1.000  C
  C22      1.0000 0.22300  0.87600  0.47050  Biso   1.000  C
  H15      1.0000 0.23260  0.91540  0.49370  Biso   1.000  H
  C23      1.0000 0.19210  0.81640  0.47060  Biso   1.000  C
  H16      1.0000 0.17950  0.81810  0.49380  Biso   1.000  H
  C24      1.0000 0.27410  0.93690  0.43330  Biso   1.000  C
  C25      1.0000 0.31110  0.05910  0.45990  Biso   1.000  C
  C26      1.0000 0.32500  0.97570  0.40490  Biso   1.000  C
  C27      1.0000 0.35130  0.96070  0.37430  Biso   1.000  C
  C28      1.0000 0.39220  0.96780  0.39030  Biso   1.000  C
  H17      1.0000 0.40270  0.98660  0.41890  Biso   1.000  H
  C29      1.0000 0.41710  0.94630  0.36240  Biso   1.000  C
  H18      1.0000 0.44440  0.94900  0.37290  Biso   1.000  H
  C30      1.0000 0.36340  0.91550  0.30480  Biso   1.000  C
  H19      1.0000 0.35380  0.89850  0.27580  Biso   1.000  H
  C31      1.0000 0.33770  0.93430  0.33140  Biso   1.000  C
  H20      1.0000 0.31060  0.92900  0.32010  Biso   1.000  H
  C32      1.0000 0.31760  0.13770  0.48800  Biso   1.000  C
  C33      1.0000 0.28980  0.16690  0.50970  Biso   1.000  C
  H21      1.0000 0.26600  0.13570  0.50660  Biso   1.000  H
  C34      1.0000 0.29740  0.24440  0.53680  Biso   1.000  C
  H22      1.0000 0.27790  0.26470  0.55040  Biso   1.000  H
  C35      1.0000 0.36040  0.25990  0.52440  Biso   1.000  C
  H23      1.0000 0.38470  0.28960  0.53050  Biso   1.000  H
  C36      1.0000 0.35400  0.18280  0.49480  Biso   1.000  C
  H24      1.0000 0.37350  0.16400  0.48070  Biso   1.000  H
  C37      1.0000 0.37010  0.22810  0.64790  Biso   1.000  C
  H25      1.0000 0.35000  0.19870  0.62790  Biso   1.000  H
  C38      1.0000 0.39240  0.17780  0.68230  Biso   1.000  C
  H26      1.0000 0.38830  0.11560  0.68420  Biso   1.000  H
  C39      1.0000 0.42130  0.22190  0.71410  Biso   1.000  C
  C40      1.0000 0.42730  0.31440  0.70840  Biso   1.000  C
  H27      1.0000 0.44650  0.34610  0.72850  Biso   1.000  H
  C41      1.0000 0.40470  0.35780  0.67290  Biso   1.000  C
  H28      1.0000 0.40920  0.41950  0.66970  Biso   1.000  H
  C42      1.0000 0.44540  0.17310  0.75030  Biso   1.000  C
  C43      1.0000 0.46130  0.04080  0.78720  Biso   1.000  C
  C44      1.0000 0.49810  0.16740  0.80930  Biso   1.000  C
  C45      1.0000 0.45560  0.94320  0.79110  Biso   1.000  C
  C46      1.0000 0.42310  0.90230  0.76410  Biso   1.000  C
  H29      1.0000 0.40410  0.93760  0.74560  Biso   1.000  H
  C47      1.0000 0.41900  0.80760  0.76460  Biso   1.000  C
  H30      1.0000 0.39610  0.78150  0.74790  Biso   1.000  H
  C48      1.0000 0.47840  0.79410  0.81490  Biso   1.000  C
  H31      1.0000 0.49740  0.75730  0.83240  Biso   1.000  H
  C49      1.0000 0.48330  0.88580  0.81690  Biso   1.000  C
  H32      1.0000 0.50550  0.91040  0.83580  Biso   1.000  H
  C50      1.0000 0.53790  0.30520  0.82970  Biso   1.000  C
  H33      1.0000 0.52390  0.33500  0.80480  Biso   1.000  H
  C51      1.0000 0.52880  0.21510  0.83920  Biso   1.000  C
  C52      1.0000 0.55080  0.17540  0.87690  Biso   1.000  C
  H34      1.0000 0.54580  0.11550  0.88330  Biso   1.000  H
  C53      1.0000 0.58000  0.22300  0.90500  Biso   1.000  C
  H35      1.0000 0.59300  0.19540  0.93100  Biso   1.000  H
  C54      1.0000 0.56850  0.34720  0.85900  Biso   1.000  C
  H36      1.0000 0.57480  0.40670  0.85330  Biso   1.000  H
  C55      1.0000 0.68800  0.22480  0.96970  Biso   1.000  C
  H37      1.0000 0.66960  0.21330  0.98640  Biso   1.000  H
  C56      1.0000 0.71940  0.16350  0.97260  Biso   1.000  C
  H38      1.0000 0.72350  0.11540  0.99230  Biso   1.000  H
  C57      1.0000 0.74460  0.17960  0.94340  Biso   1.000  C
  C58      1.0000 0.74150  0.25580  0.91890  Biso   1.000  C
  H39      1.0000 0.75970  0.26760  0.90210  Biso   1.000  H
  C59      1.0000 0.70960  0.31910  0.91890  Biso   1.000  C
  H40      1.0000 0.70690  0.37180  0.90210  Biso   1.000  H
  C60      1.0000 0.77680  0.11160  0.94410  Biso   1.000  C
  C61      1.0000 0.80910  0.98540  0.96970  Biso   1.000  C
  C62      1.0000 0.82390  0.05520  0.91260  Biso   1.000  C
  C63      1.0000 0.81320  0.90230  0.99730  Biso   1.000  C
  C64      1.0000 0.78700  0.88970  0.02800  Biso   1.000  C
  H41      1.0000 0.76950  0.93460  0.03240  Biso   1.000  H
  C65      1.0000 0.79000  0.81150  0.04840  Biso   1.000  C
  H42      1.0000 0.76980  0.79750  0.06220  Biso   1.000  H
  C66      1.0000 0.84430  0.76490  0.02640  Biso   1.000  C
  H43      1.0000 0.86480  0.72340  0.02800  Biso   1.000  H
  C67      1.0000 0.84150  0.83740  0.99890  Biso   1.000  C
  H44      1.0000 0.85920  0.84270  0.98090  Biso   1.000  H
  C68      1.0000 0.84740  0.06400  0.87920  Biso   1.000  C
  C69      1.0000 0.88550  0.03010  0.88710  Biso   1.000  C
  H45      1.0000 0.89710  0.00500  0.91420  Biso   1.000  H
  C70      1.0000 0.90600  0.03370  0.85490  Biso   1.000  C
  H46      1.0000 0.93090  0.00690  0.86040  Biso   1.000  H
  C71      1.0000 0.85620  0.11190  0.80720  Biso   1.000  C
  H47      1.0000 0.84670  0.14190  0.78080  Biso   1.000  H
  C72      1.0000 0.83350  0.10490  0.83910  Biso   1.000  C
  H48      1.0000 0.80810  0.12900  0.83270  Biso   1.000  H
  N1       1.0000 0.86660  0.71480  0.14640  Biso   1.000  N
  N2       1.0000 0.94180  0.28660  0.27120  Biso   1.000  N
  N3       1.0000 0.08580  0.73880  0.39730  Biso   1.000  N
  N4       1.0000 0.97300  0.82220  0.27490  Biso   1.000  N
  N5       1.0000 0.93820  0.95670  0.24740  Biso   1.000  N
  N6       1.0000 0.99080  0.96410  0.31000  Biso   1.000  N
  N7       1.0000 0.17950  0.75480  0.43720  Biso   1.000  N
  N8       1.0000 0.40230  0.92240  0.32170  Biso   1.000  N
  N9       1.0000 0.33100  0.28890  0.54340  Biso   1.000  N
  N10      1.0000 0.29410  0.92070  0.40200  Biso   1.000  N
  N11      1.0000 0.28160  0.00180  0.46300  Biso   1.000  N
  N12      1.0000 0.33500  0.04510  0.43120  Biso   1.000  N
  N13      1.0000 0.37600  0.31730  0.64190  Biso   1.000  N
  N14      1.0000 0.44610  0.75400  0.78780  Biso   1.000  N
  N15      1.0000 0.59030  0.30510  0.89680  Biso   1.000  N
  N16      1.0000 0.47520  0.21580  0.77560  Biso   1.000  N
  N17      1.0000 0.43460  0.08560  0.75480  Biso   1.000  N
  N18      1.0000 0.49090  0.07880  0.81470  Biso   1.000  N
  N19      1.0000 0.68320  0.29890  0.94440  Biso   1.000  N
  N20      1.0000 0.81760  0.75200  0.05170  Biso   1.000  N
  N21      1.0000 0.89300  0.07240  0.81700  Biso   1.000  N
  N22      1.0000 0.79600  0.12100  0.91060  Biso   1.000  N
  N23      1.0000 0.78390  0.04870  0.97380  Biso   1.000  N
  N24      1.0000 0.83110  0.98830  0.93820  Biso   1.000  N
  Zn1      1.0000 0.82719  0.65179  0.09841  Biso   1.000  Zn
  Zn2      1.0000 0.13169  0.67195  0.43818  Biso   1.000  Zn
  Zn3      1.0000 0.34471  0.38874  0.58919  Biso   1.000  Zn
  Zn4      1.0000 0.44027  0.61384  0.78234  Biso   1.000  Zn
  Zn5      1.0000 0.63368  0.37606  0.93989  Biso   1.000  Zn
  Zn6      1.0000 0.92442  0.07718  0.76881  Biso   1.000  Zn
  Br13     1.0000 0.38950  0.60200  0.70320  Biso   1.000  Br
  Br14     1.0000 0.49270  0.53380  0.79930  Biso   1.000  Br
  Br15     1.0000 0.85854  0.96824  0.57102  Biso   1.000  Br
  Br16     1.0000 0.76874  0.86170  0.62363  Biso   1.000  Br
  Br17     1.0000 0.11920  0.81664  0.00840  Biso   1.000  Br
  Br18     1.0000 0.28500  0.06410  0.10522  Biso   1.000  Br
  Br19     1.0000 0.38906  0.00835  0.06969  Biso   1.000  Br
  Br20     1.0000 0.40757  0.91160  0.21016  Biso   1.000  Br
  Br21     1.0000 0.61808  0.13995  0.50844  Biso   1.000  Br
  Br22     1.0000 0.64334  0.98495  0.40694  Biso   1.000  Br
  Br23     1.0000 0.97952  0.51622  0.29331  Biso   1.000  Br
  Br24     1.0000 0.14017  0.96374  0.90222  Biso   1.000  Br
  Br25     1.0000 0.50237  0.95750  0.31100  Biso   1.000  Br
  Br26     1.0000 0.87828  0.43803  0.20157  Biso   1.000  Br
  C73      1.0000 0.86300  0.69560  0.65170  Biso   1.000  C
  H49      1.0000 0.84190  0.66650  0.63310  Biso   1.000  H
  C74      1.0000 0.88820  0.64240  0.68280  Biso   1.000  C
  H50      1.0000 0.88510  0.57980  0.68390  Biso   1.000  H
  C75      1.0000 0.91820  0.68710  0.71220  Biso   1.000  C
  C76      1.0000 0.92270  0.78240  0.70800  Biso   1.000  C
  H51      1.0000 0.94240  0.81490  0.72690  Biso   1.000  H
  C77      1.0000 0.89610  0.82390  0.67430  Biso   1.000  C
  H52      1.0000 0.89930  0.88600  0.67090  Biso   1.000  H
  C78      1.0000 0.94340  0.63350  0.74700  Biso   1.000  C
  C79      1.0000 0.96150  0.49900  0.77840  Biso   1.000  C
  C80      1.0000 0.99390  0.62550  0.80850  Biso   1.000  C
  C81      1.0000 0.95690  0.39920  0.77610  Biso   1.000  C
  C82      1.0000 0.93430  0.35830  0.74020  Biso   1.000  C
  H53      1.0000 0.92340  0.39360  0.71590  Biso   1.000  H
  C83      1.0000 0.92720  0.26820  0.73890  Biso   1.000  C
  H54      1.0000 0.91100  0.24390  0.71360  Biso   1.000  H
  C84      1.0000 0.96690  0.24940  0.80800  Biso   1.000  C
  H55      1.0000 0.97830  0.21030  0.83060  Biso   1.000  H
  C85      1.0000 0.97560  0.34110  0.81250  Biso   1.000  C
  H56      1.0000 0.99260  0.36440  0.83750  Biso   1.000  H
  C86      1.0000 0.02550  0.67020  0.84080  Biso   1.000  C
  C87      1.0000 0.05500  0.62350  0.86760  Biso   1.000  C
  H57      1.0000 0.05490  0.56030  0.86750  Biso   1.000  H
  C88      1.0000 0.08530  0.67080  0.89520  Biso   1.000  C
  H58      1.0000 0.10590  0.63840  0.91290  Biso   1.000  H
  C89      1.0000 0.05610  0.81020  0.87150  Biso   1.000  C
  H59      1.0000 0.05620  0.87320  0.87360  Biso   1.000  H
  C90      1.0000 0.02610  0.76750  0.84220  Biso   1.000  C
  H60      1.0000 0.00650  0.80120  0.82370  Biso   1.000  H
  C91      1.0000 0.19770  0.74890  0.90480  Biso   1.000  C
  H61      1.0000 0.18960  0.79250  0.88320  Biso   1.000  H
  C92      1.0000 0.22730  0.69260  0.90150  Biso   1.000  C
  H62      1.0000 0.23950  0.69850  0.87820  Biso   1.000  H
  C93      1.0000 0.23950  0.62660  0.93240  Biso   1.000  C
  C94      1.0000 0.22300  0.62400  0.97050  Biso   1.000  C
  H63      1.0000 0.23260  0.58460  0.99370  Biso   1.000  H
  C95      1.0000 0.19210  0.68360  0.97060  Biso   1.000  C
  H64      1.0000 0.17950  0.68190  0.99380  Biso   1.000  H
  C96      1.0000 0.27410  0.56310  0.93330  Biso   1.000  C
  C97      1.0000 0.31110  0.44090  0.95990  Biso   1.000  C
  C98      1.0000 0.32500  0.52430  0.90490  Biso   1.000  C
  C99      1.0000 0.35130  0.53930  0.87430  Biso   1.000  C
  C100     1.0000 0.39220  0.53220  0.89030  Biso   1.000  C
  H65      1.0000 0.40270  0.51340  0.91890  Biso   1.000  H
  C101     1.0000 0.41710  0.55370  0.86240  Biso   1.000  C
  H66      1.0000 0.44440  0.55100  0.87290  Biso   1.000  H
  C102     1.0000 0.36340  0.58450  0.80480  Biso   1.000  C
  H67      1.0000 0.35380  0.60150  0.77580  Biso   1.000  H
  C103     1.0000 0.33770  0.56570  0.83140  Biso   1.000  C
  H68      1.0000 0.31060  0.57100  0.82010  Biso   1.000  H
  C104     1.0000 0.31760  0.36230  0.98800  Biso   1.000  C
  C105     1.0000 0.28980  0.33310  0.00970  Biso   1.000  C
  H69      1.0000 0.26600  0.36430  0.00660  Biso   1.000  H
  C106     1.0000 0.29740  0.25560  0.03680  Biso   1.000  C
  H70      1.0000 0.27790  0.23530  0.05040  Biso   1.000  H
  C107     1.0000 0.36040  0.24010  0.02440  Biso   1.000  C
  H71      1.0000 0.38470  0.21040  0.03050  Biso   1.000  H
  C108     1.0000 0.35400  0.31720  0.99480  Biso   1.000  C
  H72      1.0000 0.37350  0.33600  0.98070  Biso   1.000  H
  C109     1.0000 0.37010  0.27190  0.14790  Biso   1.000  C
  H73      1.0000 0.35000  0.30130  0.12790  Biso   1.000  H
  C110     1.0000 0.39240  0.32220  0.18230  Biso   1.000  C
  H74      1.0000 0.38830  0.38440  0.18420  Biso   1.000  H
  C111     1.0000 0.42130  0.27810  0.21410  Biso   1.000  C
  C112     1.0000 0.42730  0.18560  0.20840  Biso   1.000  C
  H75      1.0000 0.44650  0.15390  0.22850  Biso   1.000  H
  C113     1.0000 0.40470  0.14220  0.17290  Biso   1.000  C
  H76      1.0000 0.40920  0.08050  0.16970  Biso   1.000  H
  C114     1.0000 0.44540  0.32690  0.25030  Biso   1.000  C
  C115     1.0000 0.46130  0.45920  0.28720  Biso   1.000  C
  C116     1.0000 0.49810  0.33260  0.30930  Biso   1.000  C
  C117     1.0000 0.45560  0.55680  0.29110  Biso   1.000  C
  C118     1.0000 0.42310  0.59770  0.26410  Biso   1.000  C
  H77      1.0000 0.40410  0.56240  0.24560  Biso   1.000  H
  C119     1.0000 0.41900  0.69240  0.26460  Biso   1.000  C
  H78      1.0000 0.39610  0.71850  0.24790  Biso   1.000  H
  C120     1.0000 0.47840  0.70590  0.31490  Biso   1.000  C
  H79      1.0000 0.49740  0.74270  0.33240  Biso   1.000  H
  C121     1.0000 0.48330  0.61420  0.31690  Biso   1.000  C
  H80      1.0000 0.50550  0.58960  0.33580  Biso   1.000  H
  C122     1.0000 0.53790  0.19480  0.32970  Biso   1.000  C
  H81      1.0000 0.52390  0.16500  0.30480  Biso   1.000  H
  C123     1.0000 0.52880  0.28490  0.33920  Biso   1.000  C
  C124     1.0000 0.55080  0.32460  0.37690  Biso   1.000  C
  H82      1.0000 0.54580  0.38450  0.38330  Biso   1.000  H
  C125     1.0000 0.58000  0.27700  0.40500  Biso   1.000  C
  H83      1.0000 0.59300  0.30460  0.43100  Biso   1.000  H
  C126     1.0000 0.56850  0.15280  0.35900  Biso   1.000  C
  H84      1.0000 0.57480  0.09330  0.35330  Biso   1.000  H
  C127     1.0000 0.68800  0.27520  0.46970  Biso   1.000  C
  H85      1.0000 0.66960  0.28670  0.48640  Biso   1.000  H
  C128     1.0000 0.71940  0.33650  0.47260  Biso   1.000  C
  H86      1.0000 0.72350  0.38460  0.49230  Biso   1.000  H
  C129     1.0000 0.74460  0.32040  0.44340  Biso   1.000  C
  C130     1.0000 0.74150  0.24420  0.41890  Biso   1.000  C
  H87      1.0000 0.75970  0.23240  0.40210  Biso   1.000  H
  C131     1.0000 0.70960  0.18090  0.41890  Biso   1.000  C
  H88      1.0000 0.70690  0.12820  0.40210  Biso   1.000  H
  C132     1.0000 0.77680  0.38840  0.44410  Biso   1.000  C
  C133     1.0000 0.80910  0.51460  0.46970  Biso   1.000  C
  C134     1.0000 0.82390  0.44480  0.41260  Biso   1.000  C
  C135     1.0000 0.81320  0.59770  0.49730  Biso   1.000  C
  C136     1.0000 0.78700  0.61030  0.52800  Biso   1.000  C
  H89      1.0000 0.76950  0.56540  0.53240  Biso   1.000  H
  C137     1.0000 0.79000  0.68850  0.54840  Biso   1.000  C
  H90      1.0000 0.76980  0.70250  0.56220  Biso   1.000  H
  C138     1.0000 0.84430  0.73510  0.52640  Biso   1.000  C
  H91      1.0000 0.86480  0.77660  0.52800  Biso   1.000  H
  C139     1.0000 0.84150  0.66260  0.49890  Biso   1.000  C
  H92      1.0000 0.85920  0.65730  0.48090  Biso   1.000  H
  C140     1.0000 0.84740  0.43600  0.37920  Biso   1.000  C
  C141     1.0000 0.88550  0.46990  0.38710  Biso   1.000  C
  H93      1.0000 0.89710  0.49500  0.41420  Biso   1.000  H
  C142     1.0000 0.90600  0.46630  0.35490  Biso   1.000  C
  H94      1.0000 0.93090  0.49310  0.36040  Biso   1.000  H
  C143     1.0000 0.85620  0.38810  0.30720  Biso   1.000  C
  H95      1.0000 0.84670  0.35810  0.28080  Biso   1.000  H
  C144     1.0000 0.83350  0.39510  0.33910  Biso   1.000  C
  H96      1.0000 0.80810  0.37100  0.33270  Biso   1.000  H
  N25      1.0000 0.86660  0.78520  0.64640  Biso   1.000  N
  N26      1.0000 0.94180  0.21340  0.77120  Biso   1.000  N
  N27      1.0000 0.08580  0.76120  0.89730  Biso   1.000  N
  N28      1.0000 0.97300  0.67780  0.77490  Biso   1.000  N
  N29      1.0000 0.93820  0.54330  0.74740  Biso   1.000  N
  N30      1.0000 0.99080  0.53590  0.81000  Biso   1.000  N
  N31      1.0000 0.17950  0.74520  0.93720  Biso   1.000  N
  N32      1.0000 0.40230  0.57760  0.82170  Biso   1.000  N
  N33      1.0000 0.33100  0.21110  0.04340  Biso   1.000  N
  N34      1.0000 0.29410  0.57930  0.90200  Biso   1.000  N
  N35      1.0000 0.28160  0.49820  0.96300  Biso   1.000  N
  N36      1.0000 0.33500  0.45490  0.93120  Biso   1.000  N
  N37      1.0000 0.37600  0.18270  0.14190  Biso   1.000  N
  N38      1.0000 0.44610  0.74600  0.28780  Biso   1.000  N
  N39      1.0000 0.59030  0.19490  0.39680  Biso   1.000  N
  N40      1.0000 0.47520  0.28420  0.27560  Biso   1.000  N
  N41      1.0000 0.43460  0.41440  0.25480  Biso   1.000  N
  N42      1.0000 0.49090  0.42120  0.31470  Biso   1.000  N
  N43      1.0000 0.68320  0.20110  0.44440  Biso   1.000  N
  N44      1.0000 0.81760  0.74800  0.55170  Biso   1.000  N
  N45      1.0000 0.89300  0.42760  0.31700  Biso   1.000  N
  N46      1.0000 0.79600  0.37900  0.41060  Biso   1.000  N
  N47      1.0000 0.78390  0.45130  0.47380  Biso   1.000  N
  N48      1.0000 0.83110  0.51170  0.43820  Biso   1.000  N
  Zn7      1.0000 0.82719  0.84821  0.59841  Biso   1.000  Zn
  Zn8      1.0000 0.13169  0.82805  0.93818  Biso   1.000  Zn
  Zn9      1.0000 0.34471  0.11126  0.08919  Biso   1.000  Zn
  Zn10     1.0000 0.44027  0.88616  0.28234  Biso   1.000  Zn
  Zn11     1.0000 0.63368  0.12394  0.43989  Biso   1.000  Zn
  Zn12     1.0000 0.92442  0.42282  0.26881  Biso   1.000  Zn
  Br27     1.0000 0.38950  0.89800  0.20320  Biso   1.000  Br
  Br28     1.0000 0.49270  0.96620  0.29930  Biso   1.000  Br
  Br29     1.0000 0.14146  0.03176  0.42898  Biso   1.000  Br
  Br30     1.0000 0.23126  0.13830  0.37637  Biso   1.000  Br
  Br31     1.0000 0.88080  0.18336  0.99160  Biso   1.000  Br
  Br32     1.0000 0.71500  0.93590  0.89478  Biso   1.000  Br
  Br33     1.0000 0.61094  0.99165  0.93031  Biso   1.000  Br
  Br34     1.0000 0.59243  0.08840  0.78984  Biso   1.000  Br
  Br35     1.0000 0.38192  0.86005  0.49156  Biso   1.000  Br
  Br36     1.0000 0.35666  0.01505  0.59306  Biso   1.000  Br
  Br37     1.0000 0.02048  0.48378  0.70669  Biso   1.000  Br
  Br38     1.0000 0.85983  0.03626  0.09778  Biso   1.000  Br
  Br39     1.0000 0.49763  0.04250  0.68900  Biso   1.000  Br
  Br40     1.0000 0.12172  0.56197  0.79843  Biso   1.000  Br
  C145     1.0000 0.13700  0.30440  0.34830  Biso   1.000  C
  H97      1.0000 0.15810  0.33350  0.36690  Biso   1.000  H
  C146     1.0000 0.11180  0.35760  0.31720  Biso   1.000  C
  H98      1.0000 0.11490  0.42020  0.31610  Biso   1.000  H
  C147     1.0000 0.08180  0.31290  0.28780  Biso   1.000  C
  C148     1.0000 0.07730  0.21760  0.29200  Biso   1.000  C
  H99      1.0000 0.05760  0.18510  0.27310  Biso   1.000  H
  C149     1.0000 0.10390  0.17610  0.32570  Biso   1.000  C
  H100     1.0000 0.10070  0.11400  0.32910  Biso   1.000  H
  C150     1.0000 0.05660  0.36650  0.25300  Biso   1.000  C
  C151     1.0000 0.03850  0.50100  0.22160  Biso   1.000  C
  C152     1.0000 0.00610  0.37450  0.19150  Biso   1.000  C
  C153     1.0000 0.04310  0.60080  0.22390  Biso   1.000  C
  C154     1.0000 0.06570  0.64170  0.25980  Biso   1.000  C
  H101     1.0000 0.07660  0.60640  0.28410  Biso   1.000  H
  C155     1.0000 0.07280  0.73180  0.26110  Biso   1.000  C
  H102     1.0000 0.08900  0.75610  0.28640  Biso   1.000  H
  C156     1.0000 0.03310  0.75060  0.19200  Biso   1.000  C
  H103     1.0000 0.02170  0.78970  0.16940  Biso   1.000  H
  C157     1.0000 0.02440  0.65890  0.18750  Biso   1.000  C
  H104     1.0000 0.00740  0.63560  0.16250  Biso   1.000  H
  C158     1.0000 0.97450  0.32980  0.15920  Biso   1.000  C
  C159     1.0000 0.94500  0.37650  0.13240  Biso   1.000  C
  H105     1.0000 0.94510  0.43970  0.13250  Biso   1.000  H
  C160     1.0000 0.91470  0.32920  0.10480  Biso   1.000  C
  H106     1.0000 0.89410  0.36160  0.08710  Biso   1.000  H
  C161     1.0000 0.94390  0.18980  0.12850  Biso   1.000  C
  H107     1.0000 0.94380  0.12680  0.12640  Biso   1.000  H
  C162     1.0000 0.97390  0.23250  0.15780  Biso   1.000  C
  H108     1.0000 0.99350  0.19880  0.17630  Biso   1.000  H
  C163     1.0000 0.80230  0.25110  0.09520  Biso   1.000  C
  H109     1.0000 0.81040  0.20750  0.11680  Biso   1.000  H
  C164     1.0000 0.77270  0.30740  0.09850  Biso   1.000  C
  H110     1.0000 0.76050  0.30150  0.12180  Biso   1.000  H
  C165     1.0000 0.76050  0.37340  0.06760  Biso   1.000  C
  C166     1.0000 0.77700  0.37600  0.02950  Biso   1.000  C
  H111     1.0000 0.76740  0.41540  0.00630  Biso   1.000  H
  C167     1.0000 0.80790  0.31640  0.02940  Biso   1.000  C
  H112     1.0000 0.82050  0.31810  0.00620  Biso   1.000  H
  C168     1.0000 0.72590  0.43690  0.06670  Biso   1.000  C
  C169     1.0000 0.68890  0.55910  0.04010  Biso   1.000  C
  C170     1.0000 0.67500  0.47570  0.09510  Biso   1.000  C
  C171     1.0000 0.64870  0.46070  0.12570  Biso   1.000  C
  C172     1.0000 0.60780  0.46780  0.10970  Biso   1.000  C
  H113     1.0000 0.59730  0.48660  0.08110  Biso   1.000  H
  C173     1.0000 0.58290  0.44630  0.13760  Biso   1.000  C
  H114     1.0000 0.55560  0.44900  0.12710  Biso   1.000  H
  C174     1.0000 0.63660  0.41550  0.19520  Biso   1.000  C
  H115     1.0000 0.64620  0.39850  0.22420  Biso   1.000  H
  C175     1.0000 0.66230  0.43430  0.16860  Biso   1.000  C
  H116     1.0000 0.68940  0.42900  0.17990  Biso   1.000  H
  C176     1.0000 0.68240  0.63770  0.01200  Biso   1.000  C
  C177     1.0000 0.71020  0.66690  0.99030  Biso   1.000  C
  H117     1.0000 0.73400  0.63570  0.99340  Biso   1.000  H
  C178     1.0000 0.70260  0.74440  0.96320  Biso   1.000  C
  H118     1.0000 0.72210  0.76470  0.94960  Biso   1.000  H
  C179     1.0000 0.63960  0.75990  0.97560  Biso   1.000  C
  H119     1.0000 0.61530  0.78960  0.96950  Biso   1.000  H
  C180     1.0000 0.64600  0.68280  0.00520  Biso   1.000  C
  H120     1.0000 0.62650  0.66400  0.01930  Biso   1.000  H
  C181     1.0000 0.62990  0.72810  0.85210  Biso   1.000  C
  H121     1.0000 0.65000  0.69870  0.87210  Biso   1.000  H
  C182     1.0000 0.60760  0.67780  0.81770  Biso   1.000  C
  H122     1.0000 0.61170  0.61560  0.81580  Biso   1.000  H
  C183     1.0000 0.57870  0.72190  0.78590  Biso   1.000  C
  C184     1.0000 0.57270  0.81440  0.79160  Biso   1.000  C
  H123     1.0000 0.55350  0.84610  0.77150  Biso   1.000  H
  C185     1.0000 0.59530  0.85780  0.82710  Biso   1.000  C
  H124     1.0000 0.59080  0.91950  0.83030  Biso   1.000  H
  C186     1.0000 0.55460  0.67310  0.74970  Biso   1.000  C
  C187     1.0000 0.53870  0.54080  0.71280  Biso   1.000  C
  C188     1.0000 0.50190  0.66740  0.69070  Biso   1.000  C
  C189     1.0000 0.54440  0.44320  0.70890  Biso   1.000  C
  C190     1.0000 0.57690  0.40230  0.73590  Biso   1.000  C
  H125     1.0000 0.59590  0.43760  0.75440  Biso   1.000  H
  C191     1.0000 0.58100  0.30760  0.73540  Biso   1.000  C
  H126     1.0000 0.60390  0.28150  0.75210  Biso   1.000  H
  C192     1.0000 0.52160  0.29410  0.68510  Biso   1.000  C
  H127     1.0000 0.50260  0.25730  0.66760  Biso   1.000  H
  C193     1.0000 0.51670  0.38580  0.68310  Biso   1.000  C
  H128     1.0000 0.49450  0.41040  0.66420  Biso   1.000  H
  C194     1.0000 0.46210  0.80520  0.67030  Biso   1.000  C
  H129     1.0000 0.47610  0.83500  0.69520  Biso   1.000  H
  C195     1.0000 0.47120  0.71510  0.66080  Biso   1.000  C
  C196     1.0000 0.44920  0.67540  0.62310  Biso   1.000  C
  H130     1.0000 0.45420  0.61550  0.61670  Biso   1.000  H
  C197     1.0000 0.42000  0.72300  0.59500  Biso   1.000  C
  H131     1.0000 0.40700  0.69540  0.56900  Biso   1.000  H
  C198     1.0000 0.43150  0.84720  0.64100  Biso   1.000  C
  H132     1.0000 0.42520  0.90670  0.64670  Biso   1.000  H
  C199     1.0000 0.31200  0.72480  0.53030  Biso   1.000  C
  H133     1.0000 0.33040  0.71330  0.51360  Biso   1.000  H
  C200     1.0000 0.28060  0.66350  0.52740  Biso   1.000  C
  H134     1.0000 0.27650  0.61540  0.50770  Biso   1.000  H
  C201     1.0000 0.25540  0.67960  0.55660  Biso   1.000  C
  C202     1.0000 0.25850  0.75580  0.58110  Biso   1.000  C
  H135     1.0000 0.24030  0.76760  0.59790  Biso   1.000  H
  C203     1.0000 0.29040  0.81910  0.58110  Biso   1.000  C
  H136     1.0000 0.29310  0.87180  0.59790  Biso   1.000  H
  C204     1.0000 0.22320  0.61160  0.55590  Biso   1.000  C
  C205     1.0000 0.19090  0.48540  0.53030  Biso   1.000  C
  C206     1.0000 0.17610  0.55520  0.58740  Biso   1.000  C
  C207     1.0000 0.18680  0.40230  0.50270  Biso   1.000  C
  C208     1.0000 0.21300  0.38970  0.47200  Biso   1.000  C
  H137     1.0000 0.23050  0.43460  0.46760  Biso   1.000  H
  C209     1.0000 0.21000  0.31150  0.45160  Biso   1.000  C
  H138     1.0000 0.23020  0.29750  0.43780  Biso   1.000  H
  C210     1.0000 0.15570  0.26490  0.47360  Biso   1.000  C
  H139     1.0000 0.13520  0.22340  0.47200  Biso   1.000  H
  C211     1.0000 0.15850  0.33740  0.50110  Biso   1.000  C
  H140     1.0000 0.14080  0.34270  0.51910  Biso   1.000  H
  C212     1.0000 0.15260  0.56400  0.62080  Biso   1.000  C
  C213     1.0000 0.11450  0.53010  0.61290  Biso   1.000  C
  H141     1.0000 0.10290  0.50500  0.58580  Biso   1.000  H
  C214     1.0000 0.09400  0.53370  0.64510  Biso   1.000  C
  H142     1.0000 0.06910  0.50690  0.63960  Biso   1.000  H
  C215     1.0000 0.14380  0.61190  0.69280  Biso   1.000  C
  H143     1.0000 0.15330  0.64190  0.71920  Biso   1.000  H
  C216     1.0000 0.16650  0.60490  0.66090  Biso   1.000  C
  H144     1.0000 0.19190  0.62900  0.66730  Biso   1.000  H
  N49      1.0000 0.13340  0.21480  0.35360  Biso   1.000  N
  N50      1.0000 0.05820  0.78660  0.22880  Biso   1.000  N
  N51      1.0000 0.91420  0.23880  0.10270  Biso   1.000  N
  N52      1.0000 0.02700  0.32220  0.22510  Biso   1.000  N
  N53      1.0000 0.06180  0.45670  0.25260  Biso   1.000  N
  N54      1.0000 0.00920  0.46410  0.19000  Biso   1.000  N
  N55      1.0000 0.82050  0.25480  0.06280  Biso   1.000  N
  N56      1.0000 0.59770  0.42240  0.17830  Biso   1.000  N
  N57      1.0000 0.66900  0.78890  0.95660  Biso   1.000  N
  N58      1.0000 0.70590  0.42070  0.09800  Biso   1.000  N
  N59      1.0000 0.71840  0.50180  0.03700  Biso   1.000  N
  N60      1.0000 0.66500  0.54510  0.06880  Biso   1.000  N
  N61      1.0000 0.62400  0.81730  0.85810  Biso   1.000  N
  N62      1.0000 0.55390  0.25400  0.71220  Biso   1.000  N
  N63      1.0000 0.40970  0.80510  0.60320  Biso   1.000  N
  N64      1.0000 0.52480  0.71580  0.72440  Biso   1.000  N
  N65      1.0000 0.56540  0.58560  0.74520  Biso   1.000  N
  N66      1.0000 0.50910  0.57880  0.68530  Biso   1.000  N
  N67      1.0000 0.31680  0.79890  0.55560  Biso   1.000  N
  N68      1.0000 0.18240  0.25200  0.44830  Biso   1.000  N
  N69      1.0000 0.10700  0.57240  0.68300  Biso   1.000  N
  N70      1.0000 0.20400  0.62100  0.58940  Biso   1.000  N
  N71      1.0000 0.21610  0.54870  0.52620  Biso   1.000  N
  N72      1.0000 0.16890  0.48830  0.56180  Biso   1.000  N
  Zn13     1.0000 0.17281  0.15179  0.40159  Biso   1.000  Zn
  Zn14     1.0000 0.86831  0.17195  0.06182  Biso   1.000  Zn
  Zn15     1.0000 0.65529  0.88874  0.91081  Biso   1.000  Zn
  Zn16     1.0000 0.55973  0.11384  0.71766  Biso   1.000  Zn
  Zn17     1.0000 0.36632  0.87606  0.56011  Biso   1.000  Zn
  Zn18     1.0000 0.07558  0.57718  0.73119  Biso   1.000  Zn
  Br41     1.0000 0.61050  0.10200  0.79680  Biso   1.000  Br
  Br42     1.0000 0.50730  0.03380  0.70070  Biso   1.000  Br
  Br43     1.0000 0.14146  0.46824  0.92898  Biso   1.000  Br
  Br44     1.0000 0.23126  0.36170  0.87637  Biso   1.000  Br
  Br45     1.0000 0.88080  0.31664  0.49160  Biso   1.000  Br
  Br46     1.0000 0.71500  0.56410  0.39478  Biso   1.000  Br
  Br47     1.0000 0.61094  0.50835  0.43031  Biso   1.000  Br
  Br48     1.0000 0.59243  0.41160  0.28984  Biso   1.000  Br
  Br49     1.0000 0.38192  0.63995  0.99156  Biso   1.000  Br
  Br50     1.0000 0.35666  0.48495  0.09306  Biso   1.000  Br
  Br51     1.0000 0.02048  0.01622  0.20669  Biso   1.000  Br
  Br52     1.0000 0.85983  0.46374  0.59778  Biso   1.000  Br
  Br53     1.0000 0.49763  0.45750  0.18900  Biso   1.000  Br
  Br54     1.0000 0.12172  0.93803  0.29843  Biso   1.000  Br
  C217     1.0000 0.13700  0.19560  0.84830  Biso   1.000  C
  H145     1.0000 0.15810  0.16650  0.86690  Biso   1.000  H
  C218     1.0000 0.11180  0.14240  0.81720  Biso   1.000  C
  H146     1.0000 0.11490  0.07980  0.81610  Biso   1.000  H
  C219     1.0000 0.08180  0.18710  0.78780  Biso   1.000  C
  C220     1.0000 0.07730  0.28240  0.79200  Biso   1.000  C
  H147     1.0000 0.05760  0.31490  0.77310  Biso   1.000  H
  C221     1.0000 0.10390  0.32390  0.82570  Biso   1.000  C
  H148     1.0000 0.10070  0.38600  0.82910  Biso   1.000  H
  C222     1.0000 0.05660  0.13350  0.75300  Biso   1.000  C
  C223     1.0000 0.03850  0.99900  0.72160  Biso   1.000  C
  C224     1.0000 0.00610  0.12550  0.69150  Biso   1.000  C
  C225     1.0000 0.04310  0.89920  0.72390  Biso   1.000  C
  C226     1.0000 0.06570  0.85830  0.75980  Biso   1.000  C
  H149     1.0000 0.07660  0.89360  0.78410  Biso   1.000  H
  C227     1.0000 0.07280  0.76820  0.76110  Biso   1.000  C
  H150     1.0000 0.08900  0.74390  0.78640  Biso   1.000  H
  C228     1.0000 0.03310  0.74940  0.69200  Biso   1.000  C
  H151     1.0000 0.02170  0.71030  0.66940  Biso   1.000  H
  C229     1.0000 0.02440  0.84110  0.68750  Biso   1.000  C
  H152     1.0000 0.00740  0.86440  0.66250  Biso   1.000  H
  C230     1.0000 0.97450  0.17020  0.65920  Biso   1.000  C
  C231     1.0000 0.94500  0.12350  0.63240  Biso   1.000  C
  H153     1.0000 0.94510  0.06030  0.63250  Biso   1.000  H
  C232     1.0000 0.91470  0.17080  0.60480  Biso   1.000  C
  H154     1.0000 0.89410  0.13840  0.58710  Biso   1.000  H
  C233     1.0000 0.94390  0.31020  0.62850  Biso   1.000  C
  H155     1.0000 0.94380  0.37320  0.62640  Biso   1.000  H
  C234     1.0000 0.97390  0.26750  0.65780  Biso   1.000  C
  H156     1.0000 0.99350  0.30120  0.67630  Biso   1.000  H
  C235     1.0000 0.80230  0.24890  0.59520  Biso   1.000  C
  H157     1.0000 0.81040  0.29250  0.61680  Biso   1.000  H
  C236     1.0000 0.77270  0.19260  0.59850  Biso   1.000  C
  H158     1.0000 0.76050  0.19850  0.62180  Biso   1.000  H
  C237     1.0000 0.76050  0.12660  0.56760  Biso   1.000  C
  C238     1.0000 0.77700  0.12400  0.52950  Biso   1.000  C
  H159     1.0000 0.76740  0.08460  0.50630  Biso   1.000  H
  C239     1.0000 0.80790  0.18360  0.52940  Biso   1.000  C
  H160     1.0000 0.82050  0.18190  0.50620  Biso   1.000  H
  C240     1.0000 0.72590  0.06310  0.56670  Biso   1.000  C
  C241     1.0000 0.68890  0.94090  0.54010  Biso   1.000  C
  C242     1.0000 0.67500  0.02430  0.59510  Biso   1.000  C
  C243     1.0000 0.64870  0.03930  0.62570  Biso   1.000  C
  C244     1.0000 0.60780  0.03220  0.60970  Biso   1.000  C
  H161     1.0000 0.59730  0.01340  0.58110  Biso   1.000  H
  C245     1.0000 0.58290  0.05370  0.63760  Biso   1.000  C
  H162     1.0000 0.55560  0.05100  0.62710  Biso   1.000  H
  C246     1.0000 0.63660  0.08450  0.69520  Biso   1.000  C
  H163     1.0000 0.64620  0.10150  0.72420  Biso   1.000  H
  C247     1.0000 0.66230  0.06570  0.66860  Biso   1.000  C
  H164     1.0000 0.68940  0.07100  0.67990  Biso   1.000  H
  C248     1.0000 0.68240  0.86230  0.51200  Biso   1.000  C
  C249     1.0000 0.71020  0.83310  0.49030  Biso   1.000  C
  H165     1.0000 0.73400  0.86430  0.49340  Biso   1.000  H
  C250     1.0000 0.70260  0.75560  0.46320  Biso   1.000  C
  H166     1.0000 0.72210  0.73530  0.44960  Biso   1.000  H
  C251     1.0000 0.63960  0.74010  0.47560  Biso   1.000  C
  H167     1.0000 0.61530  0.71040  0.46950  Biso   1.000  H
  C252     1.0000 0.64600  0.81720  0.50520  Biso   1.000  C
  H168     1.0000 0.62650  0.83600  0.51930  Biso   1.000  H
  C253     1.0000 0.62990  0.77190  0.35210  Biso   1.000  C
  H169     1.0000 0.65000  0.80130  0.37210  Biso   1.000  H
  C254     1.0000 0.60760  0.82220  0.31770  Biso   1.000  C
  H170     1.0000 0.61170  0.88440  0.31580  Biso   1.000  H
  C255     1.0000 0.57870  0.77810  0.28590  Biso   1.000  C
  C256     1.0000 0.57270  0.68560  0.29160  Biso   1.000  C
  H171     1.0000 0.55350  0.65390  0.27150  Biso   1.000  H
  C257     1.0000 0.59530  0.64220  0.32710  Biso   1.000  C
  H172     1.0000 0.59080  0.58050  0.33030  Biso   1.000  H
  C258     1.0000 0.55460  0.82690  0.24970  Biso   1.000  C
  C259     1.0000 0.53870  0.95920  0.21280  Biso   1.000  C
  C260     1.0000 0.50190  0.83260  0.19070  Biso   1.000  C
  C261     1.0000 0.54440  0.05680  0.20890  Biso   1.000  C
  C262     1.0000 0.57690  0.09770  0.23590  Biso   1.000  C
  H173     1.0000 0.59590  0.06240  0.25440  Biso   1.000  H
  C263     1.0000 0.58100  0.19240  0.23540  Biso   1.000  C
  H174     1.0000 0.60390  0.21850  0.25210  Biso   1.000  H
  C264     1.0000 0.52160  0.20590  0.18510  Biso   1.000  C
  H175     1.0000 0.50260  0.24270  0.16760  Biso   1.000  H
  C265     1.0000 0.51670  0.11420  0.18310  Biso   1.000  C
  H176     1.0000 0.49450  0.08960  0.16420  Biso   1.000  H
  C266     1.0000 0.46210  0.69480  0.17030  Biso   1.000  C
  H177     1.0000 0.47610  0.66500  0.19520  Biso   1.000  H
  C267     1.0000 0.47120  0.78490  0.16080  Biso   1.000  C
  C268     1.0000 0.44920  0.82460  0.12310  Biso   1.000  C
  H178     1.0000 0.45420  0.88450  0.11670  Biso   1.000  H
  C269     1.0000 0.42000  0.77700  0.09500  Biso   1.000  C
  H179     1.0000 0.40700  0.80460  0.06900  Biso   1.000  H
  C270     1.0000 0.43150  0.65280  0.14100  Biso   1.000  C
  H180     1.0000 0.42520  0.59330  0.14670  Biso   1.000  H
  C271     1.0000 0.31200  0.77520  0.03030  Biso   1.000  C
  H181     1.0000 0.33040  0.78670  0.01360  Biso   1.000  H
  C272     1.0000 0.28060  0.83650  0.02740  Biso   1.000  C
  H182     1.0000 0.27650  0.88460  0.00770  Biso   1.000  H
  C273     1.0000 0.25540  0.82040  0.05660  Biso   1.000  C
  C274     1.0000 0.25850  0.74420  0.08110  Biso   1.000  C
  H183     1.0000 0.24030  0.73240  0.09790  Biso   1.000  H
  C275     1.0000 0.29040  0.68090  0.08110  Biso   1.000  C
  H184     1.0000 0.29310  0.62820  0.09790  Biso   1.000  H
  C276     1.0000 0.22320  0.88840  0.05590  Biso   1.000  C
  C277     1.0000 0.19090  0.01460  0.03030  Biso   1.000  C
  C278     1.0000 0.17610  0.94480  0.08740  Biso   1.000  C
  C279     1.0000 0.18680  0.09770  0.00270  Biso   1.000  C
  C280     1.0000 0.21300  0.11030  0.97200  Biso   1.000  C
  H185     1.0000 0.23050  0.06540  0.96760  Biso   1.000  H
  C281     1.0000 0.21000  0.18850  0.95160  Biso   1.000  C
  H186     1.0000 0.23020  0.20250  0.93780  Biso   1.000  H
  C282     1.0000 0.15570  0.23510  0.97360  Biso   1.000  C
  H187     1.0000 0.13520  0.27660  0.97200  Biso   1.000  H
  C283     1.0000 0.15850  0.16260  0.00110  Biso   1.000  C
  H188     1.0000 0.14080  0.15730  0.01910  Biso   1.000  H
  C284     1.0000 0.15260  0.93600  0.12080  Biso   1.000  C
  C285     1.0000 0.11450  0.96990  0.11290  Biso   1.000  C
  H189     1.0000 0.10290  0.99500  0.08580  Biso   1.000  H
  C286     1.0000 0.09400  0.96630  0.14510  Biso   1.000  C
  H190     1.0000 0.06910  0.99310  0.13960  Biso   1.000  H
  C287     1.0000 0.14380  0.88810  0.19280  Biso   1.000  C
  H191     1.0000 0.15330  0.85810  0.21920  Biso   1.000  H
  C288     1.0000 0.16650  0.89510  0.16090  Biso   1.000  C
  H192     1.0000 0.19190  0.87100  0.16730  Biso   1.000  H
  N73      1.0000 0.13340  0.28520  0.85360  Biso   1.000  N
  N74      1.0000 0.05820  0.71340  0.72880  Biso   1.000  N
  N75      1.0000 0.91420  0.26120  0.60270  Biso   1.000  N
  N76      1.0000 0.02700  0.17780  0.72510  Biso   1.000  N
  N77      1.0000 0.06180  0.04330  0.75260  Biso   1.000  N
  N78      1.0000 0.00920  0.03590  0.69000  Biso   1.000  N
  N79      1.0000 0.82050  0.24520  0.56280  Biso   1.000  N
  N80      1.0000 0.59770  0.07760  0.67830  Biso   1.000  N
  N81      1.0000 0.66900  0.71110  0.45660  Biso   1.000  N
  N82      1.0000 0.70590  0.07930  0.59800  Biso   1.000  N
  N83      1.0000 0.71840  0.99820  0.53700  Biso   1.000  N
  N84      1.0000 0.66500  0.95490  0.56880  Biso   1.000  N
  N85      1.0000 0.62400  0.68270  0.35810  Biso   1.000  N
  N86      1.0000 0.55390  0.24600  0.21220  Biso   1.000  N
  N87      1.0000 0.40970  0.69490  0.10320  Biso   1.000  N
  N88      1.0000 0.52480  0.78420  0.22440  Biso   1.000  N
  N89      1.0000 0.56540  0.91440  0.24520  Biso   1.000  N
  N90      1.0000 0.50910  0.92120  0.18530  Biso   1.000  N
  N91      1.0000 0.31680  0.70110  0.05560  Biso   1.000  N
  N92      1.0000 0.18240  0.24800  0.94830  Biso   1.000  N
  N93      1.0000 0.10700  0.92760  0.18300  Biso   1.000  N
  N94      1.0000 0.20400  0.87900  0.08940  Biso   1.000  N
  N95      1.0000 0.21610  0.95130  0.02620  Biso   1.000  N
  N96      1.0000 0.16890  0.01170  0.06180  Biso   1.000  N
  Zn19     1.0000 0.17281  0.34821  0.90159  Biso   1.000  Zn
  Zn20     1.0000 0.86831  0.32805  0.56182  Biso   1.000  Zn
  Zn21     1.0000 0.65529  0.61126  0.41081  Biso   1.000  Zn
  Zn22     1.0000 0.55973  0.38616  0.21766  Biso   1.000  Zn
  Zn23     1.0000 0.36632  0.62394  0.06011  Biso   1.000  Zn
  Zn24     1.0000 0.07558  0.92282  0.23119  Biso   1.000  Zn
  Br55     1.0000 0.61050  0.39800  0.29680  Biso   1.000  Br
  Br56     1.0000 0.50730  0.46620  0.20070  Biso   1.000  Br
