data_image0
_cell_length_a       14.1842
_cell_length_b       14.1842
_cell_length_c       63.709
_cell_angle_alpha    90
_cell_angle_beta     90
_cell_angle_gamma    90

_symmetry_space_group_name_H-M    "P 1"
_symmetry_int_tables_number       1

loop_
  _symmetry_equiv_pos_as_xyz
  'x, y, z'

loop_
  _atom_site_label
  _atom_site_occupancy
  _atom_site_fract_x
  _atom_site_fract_y
  _atom_site_fract_z
  _atom_site_thermal_displace_type
  _atom_site_B_iso_or_equiv
  _atom_site_type_symbol
  Tb1      1.0000 0.51608  0.27873  0.06209  Biso   1.000  Tb
  O1       1.0000 0.12780  0.09210  0.28430  Biso   1.000  O
  O2       1.0000 0.28430  0.11500  0.28280  Biso   1.000  O
  O3       1.0000 0.61600  0.40000  0.07360  Biso   1.000  O
  H1       1.0000 0.63350  0.42350  0.08590  Biso   1.000  H
  H2       1.0000 0.65530  0.41800  0.06510  Biso   1.000  H
  O4       1.0000 0.40320  0.25500  0.21480  Biso   1.000  O
  O5       1.0000 0.37510  0.40390  0.22040  Biso   1.000  O
  O6       1.0000 0.39010  0.50550  0.18059  Biso   1.000  O
  O7       1.0000 0.45980  0.36770  0.17910  Biso   1.000  O
  O8       1.0000 0.49800  0.32270  0.09830  Biso   1.000  O
  O9       1.0000 0.35820  0.31780  0.07910  Biso   1.000  O
  O10      1.0000 0.46860  0.43220  0.05150  Biso   1.000  O
  C1       1.0000 0.19230  0.20580  0.25880  Biso   1.000  C
  C2       1.0000 0.10990  0.23400  0.25400  Biso   1.000  C
  H3       1.0000 0.05840  0.21070  0.26140  Biso   1.000  H
  C3       1.0000 0.09500  0.30200  0.23680  Biso   1.000  C
  H4       1.0000 0.03570  0.32570  0.23340  Biso   1.000  H
  C4       1.0000 0.18290  0.32900  0.22550  Biso   1.000  C
  C5       1.0000 0.26310  0.29100  0.23100  Biso   1.000  C
  C6       1.0000 0.27400  0.22700  0.24770  Biso   1.000  C
  H5       1.0000 0.33200  0.20000  0.25110  Biso   1.000  H
  C7       1.0000 0.16650  0.39910  0.20790  Biso   1.000  C
  C8       1.0000 0.11910  0.48220  0.20920  Biso   1.000  C
  H6       1.0000 0.09590  0.50070  0.22220  Biso   1.000  H
  C9       1.0000 0.10400  0.54000  0.19250  Biso   1.000  C
  H7       1.0000 0.06610  0.59310  0.19330  Biso   1.000  H
  C10      1.0000 0.14900  0.51200  0.17390  Biso   1.000  C
  H8       1.0000 0.14240  0.55120  0.16240  Biso   1.000  H
  C11      1.0000 0.20050  0.43600  0.17130  Biso   1.000  C
  C12      1.0000 0.20520  0.37900  0.18800  Biso   1.000  C
  H9       1.0000 0.23640  0.32170  0.18640  Biso   1.000  H
  C13      1.0000 0.25260  0.41500  0.15160  Biso   1.000  C
  C14      1.0000 0.19920  0.40300  0.13210  Biso   1.000  C
  H10      1.0000 0.13430  0.41080  0.13090  Biso   1.000  H
  C15      1.0000 0.26000  0.37800  0.11520  Biso   1.000  C
  H11      1.0000 0.23110  0.36920  0.10220  Biso   1.000  H
  C16      1.0000 0.34970  0.36500  0.11590  Biso   1.000  C
  C17      1.0000 0.39810  0.37990  0.13430  Biso   1.000  C
  H12      1.0000 0.46310  0.37200  0.13510  Biso   1.000  H
  C18      1.0000 0.34390  0.40840  0.15230  Biso   1.000  C
  C19      1.0000 0.19900  0.13440  0.27530  Biso   1.000  C
  C20      1.0000 0.35330  0.32070  0.22090  Biso   1.000  C
  C21      1.0000 0.40290  0.42580  0.17200  Biso   1.000  C
  C22      1.0000 0.40200  0.33830  0.09640  Biso   1.000  C
  O11      1.0000 0.65700  0.36600  0.06580  Biso   1.000  O
  H13      1.0000 0.69250  0.38450  0.05670  Biso   1.000  H
  H14      1.0000 0.66400  0.40270  0.07690  Biso   1.000  H
  Tb2      1.0000 0.01608  0.77873  0.56209  Biso   1.000  Tb
  O12      1.0000 0.62780  0.59210  0.78430  Biso   1.000  O
  O13      1.0000 0.78430  0.61500  0.78280  Biso   1.000  O
  O14      1.0000 0.11600  0.90000  0.57360  Biso   1.000  O
  H15      1.0000 0.13350  0.92350  0.58590  Biso   1.000  H
  H16      1.0000 0.15530  0.91800  0.56510  Biso   1.000  H
  O15      1.0000 0.90320  0.75500  0.71480  Biso   1.000  O
  O16      1.0000 0.87510  0.90390  0.72040  Biso   1.000  O
  O17      1.0000 0.89010  0.00550  0.68059  Biso   1.000  O
  O18      1.0000 0.95980  0.86770  0.67910  Biso   1.000  O
  O19      1.0000 0.99800  0.82270  0.59830  Biso   1.000  O
  O20      1.0000 0.85820  0.81780  0.57910  Biso   1.000  O
  O21      1.0000 0.96860  0.93220  0.55150  Biso   1.000  O
  C23      1.0000 0.69230  0.70580  0.75880  Biso   1.000  C
  C24      1.0000 0.60990  0.73400  0.75400  Biso   1.000  C
  H17      1.0000 0.55840  0.71070  0.76140  Biso   1.000  H
  C25      1.0000 0.59500  0.80200  0.73680  Biso   1.000  C
  H18      1.0000 0.53570  0.82570  0.73340  Biso   1.000  H
  C26      1.0000 0.68290  0.82900  0.72550  Biso   1.000  C
  C27      1.0000 0.76310  0.79100  0.73100  Biso   1.000  C
  C28      1.0000 0.77400  0.72700  0.74770  Biso   1.000  C
  H19      1.0000 0.83200  0.70000  0.75110  Biso   1.000  H
  C29      1.0000 0.66650  0.89910  0.70790  Biso   1.000  C
  C30      1.0000 0.61910  0.98220  0.70920  Biso   1.000  C
  H20      1.0000 0.59590  0.00070  0.72220  Biso   1.000  H
  C31      1.0000 0.60400  0.04000  0.69250  Biso   1.000  C
  H21      1.0000 0.56610  0.09310  0.69330  Biso   1.000  H
  C32      1.0000 0.64900  0.01200  0.67390  Biso   1.000  C
  H22      1.0000 0.64240  0.05120  0.66240  Biso   1.000  H
  C33      1.0000 0.70050  0.93600  0.67130  Biso   1.000  C
  C34      1.0000 0.70520  0.87900  0.68800  Biso   1.000  C
  H23      1.0000 0.73640  0.82170  0.68640  Biso   1.000  H
  C35      1.0000 0.75260  0.91500  0.65160  Biso   1.000  C
  C36      1.0000 0.69920  0.90300  0.63210  Biso   1.000  C
  H24      1.0000 0.63430  0.91080  0.63090  Biso   1.000  H
  C37      1.0000 0.76000  0.87800  0.61520  Biso   1.000  C
  H25      1.0000 0.73110  0.86920  0.60220  Biso   1.000  H
  C38      1.0000 0.84970  0.86500  0.61590  Biso   1.000  C
  C39      1.0000 0.89810  0.87990  0.63430  Biso   1.000  C
  H26      1.0000 0.96310  0.87200  0.63510  Biso   1.000  H
  C40      1.0000 0.84390  0.90840  0.65230  Biso   1.000  C
  C41      1.0000 0.69900  0.63440  0.77530  Biso   1.000  C
  C42      1.0000 0.85330  0.82070  0.72090  Biso   1.000  C
  C43      1.0000 0.90290  0.92580  0.67200  Biso   1.000  C
  C44      1.0000 0.90200  0.83830  0.59640  Biso   1.000  C
  O22      1.0000 0.15700  0.86600  0.56580  Biso   1.000  O
  H27      1.0000 0.19250  0.88450  0.55670  Biso   1.000  H
  H28      1.0000 0.16400  0.90270  0.57690  Biso   1.000  H
  Tb3      1.0000 0.48392  0.72127  0.06209  Biso   1.000  Tb
  O23      1.0000 0.87220  0.90790  0.28430  Biso   1.000  O
  O24      1.0000 0.71570  0.88500  0.28280  Biso   1.000  O
  O25      1.0000 0.38400  0.60000  0.07360  Biso   1.000  O
  H29      1.0000 0.36650  0.57650  0.08590  Biso   1.000  H
  H30      1.0000 0.34470  0.58200  0.06510  Biso   1.000  H
  O26      1.0000 0.59680  0.74500  0.21480  Biso   1.000  O
  O27      1.0000 0.62490  0.59610  0.22040  Biso   1.000  O
  O28      1.0000 0.60990  0.49450  0.18059  Biso   1.000  O
  O29      1.0000 0.54020  0.63230  0.17910  Biso   1.000  O
  O30      1.0000 0.50200  0.67730  0.09830  Biso   1.000  O
  O31      1.0000 0.64180  0.68220  0.07910  Biso   1.000  O
  O32      1.0000 0.53140  0.56780  0.05150  Biso   1.000  O
  C45      1.0000 0.80770  0.79420  0.25880  Biso   1.000  C
  C46      1.0000 0.89010  0.76600  0.25400  Biso   1.000  C
  H31      1.0000 0.94160  0.78930  0.26140  Biso   1.000  H
  C47      1.0000 0.90500  0.69800  0.23680  Biso   1.000  C
  H32      1.0000 0.96430  0.67430  0.23340  Biso   1.000  H
  C48      1.0000 0.81710  0.67100  0.22550  Biso   1.000  C
  C49      1.0000 0.73690  0.70900  0.23100  Biso   1.000  C
  C50      1.0000 0.72600  0.77300  0.24770  Biso   1.000  C
  H33      1.0000 0.66800  0.80000  0.25110  Biso   1.000  H
  C51      1.0000 0.83350  0.60090  0.20790  Biso   1.000  C
  C52      1.0000 0.88090  0.51780  0.20920  Biso   1.000  C
  H34      1.0000 0.90410  0.49930  0.22220  Biso   1.000  H
  C53      1.0000 0.89600  0.46000  0.19250  Biso   1.000  C
  H35      1.0000 0.93390  0.40690  0.19330  Biso   1.000  H
  C54      1.0000 0.85100  0.48800  0.17390  Biso   1.000  C
  H36      1.0000 0.85760  0.44880  0.16240  Biso   1.000  H
  C55      1.0000 0.79950  0.56400  0.17130  Biso   1.000  C
  C56      1.0000 0.79480  0.62100  0.18800  Biso   1.000  C
  H37      1.0000 0.76360  0.67830  0.18640  Biso   1.000  H
  C57      1.0000 0.74740  0.58500  0.15160  Biso   1.000  C
  C58      1.0000 0.80080  0.59700  0.13210  Biso   1.000  C
  H38      1.0000 0.86570  0.58920  0.13090  Biso   1.000  H
  C59      1.0000 0.74000  0.62200  0.11520  Biso   1.000  C
  H39      1.0000 0.76890  0.63080  0.10220  Biso   1.000  H
  C60      1.0000 0.65030  0.63500  0.11590  Biso   1.000  C
  C61      1.0000 0.60190  0.62010  0.13430  Biso   1.000  C
  H40      1.0000 0.53690  0.62800  0.13510  Biso   1.000  H
  C62      1.0000 0.65610  0.59160  0.15230  Biso   1.000  C
  C63      1.0000 0.80100  0.86560  0.27530  Biso   1.000  C
  C64      1.0000 0.64670  0.67930  0.22090  Biso   1.000  C
  C65      1.0000 0.59710  0.57420  0.17200  Biso   1.000  C
  C66      1.0000 0.59800  0.66170  0.09640  Biso   1.000  C
  O33      1.0000 0.34300  0.63400  0.06580  Biso   1.000  O
  H41      1.0000 0.30750  0.61550  0.05670  Biso   1.000  H
  H42      1.0000 0.33600  0.59730  0.07690  Biso   1.000  H
  Tb4      1.0000 0.98392  0.22127  0.56209  Biso   1.000  Tb
  O34      1.0000 0.37220  0.40790  0.78430  Biso   1.000  O
  O35      1.0000 0.21570  0.38500  0.78280  Biso   1.000  O
  O36      1.0000 0.88400  0.10000  0.57360  Biso   1.000  O
  H43      1.0000 0.86650  0.07650  0.58590  Biso   1.000  H
  H44      1.0000 0.84470  0.08200  0.56510  Biso   1.000  H
  O37      1.0000 0.09680  0.24500  0.71480  Biso   1.000  O
  O38      1.0000 0.12490  0.09610  0.72040  Biso   1.000  O
  O39      1.0000 0.10990  0.99450  0.68059  Biso   1.000  O
  O40      1.0000 0.04020  0.13230  0.67910  Biso   1.000  O
  O41      1.0000 0.00200  0.17730  0.59830  Biso   1.000  O
  O42      1.0000 0.14180  0.18220  0.57910  Biso   1.000  O
  O43      1.0000 0.03140  0.06780  0.55150  Biso   1.000  O
  C67      1.0000 0.30770  0.29420  0.75880  Biso   1.000  C
  C68      1.0000 0.39010  0.26600  0.75400  Biso   1.000  C
  H45      1.0000 0.44160  0.28930  0.76140  Biso   1.000  H
  C69      1.0000 0.40500  0.19800  0.73680  Biso   1.000  C
  H46      1.0000 0.46430  0.17430  0.73340  Biso   1.000  H
  C70      1.0000 0.31710  0.17100  0.72550  Biso   1.000  C
  C71      1.0000 0.23690  0.20900  0.73100  Biso   1.000  C
  C72      1.0000 0.22600  0.27300  0.74770  Biso   1.000  C
  H47      1.0000 0.16800  0.30000  0.75110  Biso   1.000  H
  C73      1.0000 0.33350  0.10090  0.70790  Biso   1.000  C
  C74      1.0000 0.38090  0.01780  0.70920  Biso   1.000  C
  H48      1.0000 0.40410  0.99930  0.72220  Biso   1.000  H
  C75      1.0000 0.39600  0.96000  0.69250  Biso   1.000  C
  H49      1.0000 0.43390  0.90690  0.69330  Biso   1.000  H
  C76      1.0000 0.35100  0.98800  0.67390  Biso   1.000  C
  H50      1.0000 0.35760  0.94880  0.66240  Biso   1.000  H
  C77      1.0000 0.29950  0.06400  0.67130  Biso   1.000  C
  C78      1.0000 0.29480  0.12100  0.68800  Biso   1.000  C
  H51      1.0000 0.26360  0.17830  0.68640  Biso   1.000  H
  C79      1.0000 0.24740  0.08500  0.65160  Biso   1.000  C
  C80      1.0000 0.30080  0.09700  0.63210  Biso   1.000  C
  H52      1.0000 0.36570  0.08920  0.63090  Biso   1.000  H
  C81      1.0000 0.24000  0.12200  0.61520  Biso   1.000  C
  H53      1.0000 0.26890  0.13080  0.60220  Biso   1.000  H
  C82      1.0000 0.15030  0.13500  0.61590  Biso   1.000  C
  C83      1.0000 0.10190  0.12010  0.63430  Biso   1.000  C
  H54      1.0000 0.03690  0.12800  0.63510  Biso   1.000  H
  C84      1.0000 0.15610  0.09160  0.65230  Biso   1.000  C
  C85      1.0000 0.30100  0.36560  0.77530  Biso   1.000  C
  C86      1.0000 0.14670  0.17930  0.72090  Biso   1.000  C
  C87      1.0000 0.09710  0.07420  0.67200  Biso   1.000  C
  C88      1.0000 0.09800  0.16170  0.59640  Biso   1.000  C
  O44      1.0000 0.84300  0.13400  0.56580  Biso   1.000  O
  H55      1.0000 0.80750  0.11550  0.55670  Biso   1.000  H
  H56      1.0000 0.83600  0.09730  0.57690  Biso   1.000  H
  Tb5      1.0000 0.27873  0.48392  0.93791  Biso   1.000  Tb
  O45      1.0000 0.09210  0.87220  0.71570  Biso   1.000  O
  O46      1.0000 0.11500  0.71570  0.71720  Biso   1.000  O
  O47      1.0000 0.40000  0.38400  0.92640  Biso   1.000  O
  H57      1.0000 0.42350  0.36650  0.91410  Biso   1.000  H
  H58      1.0000 0.41800  0.34470  0.93490  Biso   1.000  H
  O48      1.0000 0.25500  0.59680  0.78520  Biso   1.000  O
  O49      1.0000 0.40390  0.62490  0.77960  Biso   1.000  O
  O50      1.0000 0.50550  0.60990  0.81941  Biso   1.000  O
  O51      1.0000 0.36770  0.54020  0.82090  Biso   1.000  O
  O52      1.0000 0.32270  0.50200  0.90170  Biso   1.000  O
  O53      1.0000 0.31780  0.64180  0.92090  Biso   1.000  O
  O54      1.0000 0.43220  0.53140  0.94850  Biso   1.000  O
  C89      1.0000 0.20580  0.80770  0.74120  Biso   1.000  C
  C90      1.0000 0.23400  0.89010  0.74600  Biso   1.000  C
  H59      1.0000 0.21070  0.94160  0.73860  Biso   1.000  H
  C91      1.0000 0.30200  0.90500  0.76320  Biso   1.000  C
  H60      1.0000 0.32570  0.96430  0.76660  Biso   1.000  H
  C92      1.0000 0.32900  0.81710  0.77450  Biso   1.000  C
  C93      1.0000 0.29100  0.73690  0.76900  Biso   1.000  C
  C94      1.0000 0.22700  0.72600  0.75230  Biso   1.000  C
  H61      1.0000 0.20000  0.66800  0.74890  Biso   1.000  H
  C95      1.0000 0.39910  0.83350  0.79210  Biso   1.000  C
  C96      1.0000 0.48220  0.88090  0.79080  Biso   1.000  C
  H62      1.0000 0.50070  0.90410  0.77780  Biso   1.000  H
  C97      1.0000 0.54000  0.89600  0.80750  Biso   1.000  C
  H63      1.0000 0.59310  0.93390  0.80670  Biso   1.000  H
  C98      1.0000 0.51200  0.85100  0.82610  Biso   1.000  C
  H64      1.0000 0.55120  0.85760  0.83760  Biso   1.000  H
  C99      1.0000 0.43600  0.79950  0.82870  Biso   1.000  C
  C100     1.0000 0.37900  0.79480  0.81200  Biso   1.000  C
  H65      1.0000 0.32170  0.76360  0.81360  Biso   1.000  H
  C101     1.0000 0.41500  0.74740  0.84840  Biso   1.000  C
  C102     1.0000 0.40300  0.80080  0.86790  Biso   1.000  C
  H66      1.0000 0.41080  0.86570  0.86910  Biso   1.000  H
  C103     1.0000 0.37800  0.74000  0.88480  Biso   1.000  C
  H67      1.0000 0.36920  0.76890  0.89780  Biso   1.000  H
  C104     1.0000 0.36500  0.65030  0.88410  Biso   1.000  C
  C105     1.0000 0.37990  0.60190  0.86570  Biso   1.000  C
  H68      1.0000 0.37200  0.53690  0.86490  Biso   1.000  H
  C106     1.0000 0.40840  0.65610  0.84770  Biso   1.000  C
  C107     1.0000 0.13440  0.80100  0.72470  Biso   1.000  C
  C108     1.0000 0.32070  0.64670  0.77910  Biso   1.000  C
  C109     1.0000 0.42580  0.59710  0.82800  Biso   1.000  C
  C110     1.0000 0.33830  0.59800  0.90360  Biso   1.000  C
  O55      1.0000 0.36600  0.34300  0.93420  Biso   1.000  O
  H69      1.0000 0.38450  0.30750  0.94330  Biso   1.000  H
  H70      1.0000 0.40270  0.33600  0.92310  Biso   1.000  H
  Tb6      1.0000 0.77873  0.98392  0.43791  Biso   1.000  Tb
  O56      1.0000 0.59210  0.37220  0.21570  Biso   1.000  O
  O57      1.0000 0.61500  0.21570  0.21720  Biso   1.000  O
  O58      1.0000 0.90000  0.88400  0.42640  Biso   1.000  O
  H71      1.0000 0.92350  0.86650  0.41410  Biso   1.000  H
  H72      1.0000 0.91800  0.84470  0.43490  Biso   1.000  H
  O59      1.0000 0.75500  0.09680  0.28520  Biso   1.000  O
  O60      1.0000 0.90390  0.12490  0.27960  Biso   1.000  O
  O61      1.0000 0.00550  0.10990  0.31941  Biso   1.000  O
  O62      1.0000 0.86770  0.04020  0.32090  Biso   1.000  O
  O63      1.0000 0.82270  0.00200  0.40170  Biso   1.000  O
  O64      1.0000 0.81780  0.14180  0.42090  Biso   1.000  O
  O65      1.0000 0.93220  0.03140  0.44850  Biso   1.000  O
  C111     1.0000 0.70580  0.30770  0.24120  Biso   1.000  C
  C112     1.0000 0.73400  0.39010  0.24600  Biso   1.000  C
  H73      1.0000 0.71070  0.44160  0.23860  Biso   1.000  H
  C113     1.0000 0.80200  0.40500  0.26320  Biso   1.000  C
  H74      1.0000 0.82570  0.46430  0.26660  Biso   1.000  H
  C114     1.0000 0.82900  0.31710  0.27450  Biso   1.000  C
  C115     1.0000 0.79100  0.23690  0.26900  Biso   1.000  C
  C116     1.0000 0.72700  0.22600  0.25230  Biso   1.000  C
  H75      1.0000 0.70000  0.16800  0.24890  Biso   1.000  H
  C117     1.0000 0.89910  0.33350  0.29210  Biso   1.000  C
  C118     1.0000 0.98220  0.38090  0.29080  Biso   1.000  C
  H76      1.0000 0.00070  0.40410  0.27780  Biso   1.000  H
  C119     1.0000 0.04000  0.39600  0.30750  Biso   1.000  C
  H77      1.0000 0.09310  0.43390  0.30670  Biso   1.000  H
  C120     1.0000 0.01200  0.35100  0.32610  Biso   1.000  C
  H78      1.0000 0.05120  0.35760  0.33760  Biso   1.000  H
  C121     1.0000 0.93600  0.29950  0.32870  Biso   1.000  C
  C122     1.0000 0.87900  0.29480  0.31200  Biso   1.000  C
  H79      1.0000 0.82170  0.26360  0.31360  Biso   1.000  H
  C123     1.0000 0.91500  0.24740  0.34840  Biso   1.000  C
  C124     1.0000 0.90300  0.30080  0.36790  Biso   1.000  C
  H80      1.0000 0.91080  0.36570  0.36910  Biso   1.000  H
  C125     1.0000 0.87800  0.24000  0.38480  Biso   1.000  C
  H81      1.0000 0.86920  0.26890  0.39780  Biso   1.000  H
  C126     1.0000 0.86500  0.15030  0.38410  Biso   1.000  C
  C127     1.0000 0.87990  0.10190  0.36570  Biso   1.000  C
  H82      1.0000 0.87200  0.03690  0.36490  Biso   1.000  H
  C128     1.0000 0.90840  0.15610  0.34770  Biso   1.000  C
  C129     1.0000 0.63440  0.30100  0.22470  Biso   1.000  C
  C130     1.0000 0.82070  0.14670  0.27910  Biso   1.000  C
  C131     1.0000 0.92580  0.09710  0.32800  Biso   1.000  C
  C132     1.0000 0.83830  0.09800  0.40360  Biso   1.000  C
  O66      1.0000 0.86600  0.84300  0.43420  Biso   1.000  O
  H83      1.0000 0.88450  0.80750  0.44330  Biso   1.000  H
  H84      1.0000 0.90270  0.83600  0.42310  Biso   1.000  H
  Tb7      1.0000 0.72127  0.51608  0.93791  Biso   1.000  Tb
  O67      1.0000 0.90790  0.12780  0.71570  Biso   1.000  O
  O68      1.0000 0.88500  0.28430  0.71720  Biso   1.000  O
  O69      1.0000 0.60000  0.61600  0.92640  Biso   1.000  O
  H85      1.0000 0.57650  0.63350  0.91410  Biso   1.000  H
  H86      1.0000 0.58200  0.65530  0.93490  Biso   1.000  H
  O70      1.0000 0.74500  0.40320  0.78520  Biso   1.000  O
  O71      1.0000 0.59610  0.37510  0.77960  Biso   1.000  O
  O72      1.0000 0.49450  0.39010  0.81941  Biso   1.000  O
  O73      1.0000 0.63230  0.45980  0.82090  Biso   1.000  O
  O74      1.0000 0.67730  0.49800  0.90170  Biso   1.000  O
  O75      1.0000 0.68220  0.35820  0.92090  Biso   1.000  O
  O76      1.0000 0.56780  0.46860  0.94850  Biso   1.000  O
  C133     1.0000 0.79420  0.19230  0.74120  Biso   1.000  C
  C134     1.0000 0.76600  0.10990  0.74600  Biso   1.000  C
  H87      1.0000 0.78930  0.05840  0.73860  Biso   1.000  H
  C135     1.0000 0.69800  0.09500  0.76320  Biso   1.000  C
  H88      1.0000 0.67430  0.03570  0.76660  Biso   1.000  H
  C136     1.0000 0.67100  0.18290  0.77450  Biso   1.000  C
  C137     1.0000 0.70900  0.26310  0.76900  Biso   1.000  C
  C138     1.0000 0.77300  0.27400  0.75230  Biso   1.000  C
  H89      1.0000 0.80000  0.33200  0.74890  Biso   1.000  H
  C139     1.0000 0.60090  0.16650  0.79210  Biso   1.000  C
  C140     1.0000 0.51780  0.11910  0.79080  Biso   1.000  C
  H90      1.0000 0.49930  0.09590  0.77780  Biso   1.000  H
  C141     1.0000 0.46000  0.10400  0.80750  Biso   1.000  C
  H91      1.0000 0.40690  0.06610  0.80670  Biso   1.000  H
  C142     1.0000 0.48800  0.14900  0.82610  Biso   1.000  C
  H92      1.0000 0.44880  0.14240  0.83760  Biso   1.000  H
  C143     1.0000 0.56400  0.20050  0.82870  Biso   1.000  C
  C144     1.0000 0.62100  0.20520  0.81200  Biso   1.000  C
  H93      1.0000 0.67830  0.23640  0.81360  Biso   1.000  H
  C145     1.0000 0.58500  0.25260  0.84840  Biso   1.000  C
  C146     1.0000 0.59700  0.19920  0.86790  Biso   1.000  C
  H94      1.0000 0.58920  0.13430  0.86910  Biso   1.000  H
  C147     1.0000 0.62200  0.26000  0.88480  Biso   1.000  C
  H95      1.0000 0.63080  0.23110  0.89780  Biso   1.000  H
  C148     1.0000 0.63500  0.34970  0.88410  Biso   1.000  C
  C149     1.0000 0.62010  0.39810  0.86570  Biso   1.000  C
  H96      1.0000 0.62800  0.46310  0.86490  Biso   1.000  H
  C150     1.0000 0.59160  0.34390  0.84770  Biso   1.000  C
  C151     1.0000 0.86560  0.19900  0.72470  Biso   1.000  C
  C152     1.0000 0.67930  0.35330  0.77910  Biso   1.000  C
  C153     1.0000 0.57420  0.40290  0.82800  Biso   1.000  C
  C154     1.0000 0.66170  0.40200  0.90360  Biso   1.000  C
  O77      1.0000 0.63400  0.65700  0.93420  Biso   1.000  O
  H97      1.0000 0.61550  0.69250  0.94330  Biso   1.000  H
  H98      1.0000 0.59730  0.66400  0.92310  Biso   1.000  H
  Tb8      1.0000 0.22127  0.01608  0.43791  Biso   1.000  Tb
  O78      1.0000 0.40790  0.62780  0.21570  Biso   1.000  O
  O79      1.0000 0.38500  0.78430  0.21720  Biso   1.000  O
  O80      1.0000 0.10000  0.11600  0.42640  Biso   1.000  O
  H99      1.0000 0.07650  0.13350  0.41410  Biso   1.000  H
  H100     1.0000 0.08200  0.15530  0.43490  Biso   1.000  H
  O81      1.0000 0.24500  0.90320  0.28520  Biso   1.000  O
  O82      1.0000 0.09610  0.87510  0.27960  Biso   1.000  O
  O83      1.0000 0.99450  0.89010  0.31941  Biso   1.000  O
  O84      1.0000 0.13230  0.95980  0.32090  Biso   1.000  O
  O85      1.0000 0.17730  0.99800  0.40170  Biso   1.000  O
  O86      1.0000 0.18220  0.85820  0.42090  Biso   1.000  O
  O87      1.0000 0.06780  0.96860  0.44850  Biso   1.000  O
  C155     1.0000 0.29420  0.69230  0.24120  Biso   1.000  C
  C156     1.0000 0.26600  0.60990  0.24600  Biso   1.000  C
  H101     1.0000 0.28930  0.55840  0.23860  Biso   1.000  H
  C157     1.0000 0.19800  0.59500  0.26320  Biso   1.000  C
  H102     1.0000 0.17430  0.53570  0.26660  Biso   1.000  H
  C158     1.0000 0.17100  0.68290  0.27450  Biso   1.000  C
  C159     1.0000 0.20900  0.76310  0.26900  Biso   1.000  C
  C160     1.0000 0.27300  0.77400  0.25230  Biso   1.000  C
  H103     1.0000 0.30000  0.83200  0.24890  Biso   1.000  H
  C161     1.0000 0.10090  0.66650  0.29210  Biso   1.000  C
  C162     1.0000 0.01780  0.61910  0.29080  Biso   1.000  C
  H104     1.0000 0.99930  0.59590  0.27780  Biso   1.000  H
  C163     1.0000 0.96000  0.60400  0.30750  Biso   1.000  C
  H105     1.0000 0.90690  0.56610  0.30670  Biso   1.000  H
  C164     1.0000 0.98800  0.64900  0.32610  Biso   1.000  C
  H106     1.0000 0.94880  0.64240  0.33760  Biso   1.000  H
  C165     1.0000 0.06400  0.70050  0.32870  Biso   1.000  C
  C166     1.0000 0.12100  0.70520  0.31200  Biso   1.000  C
  H107     1.0000 0.17830  0.73640  0.31360  Biso   1.000  H
  C167     1.0000 0.08500  0.75260  0.34840  Biso   1.000  C
  C168     1.0000 0.09700  0.69920  0.36790  Biso   1.000  C
  H108     1.0000 0.08920  0.63430  0.36910  Biso   1.000  H
  C169     1.0000 0.12200  0.76000  0.38480  Biso   1.000  C
  H109     1.0000 0.13080  0.73110  0.39780  Biso   1.000  H
  C170     1.0000 0.13500  0.84970  0.38410  Biso   1.000  C
  C171     1.0000 0.12010  0.89810  0.36570  Biso   1.000  C
  H110     1.0000 0.12800  0.96310  0.36490  Biso   1.000  H
  C172     1.0000 0.09160  0.84390  0.34770  Biso   1.000  C
  C173     1.0000 0.36560  0.69900  0.22470  Biso   1.000  C
  C174     1.0000 0.17930  0.85330  0.27910  Biso   1.000  C
  C175     1.0000 0.07420  0.90290  0.32800  Biso   1.000  C
  C176     1.0000 0.16170  0.90200  0.40360  Biso   1.000  C
  O88      1.0000 0.13400  0.15700  0.43420  Biso   1.000  O
  H111     1.0000 0.11550  0.19250  0.44330  Biso   1.000  H
  H112     1.0000 0.09730  0.16400  0.42310  Biso   1.000  H
  Tb9      1.0000 0.98392  0.27873  0.68791  Biso   1.000  Tb
  O89      1.0000 0.37220  0.09210  0.46570  Biso   1.000  O
  O90      1.0000 0.21570  0.11500  0.46720  Biso   1.000  O
  O91      1.0000 0.88400  0.40000  0.67640  Biso   1.000  O
  H113     1.0000 0.86650  0.42350  0.66410  Biso   1.000  H
  H114     1.0000 0.84470  0.41800  0.68490  Biso   1.000  H
  O92      1.0000 0.09680  0.25500  0.53520  Biso   1.000  O
  O93      1.0000 0.12490  0.40390  0.52960  Biso   1.000  O
  O94      1.0000 0.10990  0.50550  0.56941  Biso   1.000  O
  O95      1.0000 0.04020  0.36770  0.57090  Biso   1.000  O
  O96      1.0000 0.00200  0.32270  0.65170  Biso   1.000  O
  O97      1.0000 0.14180  0.31780  0.67090  Biso   1.000  O
  O98      1.0000 0.03140  0.43220  0.69850  Biso   1.000  O
  C177     1.0000 0.30770  0.20580  0.49120  Biso   1.000  C
  C178     1.0000 0.39010  0.23400  0.49600  Biso   1.000  C
  H115     1.0000 0.44160  0.21070  0.48860  Biso   1.000  H
  C179     1.0000 0.40500  0.30200  0.51320  Biso   1.000  C
  H116     1.0000 0.46430  0.32570  0.51660  Biso   1.000  H
  C180     1.0000 0.31710  0.32900  0.52450  Biso   1.000  C
  C181     1.0000 0.23690  0.29100  0.51900  Biso   1.000  C
  C182     1.0000 0.22600  0.22700  0.50230  Biso   1.000  C
  H117     1.0000 0.16800  0.20000  0.49890  Biso   1.000  H
  C183     1.0000 0.33350  0.39910  0.54210  Biso   1.000  C
  C184     1.0000 0.38090  0.48220  0.54080  Biso   1.000  C
  H118     1.0000 0.40410  0.50070  0.52780  Biso   1.000  H
  C185     1.0000 0.39600  0.54000  0.55750  Biso   1.000  C
  H119     1.0000 0.43390  0.59310  0.55670  Biso   1.000  H
  C186     1.0000 0.35100  0.51200  0.57610  Biso   1.000  C
  H120     1.0000 0.35760  0.55120  0.58760  Biso   1.000  H
  C187     1.0000 0.29950  0.43600  0.57870  Biso   1.000  C
  C188     1.0000 0.29480  0.37900  0.56200  Biso   1.000  C
  H121     1.0000 0.26360  0.32170  0.56360  Biso   1.000  H
  C189     1.0000 0.24740  0.41500  0.59840  Biso   1.000  C
  C190     1.0000 0.30080  0.40300  0.61790  Biso   1.000  C
  H122     1.0000 0.36570  0.41080  0.61910  Biso   1.000  H
  C191     1.0000 0.24000  0.37800  0.63480  Biso   1.000  C
  H123     1.0000 0.26890  0.36920  0.64780  Biso   1.000  H
  C192     1.0000 0.15030  0.36500  0.63410  Biso   1.000  C
  C193     1.0000 0.10190  0.37990  0.61570  Biso   1.000  C
  H124     1.0000 0.03690  0.37200  0.61490  Biso   1.000  H
  C194     1.0000 0.15610  0.40840  0.59770  Biso   1.000  C
  C195     1.0000 0.30100  0.13440  0.47470  Biso   1.000  C
  C196     1.0000 0.14670  0.32070  0.52910  Biso   1.000  C
  C197     1.0000 0.09710  0.42580  0.57800  Biso   1.000  C
  C198     1.0000 0.09800  0.33830  0.65360  Biso   1.000  C
  O99      1.0000 0.84300  0.36600  0.68420  Biso   1.000  O
  H125     1.0000 0.80750  0.38450  0.69330  Biso   1.000  H
  H126     1.0000 0.83600  0.40270  0.67310  Biso   1.000  H
  Tb10     1.0000 0.48392  0.77873  0.18791  Biso   1.000  Tb
  O100     1.0000 0.87220  0.59210  0.96570  Biso   1.000  O
  O101     1.0000 0.71570  0.61500  0.96720  Biso   1.000  O
  O102     1.0000 0.38400  0.90000  0.17640  Biso   1.000  O
  H127     1.0000 0.36650  0.92350  0.16410  Biso   1.000  H
  H128     1.0000 0.34470  0.91800  0.18490  Biso   1.000  H
  O103     1.0000 0.59680  0.75500  0.03520  Biso   1.000  O
  O104     1.0000 0.62490  0.90390  0.02960  Biso   1.000  O
  O105     1.0000 0.60990  0.00550  0.06941  Biso   1.000  O
  O106     1.0000 0.54020  0.86770  0.07090  Biso   1.000  O
  O107     1.0000 0.50200  0.82270  0.15170  Biso   1.000  O
  O108     1.0000 0.64180  0.81780  0.17090  Biso   1.000  O
  O109     1.0000 0.53140  0.93220  0.19850  Biso   1.000  O
  C199     1.0000 0.80770  0.70580  0.99120  Biso   1.000  C
  C200     1.0000 0.89010  0.73400  0.99600  Biso   1.000  C
  H129     1.0000 0.94160  0.71070  0.98860  Biso   1.000  H
  C201     1.0000 0.90500  0.80200  0.01320  Biso   1.000  C
  H130     1.0000 0.96430  0.82570  0.01660  Biso   1.000  H
  C202     1.0000 0.81710  0.82900  0.02450  Biso   1.000  C
  C203     1.0000 0.73690  0.79100  0.01900  Biso   1.000  C
  C204     1.0000 0.72600  0.72700  0.00230  Biso   1.000  C
  H131     1.0000 0.66800  0.70000  0.99890  Biso   1.000  H
  C205     1.0000 0.83350  0.89910  0.04210  Biso   1.000  C
  C206     1.0000 0.88090  0.98220  0.04080  Biso   1.000  C
  H132     1.0000 0.90410  0.00070  0.02780  Biso   1.000  H
  C207     1.0000 0.89600  0.04000  0.05750  Biso   1.000  C
  H133     1.0000 0.93390  0.09310  0.05670  Biso   1.000  H
  C208     1.0000 0.85100  0.01200  0.07610  Biso   1.000  C
  H134     1.0000 0.85760  0.05120  0.08760  Biso   1.000  H
  C209     1.0000 0.79950  0.93600  0.07870  Biso   1.000  C
  C210     1.0000 0.79480  0.87900  0.06200  Biso   1.000  C
  H135     1.0000 0.76360  0.82170  0.06360  Biso   1.000  H
  C211     1.0000 0.74740  0.91500  0.09840  Biso   1.000  C
  C212     1.0000 0.80080  0.90300  0.11790  Biso   1.000  C
  H136     1.0000 0.86570  0.91080  0.11910  Biso   1.000  H
  C213     1.0000 0.74000  0.87800  0.13480  Biso   1.000  C
  H137     1.0000 0.76890  0.86920  0.14780  Biso   1.000  H
  C214     1.0000 0.65030  0.86500  0.13410  Biso   1.000  C
  C215     1.0000 0.60190  0.87990  0.11570  Biso   1.000  C
  H138     1.0000 0.53690  0.87200  0.11490  Biso   1.000  H
  C216     1.0000 0.65610  0.90840  0.09770  Biso   1.000  C
  C217     1.0000 0.80100  0.63440  0.97470  Biso   1.000  C
  C218     1.0000 0.64670  0.82070  0.02910  Biso   1.000  C
  C219     1.0000 0.59710  0.92580  0.07800  Biso   1.000  C
  C220     1.0000 0.59800  0.83830  0.15360  Biso   1.000  C
  O110     1.0000 0.34300  0.86600  0.18420  Biso   1.000  O
  H139     1.0000 0.30750  0.88450  0.19330  Biso   1.000  H
  H140     1.0000 0.33600  0.90270  0.17310  Biso   1.000  H
  Tb11     1.0000 0.01608  0.72127  0.68791  Biso   1.000  Tb
  O111     1.0000 0.62780  0.90790  0.46570  Biso   1.000  O
  O112     1.0000 0.78430  0.88500  0.46720  Biso   1.000  O
  O113     1.0000 0.11600  0.60000  0.67640  Biso   1.000  O
  H141     1.0000 0.13350  0.57650  0.66410  Biso   1.000  H
  H142     1.0000 0.15530  0.58200  0.68490  Biso   1.000  H
  O114     1.0000 0.90320  0.74500  0.53520  Biso   1.000  O
  O115     1.0000 0.87510  0.59610  0.52960  Biso   1.000  O
  O116     1.0000 0.89010  0.49450  0.56941  Biso   1.000  O
  O117     1.0000 0.95980  0.63230  0.57090  Biso   1.000  O
  O118     1.0000 0.99800  0.67730  0.65170  Biso   1.000  O
  O119     1.0000 0.85820  0.68220  0.67090  Biso   1.000  O
  O120     1.0000 0.96860  0.56780  0.69850  Biso   1.000  O
  C221     1.0000 0.69230  0.79420  0.49120  Biso   1.000  C
  C222     1.0000 0.60990  0.76600  0.49600  Biso   1.000  C
  H143     1.0000 0.55840  0.78930  0.48860  Biso   1.000  H
  C223     1.0000 0.59500  0.69800  0.51320  Biso   1.000  C
  H144     1.0000 0.53570  0.67430  0.51660  Biso   1.000  H
  C224     1.0000 0.68290  0.67100  0.52450  Biso   1.000  C
  C225     1.0000 0.76310  0.70900  0.51900  Biso   1.000  C
  C226     1.0000 0.77400  0.77300  0.50230  Biso   1.000  C
  H145     1.0000 0.83200  0.80000  0.49890  Biso   1.000  H
  C227     1.0000 0.66650  0.60090  0.54210  Biso   1.000  C
  C228     1.0000 0.61910  0.51780  0.54080  Biso   1.000  C
  H146     1.0000 0.59590  0.49930  0.52780  Biso   1.000  H
  C229     1.0000 0.60400  0.46000  0.55750  Biso   1.000  C
  H147     1.0000 0.56610  0.40690  0.55670  Biso   1.000  H
  C230     1.0000 0.64900  0.48800  0.57610  Biso   1.000  C
  H148     1.0000 0.64240  0.44880  0.58760  Biso   1.000  H
  C231     1.0000 0.70050  0.56400  0.57870  Biso   1.000  C
  C232     1.0000 0.70520  0.62100  0.56200  Biso   1.000  C
  H149     1.0000 0.73640  0.67830  0.56360  Biso   1.000  H
  C233     1.0000 0.75260  0.58500  0.59840  Biso   1.000  C
  C234     1.0000 0.69920  0.59700  0.61790  Biso   1.000  C
  H150     1.0000 0.63430  0.58920  0.61910  Biso   1.000  H
  C235     1.0000 0.76000  0.62200  0.63480  Biso   1.000  C
  H151     1.0000 0.73110  0.63080  0.64780  Biso   1.000  H
  C236     1.0000 0.84970  0.63500  0.63410  Biso   1.000  C
  C237     1.0000 0.89810  0.62010  0.61570  Biso   1.000  C
  H152     1.0000 0.96310  0.62800  0.61490  Biso   1.000  H
  C238     1.0000 0.84390  0.59160  0.59770  Biso   1.000  C
  C239     1.0000 0.69900  0.86560  0.47470  Biso   1.000  C
  C240     1.0000 0.85330  0.67930  0.52910  Biso   1.000  C
  C241     1.0000 0.90290  0.57420  0.57800  Biso   1.000  C
  C242     1.0000 0.90200  0.66170  0.65360  Biso   1.000  C
  O121     1.0000 0.15700  0.63400  0.68420  Biso   1.000  O
  H153     1.0000 0.19250  0.61550  0.69330  Biso   1.000  H
  H154     1.0000 0.16400  0.59730  0.67310  Biso   1.000  H
  Tb12     1.0000 0.51608  0.22127  0.18791  Biso   1.000  Tb
  O122     1.0000 0.12780  0.40790  0.96570  Biso   1.000  O
  O123     1.0000 0.28430  0.38500  0.96720  Biso   1.000  O
  O124     1.0000 0.61600  0.10000  0.17640  Biso   1.000  O
  H155     1.0000 0.63350  0.07650  0.16410  Biso   1.000  H
  H156     1.0000 0.65530  0.08200  0.18490  Biso   1.000  H
  O125     1.0000 0.40320  0.24500  0.03520  Biso   1.000  O
  O126     1.0000 0.37510  0.09610  0.02960  Biso   1.000  O
  O127     1.0000 0.39010  0.99450  0.06941  Biso   1.000  O
  O128     1.0000 0.45980  0.13230  0.07090  Biso   1.000  O
  O129     1.0000 0.49800  0.17730  0.15170  Biso   1.000  O
  O130     1.0000 0.35820  0.18220  0.17090  Biso   1.000  O
  O131     1.0000 0.46860  0.06780  0.19850  Biso   1.000  O
  C243     1.0000 0.19230  0.29420  0.99120  Biso   1.000  C
  C244     1.0000 0.10990  0.26600  0.99600  Biso   1.000  C
  H157     1.0000 0.05840  0.28930  0.98860  Biso   1.000  H
  C245     1.0000 0.09500  0.19800  0.01320  Biso   1.000  C
  H158     1.0000 0.03570  0.17430  0.01660  Biso   1.000  H
  C246     1.0000 0.18290  0.17100  0.02450  Biso   1.000  C
  C247     1.0000 0.26310  0.20900  0.01900  Biso   1.000  C
  C248     1.0000 0.27400  0.27300  0.00230  Biso   1.000  C
  H159     1.0000 0.33200  0.30000  0.99890  Biso   1.000  H
  C249     1.0000 0.16650  0.10090  0.04210  Biso   1.000  C
  C250     1.0000 0.11910  0.01780  0.04080  Biso   1.000  C
  H160     1.0000 0.09590  0.99930  0.02780  Biso   1.000  H
  C251     1.0000 0.10400  0.96000  0.05750  Biso   1.000  C
  H161     1.0000 0.06610  0.90690  0.05670  Biso   1.000  H
  C252     1.0000 0.14900  0.98800  0.07610  Biso   1.000  C
  H162     1.0000 0.14240  0.94880  0.08760  Biso   1.000  H
  C253     1.0000 0.20050  0.06400  0.07870  Biso   1.000  C
  C254     1.0000 0.20520  0.12100  0.06200  Biso   1.000  C
  H163     1.0000 0.23640  0.17830  0.06360  Biso   1.000  H
  C255     1.0000 0.25260  0.08500  0.09840  Biso   1.000  C
  C256     1.0000 0.19920  0.09700  0.11790  Biso   1.000  C
  H164     1.0000 0.13430  0.08920  0.11910  Biso   1.000  H
  C257     1.0000 0.26000  0.12200  0.13480  Biso   1.000  C
  H165     1.0000 0.23110  0.13080  0.14780  Biso   1.000  H
  C258     1.0000 0.34970  0.13500  0.13410  Biso   1.000  C
  C259     1.0000 0.39810  0.12010  0.11570  Biso   1.000  C
  H166     1.0000 0.46310  0.12800  0.11490  Biso   1.000  H
  C260     1.0000 0.34390  0.09160  0.09770  Biso   1.000  C
  C261     1.0000 0.19900  0.36560  0.97470  Biso   1.000  C
  C262     1.0000 0.35330  0.17930  0.02910  Biso   1.000  C
  C263     1.0000 0.40290  0.07420  0.07800  Biso   1.000  C
  C264     1.0000 0.40200  0.16170  0.15360  Biso   1.000  C
  O132     1.0000 0.65700  0.13400  0.18420  Biso   1.000  O
  H167     1.0000 0.69250  0.11550  0.19330  Biso   1.000  H
  H168     1.0000 0.66400  0.09730  0.17310  Biso   1.000  H
  Tb13     1.0000 0.22127  0.48392  0.81209  Biso   1.000  Tb
  O133     1.0000 0.40790  0.87220  0.03430  Biso   1.000  O
  O134     1.0000 0.38500  0.71570  0.03280  Biso   1.000  O
  O135     1.0000 0.10000  0.38400  0.82360  Biso   1.000  O
  H169     1.0000 0.07650  0.36650  0.83590  Biso   1.000  H
  H170     1.0000 0.08200  0.34470  0.81510  Biso   1.000  H
  O136     1.0000 0.24500  0.59680  0.96480  Biso   1.000  O
  O137     1.0000 0.09610  0.62490  0.97040  Biso   1.000  O
  O138     1.0000 0.99450  0.60990  0.93059  Biso   1.000  O
  O139     1.0000 0.13230  0.54020  0.92910  Biso   1.000  O
  O140     1.0000 0.17730  0.50200  0.84830  Biso   1.000  O
  O141     1.0000 0.18220  0.64180  0.82910  Biso   1.000  O
  O142     1.0000 0.06780  0.53140  0.80150  Biso   1.000  O
  C265     1.0000 0.29420  0.80770  0.00880  Biso   1.000  C
  C266     1.0000 0.26600  0.89010  0.00400  Biso   1.000  C
  H171     1.0000 0.28930  0.94160  0.01140  Biso   1.000  H
  C267     1.0000 0.19800  0.90500  0.98680  Biso   1.000  C
  H172     1.0000 0.17430  0.96430  0.98340  Biso   1.000  H
  C268     1.0000 0.17100  0.81710  0.97550  Biso   1.000  C
  C269     1.0000 0.20900  0.73690  0.98100  Biso   1.000  C
  C270     1.0000 0.27300  0.72600  0.99770  Biso   1.000  C
  H173     1.0000 0.30000  0.66800  0.00110  Biso   1.000  H
  C271     1.0000 0.10090  0.83350  0.95790  Biso   1.000  C
  C272     1.0000 0.01780  0.88090  0.95920  Biso   1.000  C
  H174     1.0000 0.99930  0.90410  0.97220  Biso   1.000  H
  C273     1.0000 0.96000  0.89600  0.94250  Biso   1.000  C
  H175     1.0000 0.90690  0.93390  0.94330  Biso   1.000  H
  C274     1.0000 0.98800  0.85100  0.92390  Biso   1.000  C
  H176     1.0000 0.94880  0.85760  0.91240  Biso   1.000  H
  C275     1.0000 0.06400  0.79950  0.92130  Biso   1.000  C
  C276     1.0000 0.12100  0.79480  0.93800  Biso   1.000  C
  H177     1.0000 0.17830  0.76360  0.93640  Biso   1.000  H
  C277     1.0000 0.08500  0.74740  0.90160  Biso   1.000  C
  C278     1.0000 0.09700  0.80080  0.88210  Biso   1.000  C
  H178     1.0000 0.08920  0.86570  0.88090  Biso   1.000  H
  C279     1.0000 0.12200  0.74000  0.86520  Biso   1.000  C
  H179     1.0000 0.13080  0.76890  0.85220  Biso   1.000  H
  C280     1.0000 0.13500  0.65030  0.86590  Biso   1.000  C
  C281     1.0000 0.12010  0.60190  0.88430  Biso   1.000  C
  H180     1.0000 0.12800  0.53690  0.88510  Biso   1.000  H
  C282     1.0000 0.09160  0.65610  0.90230  Biso   1.000  C
  C283     1.0000 0.36560  0.80100  0.02530  Biso   1.000  C
  C284     1.0000 0.17930  0.64670  0.97090  Biso   1.000  C
  C285     1.0000 0.07420  0.59710  0.92200  Biso   1.000  C
  C286     1.0000 0.16170  0.59800  0.84640  Biso   1.000  C
  O143     1.0000 0.13400  0.34300  0.81580  Biso   1.000  O
  H181     1.0000 0.11550  0.30750  0.80670  Biso   1.000  H
  H182     1.0000 0.09730  0.33600  0.82690  Biso   1.000  H
  Tb14     1.0000 0.72127  0.98392  0.31209  Biso   1.000  Tb
  O144     1.0000 0.90790  0.37220  0.53430  Biso   1.000  O
  O145     1.0000 0.88500  0.21570  0.53280  Biso   1.000  O
  O146     1.0000 0.60000  0.88400  0.32360  Biso   1.000  O
  H183     1.0000 0.57650  0.86650  0.33590  Biso   1.000  H
  H184     1.0000 0.58200  0.84470  0.31510  Biso   1.000  H
  O147     1.0000 0.74500  0.09680  0.46480  Biso   1.000  O
  O148     1.0000 0.59610  0.12490  0.47040  Biso   1.000  O
  O149     1.0000 0.49450  0.10990  0.43059  Biso   1.000  O
  O150     1.0000 0.63230  0.04020  0.42910  Biso   1.000  O
  O151     1.0000 0.67730  0.00200  0.34830  Biso   1.000  O
  O152     1.0000 0.68220  0.14180  0.32910  Biso   1.000  O
  O153     1.0000 0.56780  0.03140  0.30150  Biso   1.000  O
  C287     1.0000 0.79420  0.30770  0.50880  Biso   1.000  C
  C288     1.0000 0.76600  0.39010  0.50400  Biso   1.000  C
  H185     1.0000 0.78930  0.44160  0.51140  Biso   1.000  H
  C289     1.0000 0.69800  0.40500  0.48680  Biso   1.000  C
  H186     1.0000 0.67430  0.46430  0.48340  Biso   1.000  H
  C290     1.0000 0.67100  0.31710  0.47550  Biso   1.000  C
  C291     1.0000 0.70900  0.23690  0.48100  Biso   1.000  C
  C292     1.0000 0.77300  0.22600  0.49770  Biso   1.000  C
  H187     1.0000 0.80000  0.16800  0.50110  Biso   1.000  H
  C293     1.0000 0.60090  0.33350  0.45790  Biso   1.000  C
  C294     1.0000 0.51780  0.38090  0.45920  Biso   1.000  C
  H188     1.0000 0.49930  0.40410  0.47220  Biso   1.000  H
  C295     1.0000 0.46000  0.39600  0.44250  Biso   1.000  C
  H189     1.0000 0.40690  0.43390  0.44330  Biso   1.000  H
  C296     1.0000 0.48800  0.35100  0.42390  Biso   1.000  C
  H190     1.0000 0.44880  0.35760  0.41240  Biso   1.000  H
  C297     1.0000 0.56400  0.29950  0.42130  Biso   1.000  C
  C298     1.0000 0.62100  0.29480  0.43800  Biso   1.000  C
  H191     1.0000 0.67830  0.26360  0.43640  Biso   1.000  H
  C299     1.0000 0.58500  0.24740  0.40160  Biso   1.000  C
  C300     1.0000 0.59700  0.30080  0.38210  Biso   1.000  C
  H192     1.0000 0.58920  0.36570  0.38090  Biso   1.000  H
  C301     1.0000 0.62200  0.24000  0.36520  Biso   1.000  C
  H193     1.0000 0.63080  0.26890  0.35220  Biso   1.000  H
  C302     1.0000 0.63500  0.15030  0.36590  Biso   1.000  C
  C303     1.0000 0.62010  0.10190  0.38430  Biso   1.000  C
  H194     1.0000 0.62800  0.03690  0.38510  Biso   1.000  H
  C304     1.0000 0.59160  0.15610  0.40230  Biso   1.000  C
  C305     1.0000 0.86560  0.30100  0.52530  Biso   1.000  C
  C306     1.0000 0.67930  0.14670  0.47090  Biso   1.000  C
  C307     1.0000 0.57420  0.09710  0.42200  Biso   1.000  C
  C308     1.0000 0.66170  0.09800  0.34640  Biso   1.000  C
  O154     1.0000 0.63400  0.84300  0.31580  Biso   1.000  O
  H195     1.0000 0.61550  0.80750  0.30670  Biso   1.000  H
  H196     1.0000 0.59730  0.83600  0.32690  Biso   1.000  H
  Tb15     1.0000 0.77873  0.51608  0.81209  Biso   1.000  Tb
  O155     1.0000 0.59210  0.12780  0.03430  Biso   1.000  O
  O156     1.0000 0.61500  0.28430  0.03280  Biso   1.000  O
  O157     1.0000 0.90000  0.61600  0.82360  Biso   1.000  O
  H197     1.0000 0.92350  0.63350  0.83590  Biso   1.000  H
  H198     1.0000 0.91800  0.65530  0.81510  Biso   1.000  H
  O158     1.0000 0.75500  0.40320  0.96480  Biso   1.000  O
  O159     1.0000 0.90390  0.37510  0.97040  Biso   1.000  O
  O160     1.0000 0.00550  0.39010  0.93059  Biso   1.000  O
  O161     1.0000 0.86770  0.45980  0.92910  Biso   1.000  O
  O162     1.0000 0.82270  0.49800  0.84830  Biso   1.000  O
  O163     1.0000 0.81780  0.35820  0.82910  Biso   1.000  O
  O164     1.0000 0.93220  0.46860  0.80150  Biso   1.000  O
  C309     1.0000 0.70580  0.19230  0.00880  Biso   1.000  C
  C310     1.0000 0.73400  0.10990  0.00400  Biso   1.000  C
  H199     1.0000 0.71070  0.05840  0.01140  Biso   1.000  H
  C311     1.0000 0.80200  0.09500  0.98680  Biso   1.000  C
  H200     1.0000 0.82570  0.03570  0.98340  Biso   1.000  H
  C312     1.0000 0.82900  0.18290  0.97550  Biso   1.000  C
  C313     1.0000 0.79100  0.26310  0.98100  Biso   1.000  C
  C314     1.0000 0.72700  0.27400  0.99770  Biso   1.000  C
  H201     1.0000 0.70000  0.33200  0.00110  Biso   1.000  H
  C315     1.0000 0.89910  0.16650  0.95790  Biso   1.000  C
  C316     1.0000 0.98220  0.11910  0.95920  Biso   1.000  C
  H202     1.0000 0.00070  0.09590  0.97220  Biso   1.000  H
  C317     1.0000 0.04000  0.10400  0.94250  Biso   1.000  C
  H203     1.0000 0.09310  0.06610  0.94330  Biso   1.000  H
  C318     1.0000 0.01200  0.14900  0.92390  Biso   1.000  C
  H204     1.0000 0.05120  0.14240  0.91240  Biso   1.000  H
  C319     1.0000 0.93600  0.20050  0.92130  Biso   1.000  C
  C320     1.0000 0.87900  0.20520  0.93800  Biso   1.000  C
  H205     1.0000 0.82170  0.23640  0.93640  Biso   1.000  H
  C321     1.0000 0.91500  0.25260  0.90160  Biso   1.000  C
  C322     1.0000 0.90300  0.19920  0.88210  Biso   1.000  C
  H206     1.0000 0.91080  0.13430  0.88090  Biso   1.000  H
  C323     1.0000 0.87800  0.26000  0.86520  Biso   1.000  C
  H207     1.0000 0.86920  0.23110  0.85220  Biso   1.000  H
  C324     1.0000 0.86500  0.34970  0.86590  Biso   1.000  C
  C325     1.0000 0.87990  0.39810  0.88430  Biso   1.000  C
  H208     1.0000 0.87200  0.46310  0.88510  Biso   1.000  H
  C326     1.0000 0.90840  0.34390  0.90230  Biso   1.000  C
  C327     1.0000 0.63440  0.19900  0.02530  Biso   1.000  C
  C328     1.0000 0.82070  0.35330  0.97090  Biso   1.000  C
  C329     1.0000 0.92580  0.40290  0.92200  Biso   1.000  C
  C330     1.0000 0.83830  0.40200  0.84640  Biso   1.000  C
  O165     1.0000 0.86600  0.65700  0.81580  Biso   1.000  O
  H209     1.0000 0.88450  0.69250  0.80670  Biso   1.000  H
  H210     1.0000 0.90270  0.66400  0.82690  Biso   1.000  H
  Tb16     1.0000 0.27873  0.01608  0.31209  Biso   1.000  Tb
  O166     1.0000 0.09210  0.62780  0.53430  Biso   1.000  O
  O167     1.0000 0.11500  0.78430  0.53280  Biso   1.000  O
  O168     1.0000 0.40000  0.11600  0.32360  Biso   1.000  O
  H211     1.0000 0.42350  0.13350  0.33590  Biso   1.000  H
  H212     1.0000 0.41800  0.15530  0.31510  Biso   1.000  H
  O169     1.0000 0.25500  0.90320  0.46480  Biso   1.000  O
  O170     1.0000 0.40390  0.87510  0.47040  Biso   1.000  O
  O171     1.0000 0.50550  0.89010  0.43059  Biso   1.000  O
  O172     1.0000 0.36770  0.95980  0.42910  Biso   1.000  O
  O173     1.0000 0.32270  0.99800  0.34830  Biso   1.000  O
  O174     1.0000 0.31780  0.85820  0.32910  Biso   1.000  O
  O175     1.0000 0.43220  0.96860  0.30150  Biso   1.000  O
  C331     1.0000 0.20580  0.69230  0.50880  Biso   1.000  C
  C332     1.0000 0.23400  0.60990  0.50400  Biso   1.000  C
  H213     1.0000 0.21070  0.55840  0.51140  Biso   1.000  H
  C333     1.0000 0.30200  0.59500  0.48680  Biso   1.000  C
  H214     1.0000 0.32570  0.53570  0.48340  Biso   1.000  H
  C334     1.0000 0.32900  0.68290  0.47550  Biso   1.000  C
  C335     1.0000 0.29100  0.76310  0.48100  Biso   1.000  C
  C336     1.0000 0.22700  0.77400  0.49770  Biso   1.000  C
  H215     1.0000 0.20000  0.83200  0.50110  Biso   1.000  H
  C337     1.0000 0.39910  0.66650  0.45790  Biso   1.000  C
  C338     1.0000 0.48220  0.61910  0.45920  Biso   1.000  C
  H216     1.0000 0.50070  0.59590  0.47220  Biso   1.000  H
  C339     1.0000 0.54000  0.60400  0.44250  Biso   1.000  C
  H217     1.0000 0.59310  0.56610  0.44330  Biso   1.000  H
  C340     1.0000 0.51200  0.64900  0.42390  Biso   1.000  C
  H218     1.0000 0.55120  0.64240  0.41240  Biso   1.000  H
  C341     1.0000 0.43600  0.70050  0.42130  Biso   1.000  C
  C342     1.0000 0.37900  0.70520  0.43800  Biso   1.000  C
  H219     1.0000 0.32170  0.73640  0.43640  Biso   1.000  H
  C343     1.0000 0.41500  0.75260  0.40160  Biso   1.000  C
  C344     1.0000 0.40300  0.69920  0.38210  Biso   1.000  C
  H220     1.0000 0.41080  0.63430  0.38090  Biso   1.000  H
  C345     1.0000 0.37800  0.76000  0.36520  Biso   1.000  C
  H221     1.0000 0.36920  0.73110  0.35220  Biso   1.000  H
  C346     1.0000 0.36500  0.84970  0.36590  Biso   1.000  C
  C347     1.0000 0.37990  0.89810  0.38430  Biso   1.000  C
  H222     1.0000 0.37200  0.96310  0.38510  Biso   1.000  H
  C348     1.0000 0.40840  0.84390  0.40230  Biso   1.000  C
  C349     1.0000 0.13440  0.69900  0.52530  Biso   1.000  C
  C350     1.0000 0.32070  0.85330  0.47090  Biso   1.000  C
  C351     1.0000 0.42580  0.90290  0.42200  Biso   1.000  C
  C352     1.0000 0.33830  0.90200  0.34640  Biso   1.000  C
  O176     1.0000 0.36600  0.15700  0.31580  Biso   1.000  O
  H223     1.0000 0.38450  0.19250  0.30670  Biso   1.000  H
  H224     1.0000 0.40270  0.16400  0.32690  Biso   1.000  H
  Tb17     1.0000 0.00000  0.00000  0.29020  Biso   1.000  Tb
  Tb18     1.0000 0.50000  0.50000  0.79020  Biso   1.000  Tb
  Tb19     1.0000 0.00000  0.00000  0.70980  Biso   1.000  Tb
  Tb20     1.0000 0.50000  0.50000  0.20980  Biso   1.000  Tb
  Tb21     1.0000 0.50000  0.00000  0.45980  Biso   1.000  Tb
  Tb22     1.0000 0.00000  0.50000  0.95980  Biso   1.000  Tb
  Tb23     1.0000 0.50000  0.00000  0.04020  Biso   1.000  Tb
  Tb24     1.0000 0.00000  0.50000  0.54020  Biso   1.000  Tb
  C353     1.0000 0.50000  0.50000  0.05860  Biso   1.000  C
  H225     1.0000 0.50000  0.50000  0.07320  Biso   1.000  H
  C354     1.0000 0.00000  0.00000  0.55860  Biso   1.000  C
  H226     1.0000 0.00000  0.00000  0.57320  Biso   1.000  H
  C355     1.0000 0.50000  0.50000  0.94140  Biso   1.000  C
  H227     1.0000 0.50000  0.50000  0.92680  Biso   1.000  H
  C356     1.0000 0.00000  0.00000  0.44140  Biso   1.000  C
  H228     1.0000 0.00000  0.00000  0.42680  Biso   1.000  H
  C357     1.0000 0.00000  0.50000  0.69140  Biso   1.000  C
  H229     1.0000 0.00000  0.50000  0.67680  Biso   1.000  H
  C358     1.0000 0.50000  0.00000  0.19140  Biso   1.000  C
  H230     1.0000 0.50000  0.00000  0.17680  Biso   1.000  H
  C359     1.0000 0.00000  0.50000  0.80860  Biso   1.000  C
  H231     1.0000 0.00000  0.50000  0.82320  Biso   1.000  H
  C360     1.0000 0.50000  0.00000  0.30860  Biso   1.000  C
  H232     1.0000 0.50000  0.00000  0.32320  Biso   1.000  H
