data_image0
_cell_length_a       38.4224
_cell_length_b       38.4224
_cell_length_c       38.4224
_cell_angle_alpha    90
_cell_angle_beta     90
_cell_angle_gamma    90

_symmetry_space_group_name_H-M    "P 1"
_symmetry_int_tables_number       1

loop_
  _symmetry_equiv_pos_as_xyz
  'x, y, z'

loop_
  _atom_site_label
  _atom_site_occupancy
  _atom_site_fract_x
  _atom_site_fract_y
  _atom_site_fract_z
  _atom_site_thermal_displace_type
  _atom_site_B_iso_or_equiv
  _atom_site_type_symbol
  C1       1.0000 0.23318  0.26544  0.48930  Biso   1.000  C
  H1       1.0000 0.22880  0.28330  0.47240  Biso   1.000  H
  C2       1.0000 0.20803  0.24031  0.49600  Biso   1.000  C
  C3       1.0000 0.24589  0.21361  0.53820  Biso   1.000  C
  H2       1.0000 0.25030  0.19570  0.55500  Biso   1.000  H
  C4       1.0000 0.27104  0.23874  0.53150  Biso   1.000  C
  C5       1.0000 0.10446  0.14560  0.53100  Biso   1.000  C
  H3       1.0000 0.09830  0.16790  0.52140  Biso   1.000  H
  C6       1.0000 0.07908  0.12020  0.53540  Biso   1.000  C
  H4       1.0000 0.05540  0.12490  0.52890  Biso   1.000  H
  C7       1.0000 0.12220  0.08120  0.55870  Biso   1.000  C
  H5       1.0000 0.12840  0.05900  0.56830  Biso   1.000  H
  C8       1.0000 0.14758  0.10660  0.55430  Biso   1.000  C
  H6       1.0000 0.17120  0.10200  0.56090  Biso   1.000  H
  C9       1.0000 0.07819  0.03059  0.54910  Biso   1.000  C
  C10      1.0000 0.11092  0.01762  0.55090  Biso   1.000  C
  C11      1.0000 0.14143  0.04076  0.55880  Biso   1.000  C
  H7       1.0000 0.14580  0.03830  0.58330  Biso   1.000  H
  H8       1.0000 0.13470  0.06450  0.55490  Biso   1.000  H
  C12      1.0000 0.17770  0.02980  0.54870  Biso   1.000  C
  H9       1.0000 0.19460  0.04600  0.55880  Biso   1.000  H
  H10      1.0000 0.17990  0.03010  0.52330  Biso   1.000  H
  H11      1.0000 0.18220  0.00630  0.55730  Biso   1.000  H
  C13      1.0000 0.17384  0.24120  0.47670  Biso   1.000  C
  H12      1.0000 0.15950  0.22210  0.48420  Biso   1.000  H
  H13      1.0000 0.16220  0.26270  0.48140  Biso   1.000  H
  H14      1.0000 0.17820  0.23920  0.45220  Biso   1.000  H
  C14      1.0000 0.30522  0.23790  0.55080  Biso   1.000  C
  H15      1.0000 0.30540  0.21850  0.56650  Biso   1.000  H
  H16      1.0000 0.32400  0.23560  0.53450  Biso   1.000  H
  H17      1.0000 0.30800  0.25910  0.56380  Biso   1.000  H
  C15      1.0000 0.76682  0.73456  0.48930  Biso   1.000  C
  H18      1.0000 0.77120  0.71670  0.47240  Biso   1.000  H
  C16      1.0000 0.79197  0.75969  0.49600  Biso   1.000  C
  C17      1.0000 0.75411  0.78639  0.53820  Biso   1.000  C
  H19      1.0000 0.74970  0.80430  0.55500  Biso   1.000  H
  C18      1.0000 0.72896  0.76126  0.53150  Biso   1.000  C
  C19      1.0000 0.89554  0.85440  0.53100  Biso   1.000  C
  H20      1.0000 0.90170  0.83210  0.52140  Biso   1.000  H
  C20      1.0000 0.92092  0.87980  0.53540  Biso   1.000  C
  H21      1.0000 0.94460  0.87510  0.52890  Biso   1.000  H
  C21      1.0000 0.87780  0.91880  0.55870  Biso   1.000  C
  H22      1.0000 0.87160  0.94100  0.56830  Biso   1.000  H
  C22      1.0000 0.85242  0.89340  0.55430  Biso   1.000  C
  H23      1.0000 0.82880  0.89800  0.56090  Biso   1.000  H
  C23      1.0000 0.92181  0.96941  0.54910  Biso   1.000  C
  C24      1.0000 0.88908  0.98238  0.55090  Biso   1.000  C
  C25      1.0000 0.85857  0.95924  0.55880  Biso   1.000  C
  H24      1.0000 0.85420  0.96170  0.58330  Biso   1.000  H
  H25      1.0000 0.86530  0.93550  0.55490  Biso   1.000  H
  C26      1.0000 0.82230  0.97020  0.54870  Biso   1.000  C
  H26      1.0000 0.80540  0.95400  0.55880  Biso   1.000  H
  H27      1.0000 0.82010  0.96990  0.52330  Biso   1.000  H
  H28      1.0000 0.81780  0.99370  0.55730  Biso   1.000  H
  C27      1.0000 0.82616  0.75880  0.47670  Biso   1.000  C
  H29      1.0000 0.84050  0.77790  0.48420  Biso   1.000  H
  H30      1.0000 0.83780  0.73730  0.48140  Biso   1.000  H
  H31      1.0000 0.82180  0.76080  0.45220  Biso   1.000  H
  C28      1.0000 0.69478  0.76210  0.55080  Biso   1.000  C
  H32      1.0000 0.69460  0.78150  0.56650  Biso   1.000  H
  H33      1.0000 0.67600  0.76440  0.53450  Biso   1.000  H
  H34      1.0000 0.69200  0.74090  0.56380  Biso   1.000  H
  C29      1.0000 0.76682  0.26544  0.51070  Biso   1.000  C
  H35      1.0000 0.77120  0.28330  0.52760  Biso   1.000  H
  C30      1.0000 0.79197  0.24031  0.50400  Biso   1.000  C
  C31      1.0000 0.75411  0.21361  0.46180  Biso   1.000  C
  H36      1.0000 0.74970  0.19570  0.44500  Biso   1.000  H
  C32      1.0000 0.72896  0.23874  0.46850  Biso   1.000  C
  C33      1.0000 0.89554  0.14560  0.46900  Biso   1.000  C
  H37      1.0000 0.90170  0.16790  0.47860  Biso   1.000  H
  C34      1.0000 0.92092  0.12020  0.46460  Biso   1.000  C
  H38      1.0000 0.94460  0.12490  0.47110  Biso   1.000  H
  C35      1.0000 0.87780  0.08120  0.44130  Biso   1.000  C
  H39      1.0000 0.87160  0.05900  0.43170  Biso   1.000  H
  C36      1.0000 0.85242  0.10660  0.44570  Biso   1.000  C
  H40      1.0000 0.82880  0.10200  0.43910  Biso   1.000  H
  C37      1.0000 0.92181  0.03059  0.45090  Biso   1.000  C
  C38      1.0000 0.88908  0.01762  0.44910  Biso   1.000  C
  C39      1.0000 0.85857  0.04076  0.44120  Biso   1.000  C
  H41      1.0000 0.85420  0.03830  0.41670  Biso   1.000  H
  H42      1.0000 0.86530  0.06450  0.44510  Biso   1.000  H
  C40      1.0000 0.82230  0.02980  0.45130  Biso   1.000  C
  H43      1.0000 0.80540  0.04600  0.44120  Biso   1.000  H
  H44      1.0000 0.82010  0.03010  0.47670  Biso   1.000  H
  H45      1.0000 0.81780  0.00630  0.44270  Biso   1.000  H
  C41      1.0000 0.82616  0.24120  0.52330  Biso   1.000  C
  H46      1.0000 0.84050  0.22210  0.51580  Biso   1.000  H
  H47      1.0000 0.83780  0.26270  0.51860  Biso   1.000  H
  H48      1.0000 0.82180  0.23920  0.54780  Biso   1.000  H
  C42      1.0000 0.69478  0.23790  0.44920  Biso   1.000  C
  H49      1.0000 0.69460  0.21850  0.43350  Biso   1.000  H
  H50      1.0000 0.67600  0.23560  0.46550  Biso   1.000  H
  H51      1.0000 0.69200  0.25910  0.43620  Biso   1.000  H
  C43      1.0000 0.23318  0.73456  0.51070  Biso   1.000  C
  H52      1.0000 0.22880  0.71670  0.52760  Biso   1.000  H
  C44      1.0000 0.20803  0.75969  0.50400  Biso   1.000  C
  C45      1.0000 0.24589  0.78639  0.46180  Biso   1.000  C
  H53      1.0000 0.25030  0.80430  0.44500  Biso   1.000  H
  C46      1.0000 0.27104  0.76126  0.46850  Biso   1.000  C
  C47      1.0000 0.10446  0.85440  0.46900  Biso   1.000  C
  H54      1.0000 0.09830  0.83210  0.47860  Biso   1.000  H
  C48      1.0000 0.07908  0.87980  0.46460  Biso   1.000  C
  H55      1.0000 0.05540  0.87510  0.47110  Biso   1.000  H
  C49      1.0000 0.12220  0.91880  0.44130  Biso   1.000  C
  H56      1.0000 0.12840  0.94100  0.43170  Biso   1.000  H
  C50      1.0000 0.14758  0.89340  0.44570  Biso   1.000  C
  H57      1.0000 0.17120  0.89800  0.43910  Biso   1.000  H
  C51      1.0000 0.07819  0.96941  0.45090  Biso   1.000  C
  C52      1.0000 0.11092  0.98238  0.44910  Biso   1.000  C
  C53      1.0000 0.14143  0.95924  0.44120  Biso   1.000  C
  H58      1.0000 0.14580  0.96170  0.41670  Biso   1.000  H
  H59      1.0000 0.13470  0.93550  0.44510  Biso   1.000  H
  C54      1.0000 0.17770  0.97020  0.45130  Biso   1.000  C
  H60      1.0000 0.19460  0.95400  0.44120  Biso   1.000  H
  H61      1.0000 0.17990  0.96990  0.47670  Biso   1.000  H
  H62      1.0000 0.18220  0.99370  0.44270  Biso   1.000  H
  C55      1.0000 0.17384  0.75880  0.52330  Biso   1.000  C
  H63      1.0000 0.15950  0.77790  0.51580  Biso   1.000  H
  H64      1.0000 0.16220  0.73730  0.51860  Biso   1.000  H
  H65      1.0000 0.17820  0.76080  0.54780  Biso   1.000  H
  C56      1.0000 0.30522  0.76210  0.44920  Biso   1.000  C
  H66      1.0000 0.30540  0.78150  0.43350  Biso   1.000  H
  H67      1.0000 0.32400  0.76440  0.46550  Biso   1.000  H
  H68      1.0000 0.30800  0.74090  0.43620  Biso   1.000  H
  C57      1.0000 0.48930  0.23318  0.26544  Biso   1.000  C
  H69      1.0000 0.47240  0.22880  0.28330  Biso   1.000  H
  C58      1.0000 0.49600  0.20803  0.24031  Biso   1.000  C
  C59      1.0000 0.53820  0.24589  0.21361  Biso   1.000  C
  H70      1.0000 0.55500  0.25030  0.19570  Biso   1.000  H
  C60      1.0000 0.53150  0.27104  0.23874  Biso   1.000  C
  C61      1.0000 0.53100  0.10446  0.14560  Biso   1.000  C
  H71      1.0000 0.52140  0.09830  0.16790  Biso   1.000  H
  C62      1.0000 0.53540  0.07908  0.12020  Biso   1.000  C
  H72      1.0000 0.52890  0.05540  0.12490  Biso   1.000  H
  C63      1.0000 0.55870  0.12220  0.08120  Biso   1.000  C
  H73      1.0000 0.56830  0.12840  0.05900  Biso   1.000  H
  C64      1.0000 0.55430  0.14758  0.10660  Biso   1.000  C
  H74      1.0000 0.56090  0.17120  0.10200  Biso   1.000  H
  C65      1.0000 0.54910  0.07819  0.03059  Biso   1.000  C
  C66      1.0000 0.55090  0.11092  0.01762  Biso   1.000  C
  C67      1.0000 0.55880  0.14143  0.04076  Biso   1.000  C
  H75      1.0000 0.58330  0.14580  0.03830  Biso   1.000  H
  H76      1.0000 0.55490  0.13470  0.06450  Biso   1.000  H
  C68      1.0000 0.54870  0.17770  0.02980  Biso   1.000  C
  H77      1.0000 0.55880  0.19460  0.04600  Biso   1.000  H
  H78      1.0000 0.52330  0.17990  0.03010  Biso   1.000  H
  H79      1.0000 0.55730  0.18220  0.00630  Biso   1.000  H
  C69      1.0000 0.47670  0.17384  0.24120  Biso   1.000  C
  H80      1.0000 0.48420  0.15950  0.22210  Biso   1.000  H
  H81      1.0000 0.48140  0.16220  0.26270  Biso   1.000  H
  H82      1.0000 0.45220  0.17820  0.23920  Biso   1.000  H
  C70      1.0000 0.55080  0.30522  0.23790  Biso   1.000  C
  H83      1.0000 0.56650  0.30540  0.21850  Biso   1.000  H
  H84      1.0000 0.53450  0.32400  0.23560  Biso   1.000  H
  H85      1.0000 0.56380  0.30800  0.25910  Biso   1.000  H
  C71      1.0000 0.48930  0.76682  0.73456  Biso   1.000  C
  H86      1.0000 0.47240  0.77120  0.71670  Biso   1.000  H
  C72      1.0000 0.49600  0.79197  0.75969  Biso   1.000  C
  C73      1.0000 0.53820  0.75411  0.78639  Biso   1.000  C
  H87      1.0000 0.55500  0.74970  0.80430  Biso   1.000  H
  C74      1.0000 0.53150  0.72896  0.76126  Biso   1.000  C
  C75      1.0000 0.53100  0.89554  0.85440  Biso   1.000  C
  H88      1.0000 0.52140  0.90170  0.83210  Biso   1.000  H
  C76      1.0000 0.53540  0.92092  0.87980  Biso   1.000  C
  H89      1.0000 0.52890  0.94460  0.87510  Biso   1.000  H
  C77      1.0000 0.55870  0.87780  0.91880  Biso   1.000  C
  H90      1.0000 0.56830  0.87160  0.94100  Biso   1.000  H
  C78      1.0000 0.55430  0.85242  0.89340  Biso   1.000  C
  H91      1.0000 0.56090  0.82880  0.89800  Biso   1.000  H
  C79      1.0000 0.54910  0.92181  0.96941  Biso   1.000  C
  C80      1.0000 0.55090  0.88908  0.98238  Biso   1.000  C
  C81      1.0000 0.55880  0.85857  0.95924  Biso   1.000  C
  H92      1.0000 0.58330  0.85420  0.96170  Biso   1.000  H
  H93      1.0000 0.55490  0.86530  0.93550  Biso   1.000  H
  C82      1.0000 0.54870  0.82230  0.97020  Biso   1.000  C
  H94      1.0000 0.55880  0.80540  0.95400  Biso   1.000  H
  H95      1.0000 0.52330  0.82010  0.96990  Biso   1.000  H
  H96      1.0000 0.55730  0.81780  0.99370  Biso   1.000  H
  C83      1.0000 0.47670  0.82616  0.75880  Biso   1.000  C
  H97      1.0000 0.48420  0.84050  0.77790  Biso   1.000  H
  H98      1.0000 0.48140  0.83780  0.73730  Biso   1.000  H
  H99      1.0000 0.45220  0.82180  0.76080  Biso   1.000  H
  C84      1.0000 0.55080  0.69478  0.76210  Biso   1.000  C
  H100     1.0000 0.56650  0.69460  0.78150  Biso   1.000  H
  H101     1.0000 0.53450  0.67600  0.76440  Biso   1.000  H
  H102     1.0000 0.56380  0.69200  0.74090  Biso   1.000  H
  C85      1.0000 0.51070  0.76682  0.26544  Biso   1.000  C
  H103     1.0000 0.52760  0.77120  0.28330  Biso   1.000  H
  C86      1.0000 0.50400  0.79197  0.24031  Biso   1.000  C
  C87      1.0000 0.46180  0.75411  0.21361  Biso   1.000  C
  H104     1.0000 0.44500  0.74970  0.19570  Biso   1.000  H
  C88      1.0000 0.46850  0.72896  0.23874  Biso   1.000  C
  C89      1.0000 0.46900  0.89554  0.14560  Biso   1.000  C
  H105     1.0000 0.47860  0.90170  0.16790  Biso   1.000  H
  C90      1.0000 0.46460  0.92092  0.12020  Biso   1.000  C
  H106     1.0000 0.47110  0.94460  0.12490  Biso   1.000  H
  C91      1.0000 0.44130  0.87780  0.08120  Biso   1.000  C
  H107     1.0000 0.43170  0.87160  0.05900  Biso   1.000  H
  C92      1.0000 0.44570  0.85242  0.10660  Biso   1.000  C
  H108     1.0000 0.43910  0.82880  0.10200  Biso   1.000  H
  C93      1.0000 0.45090  0.92181  0.03059  Biso   1.000  C
  C94      1.0000 0.44910  0.88908  0.01762  Biso   1.000  C
  C95      1.0000 0.44120  0.85857  0.04076  Biso   1.000  C
  H109     1.0000 0.41670  0.85420  0.03830  Biso   1.000  H
  H110     1.0000 0.44510  0.86530  0.06450  Biso   1.000  H
  C96      1.0000 0.45130  0.82230  0.02980  Biso   1.000  C
  H111     1.0000 0.44120  0.80540  0.04600  Biso   1.000  H
  H112     1.0000 0.47670  0.82010  0.03010  Biso   1.000  H
  H113     1.0000 0.44270  0.81780  0.00630  Biso   1.000  H
  C97      1.0000 0.52330  0.82616  0.24120  Biso   1.000  C
  H114     1.0000 0.51580  0.84050  0.22210  Biso   1.000  H
  H115     1.0000 0.51860  0.83780  0.26270  Biso   1.000  H
  H116     1.0000 0.54780  0.82180  0.23920  Biso   1.000  H
  C98      1.0000 0.44920  0.69478  0.23790  Biso   1.000  C
  H117     1.0000 0.43350  0.69460  0.21850  Biso   1.000  H
  H118     1.0000 0.46550  0.67600  0.23560  Biso   1.000  H
  H119     1.0000 0.43620  0.69200  0.25910  Biso   1.000  H
  C99      1.0000 0.51070  0.23318  0.73456  Biso   1.000  C
  H120     1.0000 0.52760  0.22880  0.71670  Biso   1.000  H
  C100     1.0000 0.50400  0.20803  0.75969  Biso   1.000  C
  C101     1.0000 0.46180  0.24589  0.78639  Biso   1.000  C
  H121     1.0000 0.44500  0.25030  0.80430  Biso   1.000  H
  C102     1.0000 0.46850  0.27104  0.76126  Biso   1.000  C
  C103     1.0000 0.46900  0.10446  0.85440  Biso   1.000  C
  H122     1.0000 0.47860  0.09830  0.83210  Biso   1.000  H
  C104     1.0000 0.46460  0.07908  0.87980  Biso   1.000  C
  H123     1.0000 0.47110  0.05540  0.87510  Biso   1.000  H
  C105     1.0000 0.44130  0.12220  0.91880  Biso   1.000  C
  H124     1.0000 0.43170  0.12840  0.94100  Biso   1.000  H
  C106     1.0000 0.44570  0.14758  0.89340  Biso   1.000  C
  H125     1.0000 0.43910  0.17120  0.89800  Biso   1.000  H
  C107     1.0000 0.45090  0.07819  0.96941  Biso   1.000  C
  C108     1.0000 0.44910  0.11092  0.98238  Biso   1.000  C
  C109     1.0000 0.44120  0.14143  0.95924  Biso   1.000  C
  H126     1.0000 0.41670  0.14580  0.96170  Biso   1.000  H
  H127     1.0000 0.44510  0.13470  0.93550  Biso   1.000  H
  C110     1.0000 0.45130  0.17770  0.97020  Biso   1.000  C
  H128     1.0000 0.44120  0.19460  0.95400  Biso   1.000  H
  H129     1.0000 0.47670  0.17990  0.96990  Biso   1.000  H
  H130     1.0000 0.44270  0.18220  0.99370  Biso   1.000  H
  C111     1.0000 0.52330  0.17384  0.75880  Biso   1.000  C
  H131     1.0000 0.51580  0.15950  0.77790  Biso   1.000  H
  H132     1.0000 0.51860  0.16220  0.73730  Biso   1.000  H
  H133     1.0000 0.54780  0.17820  0.76080  Biso   1.000  H
  C112     1.0000 0.44920  0.30522  0.76210  Biso   1.000  C
  H134     1.0000 0.43350  0.30540  0.78150  Biso   1.000  H
  H135     1.0000 0.46550  0.32400  0.76440  Biso   1.000  H
  H136     1.0000 0.43620  0.30800  0.74090  Biso   1.000  H
  C113     1.0000 0.26544  0.48930  0.23318  Biso   1.000  C
  H137     1.0000 0.28330  0.47240  0.22880  Biso   1.000  H
  C114     1.0000 0.24031  0.49600  0.20803  Biso   1.000  C
  C115     1.0000 0.21361  0.53820  0.24589  Biso   1.000  C
  H138     1.0000 0.19570  0.55500  0.25030  Biso   1.000  H
  C116     1.0000 0.23874  0.53150  0.27104  Biso   1.000  C
  C117     1.0000 0.14560  0.53100  0.10446  Biso   1.000  C
  H139     1.0000 0.16790  0.52140  0.09830  Biso   1.000  H
  C118     1.0000 0.12020  0.53540  0.07908  Biso   1.000  C
  H140     1.0000 0.12490  0.52890  0.05540  Biso   1.000  H
  C119     1.0000 0.08120  0.55870  0.12220  Biso   1.000  C
  H141     1.0000 0.05900  0.56830  0.12840  Biso   1.000  H
  C120     1.0000 0.10660  0.55430  0.14758  Biso   1.000  C
  H142     1.0000 0.10200  0.56090  0.17120  Biso   1.000  H
  C121     1.0000 0.03059  0.54910  0.07819  Biso   1.000  C
  C122     1.0000 0.01762  0.55090  0.11092  Biso   1.000  C
  C123     1.0000 0.04076  0.55880  0.14143  Biso   1.000  C
  H143     1.0000 0.03830  0.58330  0.14580  Biso   1.000  H
  H144     1.0000 0.06450  0.55490  0.13470  Biso   1.000  H
  C124     1.0000 0.02980  0.54870  0.17770  Biso   1.000  C
  H145     1.0000 0.04600  0.55880  0.19460  Biso   1.000  H
  H146     1.0000 0.03010  0.52330  0.17990  Biso   1.000  H
  H147     1.0000 0.00630  0.55730  0.18220  Biso   1.000  H
  C125     1.0000 0.24120  0.47670  0.17384  Biso   1.000  C
  H148     1.0000 0.22210  0.48420  0.15950  Biso   1.000  H
  H149     1.0000 0.26270  0.48140  0.16220  Biso   1.000  H
  H150     1.0000 0.23920  0.45220  0.17820  Biso   1.000  H
  C126     1.0000 0.23790  0.55080  0.30522  Biso   1.000  C
  H151     1.0000 0.21850  0.56650  0.30540  Biso   1.000  H
  H152     1.0000 0.23560  0.53450  0.32400  Biso   1.000  H
  H153     1.0000 0.25910  0.56380  0.30800  Biso   1.000  H
  C127     1.0000 0.73456  0.48930  0.76682  Biso   1.000  C
  H154     1.0000 0.71670  0.47240  0.77120  Biso   1.000  H
  C128     1.0000 0.75969  0.49600  0.79197  Biso   1.000  C
  C129     1.0000 0.78639  0.53820  0.75411  Biso   1.000  C
  H155     1.0000 0.80430  0.55500  0.74970  Biso   1.000  H
  C130     1.0000 0.76126  0.53150  0.72896  Biso   1.000  C
  C131     1.0000 0.85440  0.53100  0.89554  Biso   1.000  C
  H156     1.0000 0.83210  0.52140  0.90170  Biso   1.000  H
  C132     1.0000 0.87980  0.53540  0.92092  Biso   1.000  C
  H157     1.0000 0.87510  0.52890  0.94460  Biso   1.000  H
  C133     1.0000 0.91880  0.55870  0.87780  Biso   1.000  C
  H158     1.0000 0.94100  0.56830  0.87160  Biso   1.000  H
  C134     1.0000 0.89340  0.55430  0.85242  Biso   1.000  C
  H159     1.0000 0.89800  0.56090  0.82880  Biso   1.000  H
  C135     1.0000 0.96941  0.54910  0.92181  Biso   1.000  C
  C136     1.0000 0.98238  0.55090  0.88908  Biso   1.000  C
  C137     1.0000 0.95924  0.55880  0.85857  Biso   1.000  C
  H160     1.0000 0.96170  0.58330  0.85420  Biso   1.000  H
  H161     1.0000 0.93550  0.55490  0.86530  Biso   1.000  H
  C138     1.0000 0.97020  0.54870  0.82230  Biso   1.000  C
  H162     1.0000 0.95400  0.55880  0.80540  Biso   1.000  H
  H163     1.0000 0.96990  0.52330  0.82010  Biso   1.000  H
  H164     1.0000 0.99370  0.55730  0.81780  Biso   1.000  H
  C139     1.0000 0.75880  0.47670  0.82616  Biso   1.000  C
  H165     1.0000 0.77790  0.48420  0.84050  Biso   1.000  H
  H166     1.0000 0.73730  0.48140  0.83780  Biso   1.000  H
  H167     1.0000 0.76080  0.45220  0.82180  Biso   1.000  H
  C140     1.0000 0.76210  0.55080  0.69478  Biso   1.000  C
  H168     1.0000 0.78150  0.56650  0.69460  Biso   1.000  H
  H169     1.0000 0.76440  0.53450  0.67600  Biso   1.000  H
  H170     1.0000 0.74090  0.56380  0.69200  Biso   1.000  H
  C141     1.0000 0.26544  0.51070  0.76682  Biso   1.000  C
  H171     1.0000 0.28330  0.52760  0.77120  Biso   1.000  H
  C142     1.0000 0.24031  0.50400  0.79197  Biso   1.000  C
  C143     1.0000 0.21361  0.46180  0.75411  Biso   1.000  C
  H172     1.0000 0.19570  0.44500  0.74970  Biso   1.000  H
  C144     1.0000 0.23874  0.46850  0.72896  Biso   1.000  C
  C145     1.0000 0.14560  0.46900  0.89554  Biso   1.000  C
  H173     1.0000 0.16790  0.47860  0.90170  Biso   1.000  H
  C146     1.0000 0.12020  0.46460  0.92092  Biso   1.000  C
  H174     1.0000 0.12490  0.47110  0.94460  Biso   1.000  H
  C147     1.0000 0.08120  0.44130  0.87780  Biso   1.000  C
  H175     1.0000 0.05900  0.43170  0.87160  Biso   1.000  H
  C148     1.0000 0.10660  0.44570  0.85242  Biso   1.000  C
  H176     1.0000 0.10200  0.43910  0.82880  Biso   1.000  H
  C149     1.0000 0.03059  0.45090  0.92181  Biso   1.000  C
  C150     1.0000 0.01762  0.44910  0.88908  Biso   1.000  C
  C151     1.0000 0.04076  0.44120  0.85857  Biso   1.000  C
  H177     1.0000 0.03830  0.41670  0.85420  Biso   1.000  H
  H178     1.0000 0.06450  0.44510  0.86530  Biso   1.000  H
  C152     1.0000 0.02980  0.45130  0.82230  Biso   1.000  C
  H179     1.0000 0.04600  0.44120  0.80540  Biso   1.000  H
  H180     1.0000 0.03010  0.47670  0.82010  Biso   1.000  H
  H181     1.0000 0.00630  0.44270  0.81780  Biso   1.000  H
  C153     1.0000 0.24120  0.52330  0.82616  Biso   1.000  C
  H182     1.0000 0.22210  0.51580  0.84050  Biso   1.000  H
  H183     1.0000 0.26270  0.51860  0.83780  Biso   1.000  H
  H184     1.0000 0.23920  0.54780  0.82180  Biso   1.000  H
  C154     1.0000 0.23790  0.44920  0.69478  Biso   1.000  C
  H185     1.0000 0.21850  0.43350  0.69460  Biso   1.000  H
  H186     1.0000 0.23560  0.46550  0.67600  Biso   1.000  H
  H187     1.0000 0.25910  0.43620  0.69200  Biso   1.000  H
  C155     1.0000 0.73456  0.51070  0.23318  Biso   1.000  C
  H188     1.0000 0.71670  0.52760  0.22880  Biso   1.000  H
  C156     1.0000 0.75969  0.50400  0.20803  Biso   1.000  C
  C157     1.0000 0.78639  0.46180  0.24589  Biso   1.000  C
  H189     1.0000 0.80430  0.44500  0.25030  Biso   1.000  H
  C158     1.0000 0.76126  0.46850  0.27104  Biso   1.000  C
  C159     1.0000 0.85440  0.46900  0.10446  Biso   1.000  C
  H190     1.0000 0.83210  0.47860  0.09830  Biso   1.000  H
  C160     1.0000 0.87980  0.46460  0.07908  Biso   1.000  C
  H191     1.0000 0.87510  0.47110  0.05540  Biso   1.000  H
  C161     1.0000 0.91880  0.44130  0.12220  Biso   1.000  C
  H192     1.0000 0.94100  0.43170  0.12840  Biso   1.000  H
  C162     1.0000 0.89340  0.44570  0.14758  Biso   1.000  C
  H193     1.0000 0.89800  0.43910  0.17120  Biso   1.000  H
  C163     1.0000 0.96941  0.45090  0.07819  Biso   1.000  C
  C164     1.0000 0.98238  0.44910  0.11092  Biso   1.000  C
  C165     1.0000 0.95924  0.44120  0.14143  Biso   1.000  C
  H194     1.0000 0.96170  0.41670  0.14580  Biso   1.000  H
  H195     1.0000 0.93550  0.44510  0.13470  Biso   1.000  H
  C166     1.0000 0.97020  0.45130  0.17770  Biso   1.000  C
  H196     1.0000 0.95400  0.44120  0.19460  Biso   1.000  H
  H197     1.0000 0.96990  0.47670  0.17990  Biso   1.000  H
  H198     1.0000 0.99370  0.44270  0.18220  Biso   1.000  H
  C167     1.0000 0.75880  0.52330  0.17384  Biso   1.000  C
  H199     1.0000 0.77790  0.51580  0.15950  Biso   1.000  H
  H200     1.0000 0.73730  0.51860  0.16220  Biso   1.000  H
  H201     1.0000 0.76080  0.54780  0.17820  Biso   1.000  H
  C168     1.0000 0.76210  0.44920  0.30522  Biso   1.000  C
  H202     1.0000 0.78150  0.43350  0.30540  Biso   1.000  H
  H203     1.0000 0.76440  0.46550  0.32400  Biso   1.000  H
  H204     1.0000 0.74090  0.43620  0.30800  Biso   1.000  H
  C169     1.0000 0.26544  0.23318  0.51070  Biso   1.000  C
  H205     1.0000 0.28330  0.22880  0.52760  Biso   1.000  H
  C170     1.0000 0.24031  0.20803  0.50400  Biso   1.000  C
  C171     1.0000 0.21361  0.24589  0.46180  Biso   1.000  C
  H206     1.0000 0.19570  0.25030  0.44500  Biso   1.000  H
  C172     1.0000 0.23874  0.27104  0.46850  Biso   1.000  C
  C173     1.0000 0.14560  0.10446  0.46900  Biso   1.000  C
  H207     1.0000 0.16790  0.09830  0.47860  Biso   1.000  H
  C174     1.0000 0.12020  0.07908  0.46460  Biso   1.000  C
  H208     1.0000 0.12490  0.05540  0.47110  Biso   1.000  H
  C175     1.0000 0.08120  0.12220  0.44130  Biso   1.000  C
  H209     1.0000 0.05900  0.12840  0.43170  Biso   1.000  H
  C176     1.0000 0.10660  0.14758  0.44570  Biso   1.000  C
  H210     1.0000 0.10200  0.17120  0.43910  Biso   1.000  H
  C177     1.0000 0.03059  0.07819  0.45090  Biso   1.000  C
  C178     1.0000 0.01762  0.11092  0.44910  Biso   1.000  C
  C179     1.0000 0.04076  0.14143  0.44120  Biso   1.000  C
  H211     1.0000 0.03830  0.14580  0.41670  Biso   1.000  H
  H212     1.0000 0.06450  0.13470  0.44510  Biso   1.000  H
  C180     1.0000 0.02980  0.17770  0.45130  Biso   1.000  C
  H213     1.0000 0.04600  0.19460  0.44120  Biso   1.000  H
  H214     1.0000 0.03010  0.17990  0.47670  Biso   1.000  H
  H215     1.0000 0.00630  0.18220  0.44270  Biso   1.000  H
  C181     1.0000 0.24120  0.17384  0.52330  Biso   1.000  C
  H216     1.0000 0.22210  0.15950  0.51580  Biso   1.000  H
  H217     1.0000 0.26270  0.16220  0.51860  Biso   1.000  H
  H218     1.0000 0.23920  0.17820  0.54780  Biso   1.000  H
  C182     1.0000 0.23790  0.30522  0.44920  Biso   1.000  C
  H219     1.0000 0.21850  0.30540  0.43350  Biso   1.000  H
  H220     1.0000 0.23560  0.32400  0.46550  Biso   1.000  H
  H221     1.0000 0.25910  0.30800  0.43620  Biso   1.000  H
  C183     1.0000 0.73456  0.76682  0.51070  Biso   1.000  C
  H222     1.0000 0.71670  0.77120  0.52760  Biso   1.000  H
  C184     1.0000 0.75969  0.79197  0.50400  Biso   1.000  C
  C185     1.0000 0.78639  0.75411  0.46180  Biso   1.000  C
  H223     1.0000 0.80430  0.74970  0.44500  Biso   1.000  H
  C186     1.0000 0.76126  0.72896  0.46850  Biso   1.000  C
  C187     1.0000 0.85440  0.89554  0.46900  Biso   1.000  C
  H224     1.0000 0.83210  0.90170  0.47860  Biso   1.000  H
  C188     1.0000 0.87980  0.92092  0.46460  Biso   1.000  C
  H225     1.0000 0.87510  0.94460  0.47110  Biso   1.000  H
  C189     1.0000 0.91880  0.87780  0.44130  Biso   1.000  C
  H226     1.0000 0.94100  0.87160  0.43170  Biso   1.000  H
  C190     1.0000 0.89340  0.85242  0.44570  Biso   1.000  C
  H227     1.0000 0.89800  0.82880  0.43910  Biso   1.000  H
  C191     1.0000 0.96941  0.92181  0.45090  Biso   1.000  C
  C192     1.0000 0.98238  0.88908  0.44910  Biso   1.000  C
  C193     1.0000 0.95924  0.85857  0.44120  Biso   1.000  C
  H228     1.0000 0.96170  0.85420  0.41670  Biso   1.000  H
  H229     1.0000 0.93550  0.86530  0.44510  Biso   1.000  H
  C194     1.0000 0.97020  0.82230  0.45130  Biso   1.000  C
  H230     1.0000 0.95400  0.80540  0.44120  Biso   1.000  H
  H231     1.0000 0.96990  0.82010  0.47670  Biso   1.000  H
  H232     1.0000 0.99370  0.81780  0.44270  Biso   1.000  H
  C195     1.0000 0.75880  0.82616  0.52330  Biso   1.000  C
  H233     1.0000 0.77790  0.84050  0.51580  Biso   1.000  H
  H234     1.0000 0.73730  0.83780  0.51860  Biso   1.000  H
  H235     1.0000 0.76080  0.82180  0.54780  Biso   1.000  H
  C196     1.0000 0.76210  0.69478  0.44920  Biso   1.000  C
  H236     1.0000 0.78150  0.69460  0.43350  Biso   1.000  H
  H237     1.0000 0.76440  0.67600  0.46550  Biso   1.000  H
  H238     1.0000 0.74090  0.69200  0.43620  Biso   1.000  H
  C197     1.0000 0.26544  0.76682  0.48930  Biso   1.000  C
  H239     1.0000 0.28330  0.77120  0.47240  Biso   1.000  H
  C198     1.0000 0.24031  0.79197  0.49600  Biso   1.000  C
  C199     1.0000 0.21361  0.75411  0.53820  Biso   1.000  C
  H240     1.0000 0.19570  0.74970  0.55500  Biso   1.000  H
  C200     1.0000 0.23874  0.72896  0.53150  Biso   1.000  C
  C201     1.0000 0.14560  0.89554  0.53100  Biso   1.000  C
  H241     1.0000 0.16790  0.90170  0.52140  Biso   1.000  H
  C202     1.0000 0.12020  0.92092  0.53540  Biso   1.000  C
  H242     1.0000 0.12490  0.94460  0.52890  Biso   1.000  H
  C203     1.0000 0.08120  0.87780  0.55870  Biso   1.000  C
  H243     1.0000 0.05900  0.87160  0.56830  Biso   1.000  H
  C204     1.0000 0.10660  0.85242  0.55430  Biso   1.000  C
  H244     1.0000 0.10200  0.82880  0.56090  Biso   1.000  H
  C205     1.0000 0.03059  0.92181  0.54910  Biso   1.000  C
  C206     1.0000 0.01762  0.88908  0.55090  Biso   1.000  C
  C207     1.0000 0.04076  0.85857  0.55880  Biso   1.000  C
  H245     1.0000 0.03830  0.85420  0.58330  Biso   1.000  H
  H246     1.0000 0.06450  0.86530  0.55490  Biso   1.000  H
  C208     1.0000 0.02980  0.82230  0.54870  Biso   1.000  C
  H247     1.0000 0.04600  0.80540  0.55880  Biso   1.000  H
  H248     1.0000 0.03010  0.82010  0.52330  Biso   1.000  H
  H249     1.0000 0.00630  0.81780  0.55730  Biso   1.000  H
  C209     1.0000 0.24120  0.82616  0.47670  Biso   1.000  C
  H250     1.0000 0.22210  0.84050  0.48420  Biso   1.000  H
  H251     1.0000 0.26270  0.83780  0.48140  Biso   1.000  H
  H252     1.0000 0.23920  0.82180  0.45220  Biso   1.000  H
  C210     1.0000 0.23790  0.69478  0.55080  Biso   1.000  C
  H253     1.0000 0.21850  0.69460  0.56650  Biso   1.000  H
  H254     1.0000 0.23560  0.67600  0.53450  Biso   1.000  H
  H255     1.0000 0.25910  0.69200  0.56380  Biso   1.000  H
  C211     1.0000 0.73456  0.23318  0.48930  Biso   1.000  C
  H256     1.0000 0.71670  0.22880  0.47240  Biso   1.000  H
  C212     1.0000 0.75969  0.20803  0.49600  Biso   1.000  C
  C213     1.0000 0.78639  0.24589  0.53820  Biso   1.000  C
  H257     1.0000 0.80430  0.25030  0.55500  Biso   1.000  H
  C214     1.0000 0.76126  0.27104  0.53150  Biso   1.000  C
  C215     1.0000 0.85440  0.10446  0.53100  Biso   1.000  C
  H258     1.0000 0.83210  0.09830  0.52140  Biso   1.000  H
  C216     1.0000 0.87980  0.07908  0.53540  Biso   1.000  C
  H259     1.0000 0.87510  0.05540  0.52890  Biso   1.000  H
  C217     1.0000 0.91880  0.12220  0.55870  Biso   1.000  C
  H260     1.0000 0.94100  0.12840  0.56830  Biso   1.000  H
  C218     1.0000 0.89340  0.14758  0.55430  Biso   1.000  C
  H261     1.0000 0.89800  0.17120  0.56090  Biso   1.000  H
  C219     1.0000 0.96941  0.07819  0.54910  Biso   1.000  C
  C220     1.0000 0.98238  0.11092  0.55090  Biso   1.000  C
  C221     1.0000 0.95924  0.14143  0.55880  Biso   1.000  C
  H262     1.0000 0.96170  0.14580  0.58330  Biso   1.000  H
  H263     1.0000 0.93550  0.13470  0.55490  Biso   1.000  H
  C222     1.0000 0.97020  0.17770  0.54870  Biso   1.000  C
  H264     1.0000 0.95400  0.19460  0.55880  Biso   1.000  H
  H265     1.0000 0.96990  0.17990  0.52330  Biso   1.000  H
  H266     1.0000 0.99370  0.18220  0.55730  Biso   1.000  H
  C223     1.0000 0.75880  0.17384  0.47670  Biso   1.000  C
  H267     1.0000 0.77790  0.15950  0.48420  Biso   1.000  H
  H268     1.0000 0.73730  0.16220  0.48140  Biso   1.000  H
  H269     1.0000 0.76080  0.17820  0.45220  Biso   1.000  H
  C224     1.0000 0.76210  0.30522  0.55080  Biso   1.000  C
  H270     1.0000 0.78150  0.30540  0.56650  Biso   1.000  H
  H271     1.0000 0.76440  0.32400  0.53450  Biso   1.000  H
  H272     1.0000 0.74090  0.30800  0.56380  Biso   1.000  H
  C225     1.0000 0.23318  0.48930  0.73456  Biso   1.000  C
  H273     1.0000 0.22880  0.47240  0.71670  Biso   1.000  H
  C226     1.0000 0.20803  0.49600  0.75969  Biso   1.000  C
  C227     1.0000 0.24589  0.53820  0.78639  Biso   1.000  C
  H274     1.0000 0.25030  0.55500  0.80430  Biso   1.000  H
  C228     1.0000 0.27104  0.53150  0.76126  Biso   1.000  C
  C229     1.0000 0.10446  0.53100  0.85440  Biso   1.000  C
  H275     1.0000 0.09830  0.52140  0.83210  Biso   1.000  H
  C230     1.0000 0.07908  0.53540  0.87980  Biso   1.000  C
  H276     1.0000 0.05540  0.52890  0.87510  Biso   1.000  H
  C231     1.0000 0.12220  0.55870  0.91880  Biso   1.000  C
  H277     1.0000 0.12840  0.56830  0.94100  Biso   1.000  H
  C232     1.0000 0.14758  0.55430  0.89340  Biso   1.000  C
  H278     1.0000 0.17120  0.56090  0.89800  Biso   1.000  H
  C233     1.0000 0.07819  0.54910  0.96941  Biso   1.000  C
  C234     1.0000 0.11092  0.55090  0.98238  Biso   1.000  C
  C235     1.0000 0.14143  0.55880  0.95924  Biso   1.000  C
  H279     1.0000 0.14580  0.58330  0.96170  Biso   1.000  H
  H280     1.0000 0.13470  0.55490  0.93550  Biso   1.000  H
  C236     1.0000 0.17770  0.54870  0.97020  Biso   1.000  C
  H281     1.0000 0.19460  0.55880  0.95400  Biso   1.000  H
  H282     1.0000 0.17990  0.52330  0.96990  Biso   1.000  H
  H283     1.0000 0.18220  0.55730  0.99370  Biso   1.000  H
  C237     1.0000 0.17384  0.47670  0.75880  Biso   1.000  C
  H284     1.0000 0.15950  0.48420  0.77790  Biso   1.000  H
  H285     1.0000 0.16220  0.48140  0.73730  Biso   1.000  H
  H286     1.0000 0.17820  0.45220  0.76080  Biso   1.000  H
  C238     1.0000 0.30522  0.55080  0.76210  Biso   1.000  C
  H287     1.0000 0.30540  0.56650  0.78150  Biso   1.000  H
  H288     1.0000 0.32400  0.53450  0.76440  Biso   1.000  H
  H289     1.0000 0.30800  0.56380  0.74090  Biso   1.000  H
  C239     1.0000 0.76682  0.48930  0.26544  Biso   1.000  C
  H290     1.0000 0.77120  0.47240  0.28330  Biso   1.000  H
  C240     1.0000 0.79197  0.49600  0.24031  Biso   1.000  C
  C241     1.0000 0.75411  0.53820  0.21361  Biso   1.000  C
  H291     1.0000 0.74970  0.55500  0.19570  Biso   1.000  H
  C242     1.0000 0.72896  0.53150  0.23874  Biso   1.000  C
  C243     1.0000 0.89554  0.53100  0.14560  Biso   1.000  C
  H292     1.0000 0.90170  0.52140  0.16790  Biso   1.000  H
  C244     1.0000 0.92092  0.53540  0.12020  Biso   1.000  C
  H293     1.0000 0.94460  0.52890  0.12490  Biso   1.000  H
  C245     1.0000 0.87780  0.55870  0.08120  Biso   1.000  C
  H294     1.0000 0.87160  0.56830  0.05900  Biso   1.000  H
  C246     1.0000 0.85242  0.55430  0.10660  Biso   1.000  C
  H295     1.0000 0.82880  0.56090  0.10200  Biso   1.000  H
  C247     1.0000 0.92181  0.54910  0.03059  Biso   1.000  C
  C248     1.0000 0.88908  0.55090  0.01762  Biso   1.000  C
  C249     1.0000 0.85857  0.55880  0.04076  Biso   1.000  C
  H296     1.0000 0.85420  0.58330  0.03830  Biso   1.000  H
  H297     1.0000 0.86530  0.55490  0.06450  Biso   1.000  H
  C250     1.0000 0.82230  0.54870  0.02980  Biso   1.000  C
  H298     1.0000 0.80540  0.55880  0.04600  Biso   1.000  H
  H299     1.0000 0.82010  0.52330  0.03010  Biso   1.000  H
  H300     1.0000 0.81780  0.55730  0.00630  Biso   1.000  H
  C251     1.0000 0.82616  0.47670  0.24120  Biso   1.000  C
  H301     1.0000 0.84050  0.48420  0.22210  Biso   1.000  H
  H302     1.0000 0.83780  0.48140  0.26270  Biso   1.000  H
  H303     1.0000 0.82180  0.45220  0.23920  Biso   1.000  H
  C252     1.0000 0.69478  0.55080  0.23790  Biso   1.000  C
  H304     1.0000 0.69460  0.56650  0.21850  Biso   1.000  H
  H305     1.0000 0.67600  0.53450  0.23560  Biso   1.000  H
  H306     1.0000 0.69200  0.56380  0.25910  Biso   1.000  H
  C253     1.0000 0.76682  0.51070  0.73456  Biso   1.000  C
  H307     1.0000 0.77120  0.52760  0.71670  Biso   1.000  H
  C254     1.0000 0.79197  0.50400  0.75969  Biso   1.000  C
  C255     1.0000 0.75411  0.46180  0.78639  Biso   1.000  C
  H308     1.0000 0.74970  0.44500  0.80430  Biso   1.000  H
  C256     1.0000 0.72896  0.46850  0.76126  Biso   1.000  C
  C257     1.0000 0.89554  0.46900  0.85440  Biso   1.000  C
  H309     1.0000 0.90170  0.47860  0.83210  Biso   1.000  H
  C258     1.0000 0.92092  0.46460  0.87980  Biso   1.000  C
  H310     1.0000 0.94460  0.47110  0.87510  Biso   1.000  H
  C259     1.0000 0.87780  0.44130  0.91880  Biso   1.000  C
  H311     1.0000 0.87160  0.43170  0.94100  Biso   1.000  H
  C260     1.0000 0.85242  0.44570  0.89340  Biso   1.000  C
  H312     1.0000 0.82880  0.43910  0.89800  Biso   1.000  H
  C261     1.0000 0.92181  0.45090  0.96941  Biso   1.000  C
  C262     1.0000 0.88908  0.44910  0.98238  Biso   1.000  C
  C263     1.0000 0.85857  0.44120  0.95924  Biso   1.000  C
  H313     1.0000 0.85420  0.41670  0.96170  Biso   1.000  H
  H314     1.0000 0.86530  0.44510  0.93550  Biso   1.000  H
  C264     1.0000 0.82230  0.45130  0.97020  Biso   1.000  C
  H315     1.0000 0.80540  0.44120  0.95400  Biso   1.000  H
  H316     1.0000 0.82010  0.47670  0.96990  Biso   1.000  H
  H317     1.0000 0.81780  0.44270  0.99370  Biso   1.000  H
  C265     1.0000 0.82616  0.52330  0.75880  Biso   1.000  C
  H318     1.0000 0.84050  0.51580  0.77790  Biso   1.000  H
  H319     1.0000 0.83780  0.51860  0.73730  Biso   1.000  H
  H320     1.0000 0.82180  0.54780  0.76080  Biso   1.000  H
  C266     1.0000 0.69478  0.44920  0.76210  Biso   1.000  C
  H321     1.0000 0.69460  0.43350  0.78150  Biso   1.000  H
  H322     1.0000 0.67600  0.46550  0.76440  Biso   1.000  H
  H323     1.0000 0.69200  0.43620  0.74090  Biso   1.000  H
  C267     1.0000 0.23318  0.51070  0.26544  Biso   1.000  C
  H324     1.0000 0.22880  0.52760  0.28330  Biso   1.000  H
  C268     1.0000 0.20803  0.50400  0.24031  Biso   1.000  C
  C269     1.0000 0.24589  0.46180  0.21361  Biso   1.000  C
  H325     1.0000 0.25030  0.44500  0.19570  Biso   1.000  H
  C270     1.0000 0.27104  0.46850  0.23874  Biso   1.000  C
  C271     1.0000 0.10446  0.46900  0.14560  Biso   1.000  C
  H326     1.0000 0.09830  0.47860  0.16790  Biso   1.000  H
  C272     1.0000 0.07908  0.46460  0.12020  Biso   1.000  C
  H327     1.0000 0.05540  0.47110  0.12490  Biso   1.000  H
  C273     1.0000 0.12220  0.44130  0.08120  Biso   1.000  C
  H328     1.0000 0.12840  0.43170  0.05900  Biso   1.000  H
  C274     1.0000 0.14758  0.44570  0.10660  Biso   1.000  C
  H329     1.0000 0.17120  0.43910  0.10200  Biso   1.000  H
  C275     1.0000 0.07819  0.45090  0.03059  Biso   1.000  C
  C276     1.0000 0.11092  0.44910  0.01762  Biso   1.000  C
  C277     1.0000 0.14143  0.44120  0.04076  Biso   1.000  C
  H330     1.0000 0.14580  0.41670  0.03830  Biso   1.000  H
  H331     1.0000 0.13470  0.44510  0.06450  Biso   1.000  H
  C278     1.0000 0.17770  0.45130  0.02980  Biso   1.000  C
  H332     1.0000 0.19460  0.44120  0.04600  Biso   1.000  H
  H333     1.0000 0.17990  0.47670  0.03010  Biso   1.000  H
  H334     1.0000 0.18220  0.44270  0.00630  Biso   1.000  H
  C279     1.0000 0.17384  0.52330  0.24120  Biso   1.000  C
  H335     1.0000 0.15950  0.51580  0.22210  Biso   1.000  H
  H336     1.0000 0.16220  0.51860  0.26270  Biso   1.000  H
  H337     1.0000 0.17820  0.54780  0.23920  Biso   1.000  H
  C280     1.0000 0.30522  0.44920  0.23790  Biso   1.000  C
  H338     1.0000 0.30540  0.43350  0.21850  Biso   1.000  H
  H339     1.0000 0.32400  0.46550  0.23560  Biso   1.000  H
  H340     1.0000 0.30800  0.43620  0.25910  Biso   1.000  H
  C281     1.0000 0.48930  0.26544  0.76682  Biso   1.000  C
  H341     1.0000 0.47240  0.28330  0.77120  Biso   1.000  H
  C282     1.0000 0.49600  0.24031  0.79197  Biso   1.000  C
  C283     1.0000 0.53820  0.21361  0.75411  Biso   1.000  C
  H342     1.0000 0.55500  0.19570  0.74970  Biso   1.000  H
  C284     1.0000 0.53150  0.23874  0.72896  Biso   1.000  C
  C285     1.0000 0.53100  0.14560  0.89554  Biso   1.000  C
  H343     1.0000 0.52140  0.16790  0.90170  Biso   1.000  H
  C286     1.0000 0.53540  0.12020  0.92092  Biso   1.000  C
  H344     1.0000 0.52890  0.12490  0.94460  Biso   1.000  H
  C287     1.0000 0.55870  0.08120  0.87780  Biso   1.000  C
  H345     1.0000 0.56830  0.05900  0.87160  Biso   1.000  H
  C288     1.0000 0.55430  0.10660  0.85242  Biso   1.000  C
  H346     1.0000 0.56090  0.10200  0.82880  Biso   1.000  H
  C289     1.0000 0.54910  0.03059  0.92181  Biso   1.000  C
  C290     1.0000 0.55090  0.01762  0.88908  Biso   1.000  C
  C291     1.0000 0.55880  0.04076  0.85857  Biso   1.000  C
  H347     1.0000 0.58330  0.03830  0.85420  Biso   1.000  H
  H348     1.0000 0.55490  0.06450  0.86530  Biso   1.000  H
  C292     1.0000 0.54870  0.02980  0.82230  Biso   1.000  C
  H349     1.0000 0.55880  0.04600  0.80540  Biso   1.000  H
  H350     1.0000 0.52330  0.03010  0.82010  Biso   1.000  H
  H351     1.0000 0.55730  0.00630  0.81780  Biso   1.000  H
  C293     1.0000 0.47670  0.24120  0.82616  Biso   1.000  C
  H352     1.0000 0.48420  0.22210  0.84050  Biso   1.000  H
  H353     1.0000 0.48140  0.26270  0.83780  Biso   1.000  H
  H354     1.0000 0.45220  0.23920  0.82180  Biso   1.000  H
  C294     1.0000 0.55080  0.23790  0.69478  Biso   1.000  C
  H355     1.0000 0.56650  0.21850  0.69460  Biso   1.000  H
  H356     1.0000 0.53450  0.23560  0.67600  Biso   1.000  H
  H357     1.0000 0.56380  0.25910  0.69200  Biso   1.000  H
  C295     1.0000 0.48930  0.73456  0.23318  Biso   1.000  C
  H358     1.0000 0.47240  0.71670  0.22880  Biso   1.000  H
  C296     1.0000 0.49600  0.75969  0.20803  Biso   1.000  C
  C297     1.0000 0.53820  0.78639  0.24589  Biso   1.000  C
  H359     1.0000 0.55500  0.80430  0.25030  Biso   1.000  H
  C298     1.0000 0.53150  0.76126  0.27104  Biso   1.000  C
  C299     1.0000 0.53100  0.85440  0.10446  Biso   1.000  C
  H360     1.0000 0.52140  0.83210  0.09830  Biso   1.000  H
  C300     1.0000 0.53540  0.87980  0.07908  Biso   1.000  C
  H361     1.0000 0.52890  0.87510  0.05540  Biso   1.000  H
  C301     1.0000 0.55870  0.91880  0.12220  Biso   1.000  C
  H362     1.0000 0.56830  0.94100  0.12840  Biso   1.000  H
  C302     1.0000 0.55430  0.89340  0.14758  Biso   1.000  C
  H363     1.0000 0.56090  0.89800  0.17120  Biso   1.000  H
  C303     1.0000 0.54910  0.96941  0.07819  Biso   1.000  C
  C304     1.0000 0.55090  0.98238  0.11092  Biso   1.000  C
  C305     1.0000 0.55880  0.95924  0.14143  Biso   1.000  C
  H364     1.0000 0.58330  0.96170  0.14580  Biso   1.000  H
  H365     1.0000 0.55490  0.93550  0.13470  Biso   1.000  H
  C306     1.0000 0.54870  0.97020  0.17770  Biso   1.000  C
  H366     1.0000 0.55880  0.95400  0.19460  Biso   1.000  H
  H367     1.0000 0.52330  0.96990  0.17990  Biso   1.000  H
  H368     1.0000 0.55730  0.99370  0.18220  Biso   1.000  H
  C307     1.0000 0.47670  0.75880  0.17384  Biso   1.000  C
  H369     1.0000 0.48420  0.77790  0.15950  Biso   1.000  H
  H370     1.0000 0.48140  0.73730  0.16220  Biso   1.000  H
  H371     1.0000 0.45220  0.76080  0.17820  Biso   1.000  H
  C308     1.0000 0.55080  0.76210  0.30522  Biso   1.000  C
  H372     1.0000 0.56650  0.78150  0.30540  Biso   1.000  H
  H373     1.0000 0.53450  0.76440  0.32400  Biso   1.000  H
  H374     1.0000 0.56380  0.74090  0.30800  Biso   1.000  H
  C309     1.0000 0.51070  0.26544  0.23318  Biso   1.000  C
  H375     1.0000 0.52760  0.28330  0.22880  Biso   1.000  H
  C310     1.0000 0.50400  0.24031  0.20803  Biso   1.000  C
  C311     1.0000 0.46180  0.21361  0.24589  Biso   1.000  C
  H376     1.0000 0.44500  0.19570  0.25030  Biso   1.000  H
  C312     1.0000 0.46850  0.23874  0.27104  Biso   1.000  C
  C313     1.0000 0.46900  0.14560  0.10446  Biso   1.000  C
  H377     1.0000 0.47860  0.16790  0.09830  Biso   1.000  H
  C314     1.0000 0.46460  0.12020  0.07908  Biso   1.000  C
  H378     1.0000 0.47110  0.12490  0.05540  Biso   1.000  H
  C315     1.0000 0.44130  0.08120  0.12220  Biso   1.000  C
  H379     1.0000 0.43170  0.05900  0.12840  Biso   1.000  H
  C316     1.0000 0.44570  0.10660  0.14758  Biso   1.000  C
  H380     1.0000 0.43910  0.10200  0.17120  Biso   1.000  H
  C317     1.0000 0.45090  0.03059  0.07819  Biso   1.000  C
  C318     1.0000 0.44910  0.01762  0.11092  Biso   1.000  C
  C319     1.0000 0.44120  0.04076  0.14143  Biso   1.000  C
  H381     1.0000 0.41670  0.03830  0.14580  Biso   1.000  H
  H382     1.0000 0.44510  0.06450  0.13470  Biso   1.000  H
  C320     1.0000 0.45130  0.02980  0.17770  Biso   1.000  C
  H383     1.0000 0.44120  0.04600  0.19460  Biso   1.000  H
  H384     1.0000 0.47670  0.03010  0.17990  Biso   1.000  H
  H385     1.0000 0.44270  0.00630  0.18220  Biso   1.000  H
  C321     1.0000 0.52330  0.24120  0.17384  Biso   1.000  C
  H386     1.0000 0.51580  0.22210  0.15950  Biso   1.000  H
  H387     1.0000 0.51860  0.26270  0.16220  Biso   1.000  H
  H388     1.0000 0.54780  0.23920  0.17820  Biso   1.000  H
  C322     1.0000 0.44920  0.23790  0.30522  Biso   1.000  C
  H389     1.0000 0.43350  0.21850  0.30540  Biso   1.000  H
  H390     1.0000 0.46550  0.23560  0.32400  Biso   1.000  H
  H391     1.0000 0.43620  0.25910  0.30800  Biso   1.000  H
  C323     1.0000 0.51070  0.73456  0.76682  Biso   1.000  C
  H392     1.0000 0.52760  0.71670  0.77120  Biso   1.000  H
  C324     1.0000 0.50400  0.75969  0.79197  Biso   1.000  C
  C325     1.0000 0.46180  0.78639  0.75411  Biso   1.000  C
  H393     1.0000 0.44500  0.80430  0.74970  Biso   1.000  H
  C326     1.0000 0.46850  0.76126  0.72896  Biso   1.000  C
  C327     1.0000 0.46900  0.85440  0.89554  Biso   1.000  C
  H394     1.0000 0.47860  0.83210  0.90170  Biso   1.000  H
  C328     1.0000 0.46460  0.87980  0.92092  Biso   1.000  C
  H395     1.0000 0.47110  0.87510  0.94460  Biso   1.000  H
  C329     1.0000 0.44130  0.91880  0.87780  Biso   1.000  C
  H396     1.0000 0.43170  0.94100  0.87160  Biso   1.000  H
  C330     1.0000 0.44570  0.89340  0.85242  Biso   1.000  C
  H397     1.0000 0.43910  0.89800  0.82880  Biso   1.000  H
  C331     1.0000 0.45090  0.96941  0.92181  Biso   1.000  C
  C332     1.0000 0.44910  0.98238  0.88908  Biso   1.000  C
  C333     1.0000 0.44120  0.95924  0.85857  Biso   1.000  C
  H398     1.0000 0.41670  0.96170  0.85420  Biso   1.000  H
  H399     1.0000 0.44510  0.93550  0.86530  Biso   1.000  H
  C334     1.0000 0.45130  0.97020  0.82230  Biso   1.000  C
  H400     1.0000 0.44120  0.95400  0.80540  Biso   1.000  H
  H401     1.0000 0.47670  0.96990  0.82010  Biso   1.000  H
  H402     1.0000 0.44270  0.99370  0.81780  Biso   1.000  H
  C335     1.0000 0.52330  0.75880  0.82616  Biso   1.000  C
  H403     1.0000 0.51580  0.77790  0.84050  Biso   1.000  H
  H404     1.0000 0.51860  0.73730  0.83780  Biso   1.000  H
  H405     1.0000 0.54780  0.76080  0.82180  Biso   1.000  H
  C336     1.0000 0.44920  0.76210  0.69478  Biso   1.000  C
  H406     1.0000 0.43350  0.78150  0.69460  Biso   1.000  H
  H407     1.0000 0.46550  0.76440  0.67600  Biso   1.000  H
  H408     1.0000 0.43620  0.74090  0.69200  Biso   1.000  H
  C337     1.0000 0.76682  0.73456  0.51070  Biso   1.000  C
  H409     1.0000 0.77120  0.71670  0.52760  Biso   1.000  H
  C338     1.0000 0.79197  0.75969  0.50400  Biso   1.000  C
  C339     1.0000 0.75411  0.78639  0.46180  Biso   1.000  C
  H410     1.0000 0.74970  0.80430  0.44500  Biso   1.000  H
  C340     1.0000 0.72896  0.76126  0.46850  Biso   1.000  C
  C341     1.0000 0.89554  0.85440  0.46900  Biso   1.000  C
  H411     1.0000 0.90170  0.83210  0.47860  Biso   1.000  H
  C342     1.0000 0.92092  0.87980  0.46460  Biso   1.000  C
  H412     1.0000 0.94460  0.87510  0.47110  Biso   1.000  H
  C343     1.0000 0.87780  0.91880  0.44130  Biso   1.000  C
  H413     1.0000 0.87160  0.94100  0.43170  Biso   1.000  H
  C344     1.0000 0.85242  0.89340  0.44570  Biso   1.000  C
  H414     1.0000 0.82880  0.89800  0.43910  Biso   1.000  H
  C345     1.0000 0.92181  0.96941  0.45090  Biso   1.000  C
  C346     1.0000 0.88908  0.98238  0.44910  Biso   1.000  C
  C347     1.0000 0.85857  0.95924  0.44120  Biso   1.000  C
  H415     1.0000 0.85420  0.96170  0.41670  Biso   1.000  H
  H416     1.0000 0.86530  0.93550  0.44510  Biso   1.000  H
  C348     1.0000 0.82230  0.97020  0.45130  Biso   1.000  C
  H417     1.0000 0.80540  0.95400  0.44120  Biso   1.000  H
  H418     1.0000 0.82010  0.96990  0.47670  Biso   1.000  H
  H419     1.0000 0.81780  0.99370  0.44270  Biso   1.000  H
  C349     1.0000 0.82616  0.75880  0.52330  Biso   1.000  C
  H420     1.0000 0.84050  0.77790  0.51580  Biso   1.000  H
  H421     1.0000 0.83780  0.73730  0.51860  Biso   1.000  H
  H422     1.0000 0.82180  0.76080  0.54780  Biso   1.000  H
  C350     1.0000 0.69478  0.76210  0.44920  Biso   1.000  C
  H423     1.0000 0.69460  0.78150  0.43350  Biso   1.000  H
  H424     1.0000 0.67600  0.76440  0.46550  Biso   1.000  H
  H425     1.0000 0.69200  0.74090  0.43620  Biso   1.000  H
  C351     1.0000 0.23318  0.26544  0.51070  Biso   1.000  C
  H426     1.0000 0.22880  0.28330  0.52760  Biso   1.000  H
  C352     1.0000 0.20803  0.24031  0.50400  Biso   1.000  C
  C353     1.0000 0.24589  0.21361  0.46180  Biso   1.000  C
  H427     1.0000 0.25030  0.19570  0.44500  Biso   1.000  H
  C354     1.0000 0.27104  0.23874  0.46850  Biso   1.000  C
  C355     1.0000 0.10446  0.14560  0.46900  Biso   1.000  C
  H428     1.0000 0.09830  0.16790  0.47860  Biso   1.000  H
  C356     1.0000 0.07908  0.12020  0.46460  Biso   1.000  C
  H429     1.0000 0.05540  0.12490  0.47110  Biso   1.000  H
  C357     1.0000 0.12220  0.08120  0.44130  Biso   1.000  C
  H430     1.0000 0.12840  0.05900  0.43170  Biso   1.000  H
  C358     1.0000 0.14758  0.10660  0.44570  Biso   1.000  C
  H431     1.0000 0.17120  0.10200  0.43910  Biso   1.000  H
  C359     1.0000 0.07819  0.03059  0.45090  Biso   1.000  C
  C360     1.0000 0.11092  0.01762  0.44910  Biso   1.000  C
  C361     1.0000 0.14143  0.04076  0.44120  Biso   1.000  C
  H432     1.0000 0.14580  0.03830  0.41670  Biso   1.000  H
  H433     1.0000 0.13470  0.06450  0.44510  Biso   1.000  H
  C362     1.0000 0.17770  0.02980  0.45130  Biso   1.000  C
  H434     1.0000 0.19460  0.04600  0.44120  Biso   1.000  H
  H435     1.0000 0.17990  0.03010  0.47670  Biso   1.000  H
  H436     1.0000 0.18220  0.00630  0.44270  Biso   1.000  H
  C363     1.0000 0.17384  0.24120  0.52330  Biso   1.000  C
  H437     1.0000 0.15950  0.22210  0.51580  Biso   1.000  H
  H438     1.0000 0.16220  0.26270  0.51860  Biso   1.000  H
  H439     1.0000 0.17820  0.23920  0.54780  Biso   1.000  H
  C364     1.0000 0.30522  0.23790  0.44920  Biso   1.000  C
  H440     1.0000 0.30540  0.21850  0.43350  Biso   1.000  H
  H441     1.0000 0.32400  0.23560  0.46550  Biso   1.000  H
  H442     1.0000 0.30800  0.25910  0.43620  Biso   1.000  H
  C365     1.0000 0.23318  0.73456  0.48930  Biso   1.000  C
  H443     1.0000 0.22880  0.71670  0.47240  Biso   1.000  H
  C366     1.0000 0.20803  0.75969  0.49600  Biso   1.000  C
  C367     1.0000 0.24589  0.78639  0.53820  Biso   1.000  C
  H444     1.0000 0.25030  0.80430  0.55500  Biso   1.000  H
  C368     1.0000 0.27104  0.76126  0.53150  Biso   1.000  C
  C369     1.0000 0.10446  0.85440  0.53100  Biso   1.000  C
  H445     1.0000 0.09830  0.83210  0.52140  Biso   1.000  H
  C370     1.0000 0.07908  0.87980  0.53540  Biso   1.000  C
  H446     1.0000 0.05540  0.87510  0.52890  Biso   1.000  H
  C371     1.0000 0.12220  0.91880  0.55870  Biso   1.000  C
  H447     1.0000 0.12840  0.94100  0.56830  Biso   1.000  H
  C372     1.0000 0.14758  0.89340  0.55430  Biso   1.000  C
  H448     1.0000 0.17120  0.89800  0.56090  Biso   1.000  H
  C373     1.0000 0.07819  0.96941  0.54910  Biso   1.000  C
  C374     1.0000 0.11092  0.98238  0.55090  Biso   1.000  C
  C375     1.0000 0.14143  0.95924  0.55880  Biso   1.000  C
  H449     1.0000 0.14580  0.96170  0.58330  Biso   1.000  H
  H450     1.0000 0.13470  0.93550  0.55490  Biso   1.000  H
  C376     1.0000 0.17770  0.97020  0.54870  Biso   1.000  C
  H451     1.0000 0.19460  0.95400  0.55880  Biso   1.000  H
  H452     1.0000 0.17990  0.96990  0.52330  Biso   1.000  H
  H453     1.0000 0.18220  0.99370  0.55730  Biso   1.000  H
  C377     1.0000 0.17384  0.75880  0.47670  Biso   1.000  C
  H454     1.0000 0.15950  0.77790  0.48420  Biso   1.000  H
  H455     1.0000 0.16220  0.73730  0.48140  Biso   1.000  H
  H456     1.0000 0.17820  0.76080  0.45220  Biso   1.000  H
  C378     1.0000 0.30522  0.76210  0.55080  Biso   1.000  C
  H457     1.0000 0.30540  0.78150  0.56650  Biso   1.000  H
  H458     1.0000 0.32400  0.76440  0.53450  Biso   1.000  H
  H459     1.0000 0.30800  0.74090  0.56380  Biso   1.000  H
  C379     1.0000 0.76682  0.26544  0.48930  Biso   1.000  C
  H460     1.0000 0.77120  0.28330  0.47240  Biso   1.000  H
  C380     1.0000 0.79197  0.24031  0.49600  Biso   1.000  C
  C381     1.0000 0.75411  0.21361  0.53820  Biso   1.000  C
  H461     1.0000 0.74970  0.19570  0.55500  Biso   1.000  H
  C382     1.0000 0.72896  0.23874  0.53150  Biso   1.000  C
  C383     1.0000 0.89554  0.14560  0.53100  Biso   1.000  C
  H462     1.0000 0.90170  0.16790  0.52140  Biso   1.000  H
  C384     1.0000 0.92092  0.12020  0.53540  Biso   1.000  C
  H463     1.0000 0.94460  0.12490  0.52890  Biso   1.000  H
  C385     1.0000 0.87780  0.08120  0.55870  Biso   1.000  C
  H464     1.0000 0.87160  0.05900  0.56830  Biso   1.000  H
  C386     1.0000 0.85242  0.10660  0.55430  Biso   1.000  C
  H465     1.0000 0.82880  0.10200  0.56090  Biso   1.000  H
  C387     1.0000 0.92181  0.03059  0.54910  Biso   1.000  C
  C388     1.0000 0.88908  0.01762  0.55090  Biso   1.000  C
  C389     1.0000 0.85857  0.04076  0.55880  Biso   1.000  C
  H466     1.0000 0.85420  0.03830  0.58330  Biso   1.000  H
  H467     1.0000 0.86530  0.06450  0.55490  Biso   1.000  H
  C390     1.0000 0.82230  0.02980  0.54870  Biso   1.000  C
  H468     1.0000 0.80540  0.04600  0.55880  Biso   1.000  H
  H469     1.0000 0.82010  0.03010  0.52330  Biso   1.000  H
  H470     1.0000 0.81780  0.00630  0.55730  Biso   1.000  H
  C391     1.0000 0.82616  0.24120  0.47670  Biso   1.000  C
  H471     1.0000 0.84050  0.22210  0.48420  Biso   1.000  H
  H472     1.0000 0.83780  0.26270  0.48140  Biso   1.000  H
  H473     1.0000 0.82180  0.23920  0.45220  Biso   1.000  H
  C392     1.0000 0.69478  0.23790  0.55080  Biso   1.000  C
  H474     1.0000 0.69460  0.21850  0.56650  Biso   1.000  H
  H475     1.0000 0.67600  0.23560  0.53450  Biso   1.000  H
  H476     1.0000 0.69200  0.25910  0.56380  Biso   1.000  H
  C393     1.0000 0.51070  0.76682  0.73456  Biso   1.000  C
  H477     1.0000 0.52760  0.77120  0.71670  Biso   1.000  H
  C394     1.0000 0.50400  0.79197  0.75969  Biso   1.000  C
  C395     1.0000 0.46180  0.75411  0.78639  Biso   1.000  C
  H478     1.0000 0.44500  0.74970  0.80430  Biso   1.000  H
  C396     1.0000 0.46850  0.72896  0.76126  Biso   1.000  C
  C397     1.0000 0.46900  0.89554  0.85440  Biso   1.000  C
  H479     1.0000 0.47860  0.90170  0.83210  Biso   1.000  H
  C398     1.0000 0.46460  0.92092  0.87980  Biso   1.000  C
  H480     1.0000 0.47110  0.94460  0.87510  Biso   1.000  H
  C399     1.0000 0.44130  0.87780  0.91880  Biso   1.000  C
  H481     1.0000 0.43170  0.87160  0.94100  Biso   1.000  H
  C400     1.0000 0.44570  0.85242  0.89340  Biso   1.000  C
  H482     1.0000 0.43910  0.82880  0.89800  Biso   1.000  H
  C401     1.0000 0.45090  0.92181  0.96941  Biso   1.000  C
  C402     1.0000 0.44910  0.88908  0.98238  Biso   1.000  C
  C403     1.0000 0.44120  0.85857  0.95924  Biso   1.000  C
  H483     1.0000 0.41670  0.85420  0.96170  Biso   1.000  H
  H484     1.0000 0.44510  0.86530  0.93550  Biso   1.000  H
  C404     1.0000 0.45130  0.82230  0.97020  Biso   1.000  C
  H485     1.0000 0.44120  0.80540  0.95400  Biso   1.000  H
  H486     1.0000 0.47670  0.82010  0.96990  Biso   1.000  H
  H487     1.0000 0.44270  0.81780  0.99370  Biso   1.000  H
  C405     1.0000 0.52330  0.82616  0.75880  Biso   1.000  C
  H488     1.0000 0.51580  0.84050  0.77790  Biso   1.000  H
  H489     1.0000 0.51860  0.83780  0.73730  Biso   1.000  H
  H490     1.0000 0.54780  0.82180  0.76080  Biso   1.000  H
  C406     1.0000 0.44920  0.69478  0.76210  Biso   1.000  C
  H491     1.0000 0.43350  0.69460  0.78150  Biso   1.000  H
  H492     1.0000 0.46550  0.67600  0.76440  Biso   1.000  H
  H493     1.0000 0.43620  0.69200  0.74090  Biso   1.000  H
  C407     1.0000 0.51070  0.23318  0.26544  Biso   1.000  C
  H494     1.0000 0.52760  0.22880  0.28330  Biso   1.000  H
  C408     1.0000 0.50400  0.20803  0.24031  Biso   1.000  C
  C409     1.0000 0.46180  0.24589  0.21361  Biso   1.000  C
  H495     1.0000 0.44500  0.25030  0.19570  Biso   1.000  H
  C410     1.0000 0.46850  0.27104  0.23874  Biso   1.000  C
  C411     1.0000 0.46900  0.10446  0.14560  Biso   1.000  C
  H496     1.0000 0.47860  0.09830  0.16790  Biso   1.000  H
  C412     1.0000 0.46460  0.07908  0.12020  Biso   1.000  C
  H497     1.0000 0.47110  0.05540  0.12490  Biso   1.000  H
  C413     1.0000 0.44130  0.12220  0.08120  Biso   1.000  C
  H498     1.0000 0.43170  0.12840  0.05900  Biso   1.000  H
  C414     1.0000 0.44570  0.14758  0.10660  Biso   1.000  C
  H499     1.0000 0.43910  0.17120  0.10200  Biso   1.000  H
  C415     1.0000 0.45090  0.07819  0.03059  Biso   1.000  C
  C416     1.0000 0.44910  0.11092  0.01762  Biso   1.000  C
  C417     1.0000 0.44120  0.14143  0.04076  Biso   1.000  C
  H500     1.0000 0.41670  0.14580  0.03830  Biso   1.000  H
  H501     1.0000 0.44510  0.13470  0.06450  Biso   1.000  H
  C418     1.0000 0.45130  0.17770  0.02980  Biso   1.000  C
  H502     1.0000 0.44120  0.19460  0.04600  Biso   1.000  H
  H503     1.0000 0.47670  0.17990  0.03010  Biso   1.000  H
  H504     1.0000 0.44270  0.18220  0.00630  Biso   1.000  H
  C419     1.0000 0.52330  0.17384  0.24120  Biso   1.000  C
  H505     1.0000 0.51580  0.15950  0.22210  Biso   1.000  H
  H506     1.0000 0.51860  0.16220  0.26270  Biso   1.000  H
  H507     1.0000 0.54780  0.17820  0.23920  Biso   1.000  H
  C420     1.0000 0.44920  0.30522  0.23790  Biso   1.000  C
  H508     1.0000 0.43350  0.30540  0.21850  Biso   1.000  H
  H509     1.0000 0.46550  0.32400  0.23560  Biso   1.000  H
  H510     1.0000 0.43620  0.30800  0.25910  Biso   1.000  H
  C421     1.0000 0.48930  0.23318  0.73456  Biso   1.000  C
  H511     1.0000 0.47240  0.22880  0.71670  Biso   1.000  H
  C422     1.0000 0.49600  0.20803  0.75969  Biso   1.000  C
  C423     1.0000 0.53820  0.24589  0.78639  Biso   1.000  C
  H512     1.0000 0.55500  0.25030  0.80430  Biso   1.000  H
  C424     1.0000 0.53150  0.27104  0.76126  Biso   1.000  C
  C425     1.0000 0.53100  0.10446  0.85440  Biso   1.000  C
  H513     1.0000 0.52140  0.09830  0.83210  Biso   1.000  H
  C426     1.0000 0.53540  0.07908  0.87980  Biso   1.000  C
  H514     1.0000 0.52890  0.05540  0.87510  Biso   1.000  H
  C427     1.0000 0.55870  0.12220  0.91880  Biso   1.000  C
  H515     1.0000 0.56830  0.12840  0.94100  Biso   1.000  H
  C428     1.0000 0.55430  0.14758  0.89340  Biso   1.000  C
  H516     1.0000 0.56090  0.17120  0.89800  Biso   1.000  H
  C429     1.0000 0.54910  0.07819  0.96941  Biso   1.000  C
  C430     1.0000 0.55090  0.11092  0.98238  Biso   1.000  C
  C431     1.0000 0.55880  0.14143  0.95924  Biso   1.000  C
  H517     1.0000 0.58330  0.14580  0.96170  Biso   1.000  H
  H518     1.0000 0.55490  0.13470  0.93550  Biso   1.000  H
  C432     1.0000 0.54870  0.17770  0.97020  Biso   1.000  C
  H519     1.0000 0.55880  0.19460  0.95400  Biso   1.000  H
  H520     1.0000 0.52330  0.17990  0.96990  Biso   1.000  H
  H521     1.0000 0.55730  0.18220  0.99370  Biso   1.000  H
  C433     1.0000 0.47670  0.17384  0.75880  Biso   1.000  C
  H522     1.0000 0.48420  0.15950  0.77790  Biso   1.000  H
  H523     1.0000 0.48140  0.16220  0.73730  Biso   1.000  H
  H524     1.0000 0.45220  0.17820  0.76080  Biso   1.000  H
  C434     1.0000 0.55080  0.30522  0.76210  Biso   1.000  C
  H525     1.0000 0.56650  0.30540  0.78150  Biso   1.000  H
  H526     1.0000 0.53450  0.32400  0.76440  Biso   1.000  H
  H527     1.0000 0.56380  0.30800  0.74090  Biso   1.000  H
  C435     1.0000 0.48930  0.76682  0.26544  Biso   1.000  C
  H528     1.0000 0.47240  0.77120  0.28330  Biso   1.000  H
  C436     1.0000 0.49600  0.79197  0.24031  Biso   1.000  C
  C437     1.0000 0.53820  0.75411  0.21361  Biso   1.000  C
  H529     1.0000 0.55500  0.74970  0.19570  Biso   1.000  H
  C438     1.0000 0.53150  0.72896  0.23874  Biso   1.000  C
  C439     1.0000 0.53100  0.89554  0.14560  Biso   1.000  C
  H530     1.0000 0.52140  0.90170  0.16790  Biso   1.000  H
  C440     1.0000 0.53540  0.92092  0.12020  Biso   1.000  C
  H531     1.0000 0.52890  0.94460  0.12490  Biso   1.000  H
  C441     1.0000 0.55870  0.87780  0.08120  Biso   1.000  C
  H532     1.0000 0.56830  0.87160  0.05900  Biso   1.000  H
  C442     1.0000 0.55430  0.85242  0.10660  Biso   1.000  C
  H533     1.0000 0.56090  0.82880  0.10200  Biso   1.000  H
  C443     1.0000 0.54910  0.92181  0.03059  Biso   1.000  C
  C444     1.0000 0.55090  0.88908  0.01762  Biso   1.000  C
  C445     1.0000 0.55880  0.85857  0.04076  Biso   1.000  C
  H534     1.0000 0.58330  0.85420  0.03830  Biso   1.000  H
  H535     1.0000 0.55490  0.86530  0.06450  Biso   1.000  H
  C446     1.0000 0.54870  0.82230  0.02980  Biso   1.000  C
  H536     1.0000 0.55880  0.80540  0.04600  Biso   1.000  H
  H537     1.0000 0.52330  0.82010  0.03010  Biso   1.000  H
  H538     1.0000 0.55730  0.81780  0.00630  Biso   1.000  H
  C447     1.0000 0.47670  0.82616  0.24120  Biso   1.000  C
  H539     1.0000 0.48420  0.84050  0.22210  Biso   1.000  H
  H540     1.0000 0.48140  0.83780  0.26270  Biso   1.000  H
  H541     1.0000 0.45220  0.82180  0.23920  Biso   1.000  H
  C448     1.0000 0.55080  0.69478  0.23790  Biso   1.000  C
  H542     1.0000 0.56650  0.69460  0.21850  Biso   1.000  H
  H543     1.0000 0.53450  0.67600  0.23560  Biso   1.000  H
  H544     1.0000 0.56380  0.69200  0.25910  Biso   1.000  H
  C449     1.0000 0.73456  0.51070  0.76682  Biso   1.000  C
  H545     1.0000 0.71670  0.52760  0.77120  Biso   1.000  H
  C450     1.0000 0.75969  0.50400  0.79197  Biso   1.000  C
  C451     1.0000 0.78639  0.46180  0.75411  Biso   1.000  C
  H546     1.0000 0.80430  0.44500  0.74970  Biso   1.000  H
  C452     1.0000 0.76126  0.46850  0.72896  Biso   1.000  C
  C453     1.0000 0.85440  0.46900  0.89554  Biso   1.000  C
  H547     1.0000 0.83210  0.47860  0.90170  Biso   1.000  H
  C454     1.0000 0.87980  0.46460  0.92092  Biso   1.000  C
  H548     1.0000 0.87510  0.47110  0.94460  Biso   1.000  H
  C455     1.0000 0.91880  0.44130  0.87780  Biso   1.000  C
  H549     1.0000 0.94100  0.43170  0.87160  Biso   1.000  H
  C456     1.0000 0.89340  0.44570  0.85242  Biso   1.000  C
  H550     1.0000 0.89800  0.43910  0.82880  Biso   1.000  H
  C457     1.0000 0.96941  0.45090  0.92181  Biso   1.000  C
  C458     1.0000 0.98238  0.44910  0.88908  Biso   1.000  C
  C459     1.0000 0.95924  0.44120  0.85857  Biso   1.000  C
  H551     1.0000 0.96170  0.41670  0.85420  Biso   1.000  H
  H552     1.0000 0.93550  0.44510  0.86530  Biso   1.000  H
  C460     1.0000 0.97020  0.45130  0.82230  Biso   1.000  C
  H553     1.0000 0.95400  0.44120  0.80540  Biso   1.000  H
  H554     1.0000 0.96990  0.47670  0.82010  Biso   1.000  H
  H555     1.0000 0.99370  0.44270  0.81780  Biso   1.000  H
  C461     1.0000 0.75880  0.52330  0.82616  Biso   1.000  C
  H556     1.0000 0.77790  0.51580  0.84050  Biso   1.000  H
  H557     1.0000 0.73730  0.51860  0.83780  Biso   1.000  H
  H558     1.0000 0.76080  0.54780  0.82180  Biso   1.000  H
  C462     1.0000 0.76210  0.44920  0.69478  Biso   1.000  C
  H559     1.0000 0.78150  0.43350  0.69460  Biso   1.000  H
  H560     1.0000 0.76440  0.46550  0.67600  Biso   1.000  H
  H561     1.0000 0.74090  0.43620  0.69200  Biso   1.000  H
  C463     1.0000 0.26544  0.51070  0.23318  Biso   1.000  C
  H562     1.0000 0.28330  0.52760  0.22880  Biso   1.000  H
  C464     1.0000 0.24031  0.50400  0.20803  Biso   1.000  C
  C465     1.0000 0.21361  0.46180  0.24589  Biso   1.000  C
  H563     1.0000 0.19570  0.44500  0.25030  Biso   1.000  H
  C466     1.0000 0.23874  0.46850  0.27104  Biso   1.000  C
  C467     1.0000 0.14560  0.46900  0.10446  Biso   1.000  C
  H564     1.0000 0.16790  0.47860  0.09830  Biso   1.000  H
  C468     1.0000 0.12020  0.46460  0.07908  Biso   1.000  C
  H565     1.0000 0.12490  0.47110  0.05540  Biso   1.000  H
  C469     1.0000 0.08120  0.44130  0.12220  Biso   1.000  C
  H566     1.0000 0.05900  0.43170  0.12840  Biso   1.000  H
  C470     1.0000 0.10660  0.44570  0.14758  Biso   1.000  C
  H567     1.0000 0.10200  0.43910  0.17120  Biso   1.000  H
  C471     1.0000 0.03059  0.45090  0.07819  Biso   1.000  C
  C472     1.0000 0.01762  0.44910  0.11092  Biso   1.000  C
  C473     1.0000 0.04076  0.44120  0.14143  Biso   1.000  C
  H568     1.0000 0.03830  0.41670  0.14580  Biso   1.000  H
  H569     1.0000 0.06450  0.44510  0.13470  Biso   1.000  H
  C474     1.0000 0.02980  0.45130  0.17770  Biso   1.000  C
  H570     1.0000 0.04600  0.44120  0.19460  Biso   1.000  H
  H571     1.0000 0.03010  0.47670  0.17990  Biso   1.000  H
  H572     1.0000 0.00630  0.44270  0.18220  Biso   1.000  H
  C475     1.0000 0.24120  0.52330  0.17384  Biso   1.000  C
  H573     1.0000 0.22210  0.51580  0.15950  Biso   1.000  H
  H574     1.0000 0.26270  0.51860  0.16220  Biso   1.000  H
  H575     1.0000 0.23920  0.54780  0.17820  Biso   1.000  H
  C476     1.0000 0.23790  0.44920  0.30522  Biso   1.000  C
  H576     1.0000 0.21850  0.43350  0.30540  Biso   1.000  H
  H577     1.0000 0.23560  0.46550  0.32400  Biso   1.000  H
  H578     1.0000 0.25910  0.43620  0.30800  Biso   1.000  H
  C477     1.0000 0.73456  0.48930  0.23318  Biso   1.000  C
  H579     1.0000 0.71670  0.47240  0.22880  Biso   1.000  H
  C478     1.0000 0.75969  0.49600  0.20803  Biso   1.000  C
  C479     1.0000 0.78639  0.53820  0.24589  Biso   1.000  C
  H580     1.0000 0.80430  0.55500  0.25030  Biso   1.000  H
  C480     1.0000 0.76126  0.53150  0.27104  Biso   1.000  C
  C481     1.0000 0.85440  0.53100  0.10446  Biso   1.000  C
  H581     1.0000 0.83210  0.52140  0.09830  Biso   1.000  H
  C482     1.0000 0.87980  0.53540  0.07908  Biso   1.000  C
  H582     1.0000 0.87510  0.52890  0.05540  Biso   1.000  H
  C483     1.0000 0.91880  0.55870  0.12220  Biso   1.000  C
  H583     1.0000 0.94100  0.56830  0.12840  Biso   1.000  H
  C484     1.0000 0.89340  0.55430  0.14758  Biso   1.000  C
  H584     1.0000 0.89800  0.56090  0.17120  Biso   1.000  H
  C485     1.0000 0.96941  0.54910  0.07819  Biso   1.000  C
  C486     1.0000 0.98238  0.55090  0.11092  Biso   1.000  C
  C487     1.0000 0.95924  0.55880  0.14143  Biso   1.000  C
  H585     1.0000 0.96170  0.58330  0.14580  Biso   1.000  H
  H586     1.0000 0.93550  0.55490  0.13470  Biso   1.000  H
  C488     1.0000 0.97020  0.54870  0.17770  Biso   1.000  C
  H587     1.0000 0.95400  0.55880  0.19460  Biso   1.000  H
  H588     1.0000 0.96990  0.52330  0.17990  Biso   1.000  H
  H589     1.0000 0.99370  0.55730  0.18220  Biso   1.000  H
  C489     1.0000 0.75880  0.47670  0.17384  Biso   1.000  C
  H590     1.0000 0.77790  0.48420  0.15950  Biso   1.000  H
  H591     1.0000 0.73730  0.48140  0.16220  Biso   1.000  H
  H592     1.0000 0.76080  0.45220  0.17820  Biso   1.000  H
  C490     1.0000 0.76210  0.55080  0.30522  Biso   1.000  C
  H593     1.0000 0.78150  0.56650  0.30540  Biso   1.000  H
  H594     1.0000 0.76440  0.53450  0.32400  Biso   1.000  H
  H595     1.0000 0.74090  0.56380  0.30800  Biso   1.000  H
  C491     1.0000 0.26544  0.48930  0.76682  Biso   1.000  C
  H596     1.0000 0.28330  0.47240  0.77120  Biso   1.000  H
  C492     1.0000 0.24031  0.49600  0.79197  Biso   1.000  C
  C493     1.0000 0.21361  0.53820  0.75411  Biso   1.000  C
  H597     1.0000 0.19570  0.55500  0.74970  Biso   1.000  H
  C494     1.0000 0.23874  0.53150  0.72896  Biso   1.000  C
  C495     1.0000 0.14560  0.53100  0.89554  Biso   1.000  C
  H598     1.0000 0.16790  0.52140  0.90170  Biso   1.000  H
  C496     1.0000 0.12020  0.53540  0.92092  Biso   1.000  C
  H599     1.0000 0.12490  0.52890  0.94460  Biso   1.000  H
  C497     1.0000 0.08120  0.55870  0.87780  Biso   1.000  C
  H600     1.0000 0.05900  0.56830  0.87160  Biso   1.000  H
  C498     1.0000 0.10660  0.55430  0.85242  Biso   1.000  C
  H601     1.0000 0.10200  0.56090  0.82880  Biso   1.000  H
  C499     1.0000 0.03059  0.54910  0.92181  Biso   1.000  C
  C500     1.0000 0.01762  0.55090  0.88908  Biso   1.000  C
  C501     1.0000 0.04076  0.55880  0.85857  Biso   1.000  C
  H602     1.0000 0.03830  0.58330  0.85420  Biso   1.000  H
  H603     1.0000 0.06450  0.55490  0.86530  Biso   1.000  H
  C502     1.0000 0.02980  0.54870  0.82230  Biso   1.000  C
  H604     1.0000 0.04600  0.55880  0.80540  Biso   1.000  H
  H605     1.0000 0.03010  0.52330  0.82010  Biso   1.000  H
  H606     1.0000 0.00630  0.55730  0.81780  Biso   1.000  H
  C503     1.0000 0.24120  0.47670  0.82616  Biso   1.000  C
  H607     1.0000 0.22210  0.48420  0.84050  Biso   1.000  H
  H608     1.0000 0.26270  0.48140  0.83780  Biso   1.000  H
  H609     1.0000 0.23920  0.45220  0.82180  Biso   1.000  H
  C504     1.0000 0.23790  0.55080  0.69478  Biso   1.000  C
  H610     1.0000 0.21850  0.56650  0.69460  Biso   1.000  H
  H611     1.0000 0.23560  0.53450  0.67600  Biso   1.000  H
  H612     1.0000 0.25910  0.56380  0.69200  Biso   1.000  H
  C505     1.0000 0.73456  0.76682  0.48930  Biso   1.000  C
  H613     1.0000 0.71670  0.77120  0.47240  Biso   1.000  H
  C506     1.0000 0.75969  0.79197  0.49600  Biso   1.000  C
  C507     1.0000 0.78639  0.75411  0.53820  Biso   1.000  C
  H614     1.0000 0.80430  0.74970  0.55500  Biso   1.000  H
  C508     1.0000 0.76126  0.72896  0.53150  Biso   1.000  C
  C509     1.0000 0.85440  0.89554  0.53100  Biso   1.000  C
  H615     1.0000 0.83210  0.90170  0.52140  Biso   1.000  H
  C510     1.0000 0.87980  0.92092  0.53540  Biso   1.000  C
  H616     1.0000 0.87510  0.94460  0.52890  Biso   1.000  H
  C511     1.0000 0.91880  0.87780  0.55870  Biso   1.000  C
  H617     1.0000 0.94100  0.87160  0.56830  Biso   1.000  H
  C512     1.0000 0.89340  0.85242  0.55430  Biso   1.000  C
  H618     1.0000 0.89800  0.82880  0.56090  Biso   1.000  H
  C513     1.0000 0.96941  0.92181  0.54910  Biso   1.000  C
  C514     1.0000 0.98238  0.88908  0.55090  Biso   1.000  C
  C515     1.0000 0.95924  0.85857  0.55880  Biso   1.000  C
  H619     1.0000 0.96170  0.85420  0.58330  Biso   1.000  H
  H620     1.0000 0.93550  0.86530  0.55490  Biso   1.000  H
  C516     1.0000 0.97020  0.82230  0.54870  Biso   1.000  C
  H621     1.0000 0.95400  0.80540  0.55880  Biso   1.000  H
  H622     1.0000 0.96990  0.82010  0.52330  Biso   1.000  H
  H623     1.0000 0.99370  0.81780  0.55730  Biso   1.000  H
  C517     1.0000 0.75880  0.82616  0.47670  Biso   1.000  C
  H624     1.0000 0.77790  0.84050  0.48420  Biso   1.000  H
  H625     1.0000 0.73730  0.83780  0.48140  Biso   1.000  H
  H626     1.0000 0.76080  0.82180  0.45220  Biso   1.000  H
  C518     1.0000 0.76210  0.69478  0.55080  Biso   1.000  C
  H627     1.0000 0.78150  0.69460  0.56650  Biso   1.000  H
  H628     1.0000 0.76440  0.67600  0.53450  Biso   1.000  H
  H629     1.0000 0.74090  0.69200  0.56380  Biso   1.000  H
  C519     1.0000 0.26544  0.23318  0.48930  Biso   1.000  C
  H630     1.0000 0.28330  0.22880  0.47240  Biso   1.000  H
  C520     1.0000 0.24031  0.20803  0.49600  Biso   1.000  C
  C521     1.0000 0.21361  0.24589  0.53820  Biso   1.000  C
  H631     1.0000 0.19570  0.25030  0.55500  Biso   1.000  H
  C522     1.0000 0.23874  0.27104  0.53150  Biso   1.000  C
  C523     1.0000 0.14560  0.10446  0.53100  Biso   1.000  C
  H632     1.0000 0.16790  0.09830  0.52140  Biso   1.000  H
  C524     1.0000 0.12020  0.07908  0.53540  Biso   1.000  C
  H633     1.0000 0.12490  0.05540  0.52890  Biso   1.000  H
  C525     1.0000 0.08120  0.12220  0.55870  Biso   1.000  C
  H634     1.0000 0.05900  0.12840  0.56830  Biso   1.000  H
  C526     1.0000 0.10660  0.14758  0.55430  Biso   1.000  C
  H635     1.0000 0.10200  0.17120  0.56090  Biso   1.000  H
  C527     1.0000 0.03059  0.07819  0.54910  Biso   1.000  C
  C528     1.0000 0.01762  0.11092  0.55090  Biso   1.000  C
  C529     1.0000 0.04076  0.14143  0.55880  Biso   1.000  C
  H636     1.0000 0.03830  0.14580  0.58330  Biso   1.000  H
  H637     1.0000 0.06450  0.13470  0.55490  Biso   1.000  H
  C530     1.0000 0.02980  0.17770  0.54870  Biso   1.000  C
  H638     1.0000 0.04600  0.19460  0.55880  Biso   1.000  H
  H639     1.0000 0.03010  0.17990  0.52330  Biso   1.000  H
  H640     1.0000 0.00630  0.18220  0.55730  Biso   1.000  H
  C531     1.0000 0.24120  0.17384  0.47670  Biso   1.000  C
  H641     1.0000 0.22210  0.15950  0.48420  Biso   1.000  H
  H642     1.0000 0.26270  0.16220  0.48140  Biso   1.000  H
  H643     1.0000 0.23920  0.17820  0.45220  Biso   1.000  H
  C532     1.0000 0.23790  0.30522  0.55080  Biso   1.000  C
  H644     1.0000 0.21850  0.30540  0.56650  Biso   1.000  H
  H645     1.0000 0.23560  0.32400  0.53450  Biso   1.000  H
  H646     1.0000 0.25910  0.30800  0.56380  Biso   1.000  H
  C533     1.0000 0.73456  0.23318  0.51070  Biso   1.000  C
  H647     1.0000 0.71670  0.22880  0.52760  Biso   1.000  H
  C534     1.0000 0.75969  0.20803  0.50400  Biso   1.000  C
  C535     1.0000 0.78639  0.24589  0.46180  Biso   1.000  C
  H648     1.0000 0.80430  0.25030  0.44500  Biso   1.000  H
  C536     1.0000 0.76126  0.27104  0.46850  Biso   1.000  C
  C537     1.0000 0.85440  0.10446  0.46900  Biso   1.000  C
  H649     1.0000 0.83210  0.09830  0.47860  Biso   1.000  H
  C538     1.0000 0.87980  0.07908  0.46460  Biso   1.000  C
  H650     1.0000 0.87510  0.05540  0.47110  Biso   1.000  H
  C539     1.0000 0.91880  0.12220  0.44130  Biso   1.000  C
  H651     1.0000 0.94100  0.12840  0.43170  Biso   1.000  H
  C540     1.0000 0.89340  0.14758  0.44570  Biso   1.000  C
  H652     1.0000 0.89800  0.17120  0.43910  Biso   1.000  H
  C541     1.0000 0.96941  0.07819  0.45090  Biso   1.000  C
  C542     1.0000 0.98238  0.11092  0.44910  Biso   1.000  C
  C543     1.0000 0.95924  0.14143  0.44120  Biso   1.000  C
  H653     1.0000 0.96170  0.14580  0.41670  Biso   1.000  H
  H654     1.0000 0.93550  0.13470  0.44510  Biso   1.000  H
  C544     1.0000 0.97020  0.17770  0.45130  Biso   1.000  C
  H655     1.0000 0.95400  0.19460  0.44120  Biso   1.000  H
  H656     1.0000 0.96990  0.17990  0.47670  Biso   1.000  H
  H657     1.0000 0.99370  0.18220  0.44270  Biso   1.000  H
  C545     1.0000 0.75880  0.17384  0.52330  Biso   1.000  C
  H658     1.0000 0.77790  0.15950  0.51580  Biso   1.000  H
  H659     1.0000 0.73730  0.16220  0.51860  Biso   1.000  H
  H660     1.0000 0.76080  0.17820  0.54780  Biso   1.000  H
  C546     1.0000 0.76210  0.30522  0.44920  Biso   1.000  C
  H661     1.0000 0.78150  0.30540  0.43350  Biso   1.000  H
  H662     1.0000 0.76440  0.32400  0.46550  Biso   1.000  H
  H663     1.0000 0.74090  0.30800  0.43620  Biso   1.000  H
  C547     1.0000 0.26544  0.76682  0.51070  Biso   1.000  C
  H664     1.0000 0.28330  0.77120  0.52760  Biso   1.000  H
  C548     1.0000 0.24031  0.79197  0.50400  Biso   1.000  C
  C549     1.0000 0.21361  0.75411  0.46180  Biso   1.000  C
  H665     1.0000 0.19570  0.74970  0.44500  Biso   1.000  H
  C550     1.0000 0.23874  0.72896  0.46850  Biso   1.000  C
  C551     1.0000 0.14560  0.89554  0.46900  Biso   1.000  C
  H666     1.0000 0.16790  0.90170  0.47860  Biso   1.000  H
  C552     1.0000 0.12020  0.92092  0.46460  Biso   1.000  C
  H667     1.0000 0.12490  0.94460  0.47110  Biso   1.000  H
  C553     1.0000 0.08120  0.87780  0.44130  Biso   1.000  C
  H668     1.0000 0.05900  0.87160  0.43170  Biso   1.000  H
  C554     1.0000 0.10660  0.85242  0.44570  Biso   1.000  C
  H669     1.0000 0.10200  0.82880  0.43910  Biso   1.000  H
  C555     1.0000 0.03059  0.92181  0.45090  Biso   1.000  C
  C556     1.0000 0.01762  0.88908  0.44910  Biso   1.000  C
  C557     1.0000 0.04076  0.85857  0.44120  Biso   1.000  C
  H670     1.0000 0.03830  0.85420  0.41670  Biso   1.000  H
  H671     1.0000 0.06450  0.86530  0.44510  Biso   1.000  H
  C558     1.0000 0.02980  0.82230  0.45130  Biso   1.000  C
  H672     1.0000 0.04600  0.80540  0.44120  Biso   1.000  H
  H673     1.0000 0.03010  0.82010  0.47670  Biso   1.000  H
  H674     1.0000 0.00630  0.81780  0.44270  Biso   1.000  H
  C559     1.0000 0.24120  0.82616  0.52330  Biso   1.000  C
  H675     1.0000 0.22210  0.84050  0.51580  Biso   1.000  H
  H676     1.0000 0.26270  0.83780  0.51860  Biso   1.000  H
  H677     1.0000 0.23920  0.82180  0.54780  Biso   1.000  H
  C560     1.0000 0.23790  0.69478  0.44920  Biso   1.000  C
  H678     1.0000 0.21850  0.69460  0.43350  Biso   1.000  H
  H679     1.0000 0.23560  0.67600  0.46550  Biso   1.000  H
  H680     1.0000 0.25910  0.69200  0.43620  Biso   1.000  H
  C561     1.0000 0.76682  0.51070  0.26544  Biso   1.000  C
  H681     1.0000 0.77120  0.52760  0.28330  Biso   1.000  H
  C562     1.0000 0.79197  0.50400  0.24031  Biso   1.000  C
  C563     1.0000 0.75411  0.46180  0.21361  Biso   1.000  C
  H682     1.0000 0.74970  0.44500  0.19570  Biso   1.000  H
  C564     1.0000 0.72896  0.46850  0.23874  Biso   1.000  C
  C565     1.0000 0.89554  0.46900  0.14560  Biso   1.000  C
  H683     1.0000 0.90170  0.47860  0.16790  Biso   1.000  H
  C566     1.0000 0.92092  0.46460  0.12020  Biso   1.000  C
  H684     1.0000 0.94460  0.47110  0.12490  Biso   1.000  H
  C567     1.0000 0.87780  0.44130  0.08120  Biso   1.000  C
  H685     1.0000 0.87160  0.43170  0.05900  Biso   1.000  H
  C568     1.0000 0.85242  0.44570  0.10660  Biso   1.000  C
  H686     1.0000 0.82880  0.43910  0.10200  Biso   1.000  H
  C569     1.0000 0.92181  0.45090  0.03059  Biso   1.000  C
  C570     1.0000 0.88908  0.44910  0.01762  Biso   1.000  C
  C571     1.0000 0.85857  0.44120  0.04076  Biso   1.000  C
  H687     1.0000 0.85420  0.41670  0.03830  Biso   1.000  H
  H688     1.0000 0.86530  0.44510  0.06450  Biso   1.000  H
  C572     1.0000 0.82230  0.45130  0.02980  Biso   1.000  C
  H689     1.0000 0.80540  0.44120  0.04600  Biso   1.000  H
  H690     1.0000 0.82010  0.47670  0.03010  Biso   1.000  H
  H691     1.0000 0.81780  0.44270  0.00630  Biso   1.000  H
  C573     1.0000 0.82616  0.52330  0.24120  Biso   1.000  C
  H692     1.0000 0.84050  0.51580  0.22210  Biso   1.000  H
  H693     1.0000 0.83780  0.51860  0.26270  Biso   1.000  H
  H694     1.0000 0.82180  0.54780  0.23920  Biso   1.000  H
  C574     1.0000 0.69478  0.44920  0.23790  Biso   1.000  C
  H695     1.0000 0.69460  0.43350  0.21850  Biso   1.000  H
  H696     1.0000 0.67600  0.46550  0.23560  Biso   1.000  H
  H697     1.0000 0.69200  0.43620  0.25910  Biso   1.000  H
  C575     1.0000 0.23318  0.51070  0.73456  Biso   1.000  C
  H698     1.0000 0.22880  0.52760  0.71670  Biso   1.000  H
  C576     1.0000 0.20803  0.50400  0.75969  Biso   1.000  C
  C577     1.0000 0.24589  0.46180  0.78639  Biso   1.000  C
  H699     1.0000 0.25030  0.44500  0.80430  Biso   1.000  H
  C578     1.0000 0.27104  0.46850  0.76126  Biso   1.000  C
  C579     1.0000 0.10446  0.46900  0.85440  Biso   1.000  C
  H700     1.0000 0.09830  0.47860  0.83210  Biso   1.000  H
  C580     1.0000 0.07908  0.46460  0.87980  Biso   1.000  C
  H701     1.0000 0.05540  0.47110  0.87510  Biso   1.000  H
  C581     1.0000 0.12220  0.44130  0.91880  Biso   1.000  C
  H702     1.0000 0.12840  0.43170  0.94100  Biso   1.000  H
  C582     1.0000 0.14758  0.44570  0.89340  Biso   1.000  C
  H703     1.0000 0.17120  0.43910  0.89800  Biso   1.000  H
  C583     1.0000 0.07819  0.45090  0.96941  Biso   1.000  C
  C584     1.0000 0.11092  0.44910  0.98238  Biso   1.000  C
  C585     1.0000 0.14143  0.44120  0.95924  Biso   1.000  C
  H704     1.0000 0.14580  0.41670  0.96170  Biso   1.000  H
  H705     1.0000 0.13470  0.44510  0.93550  Biso   1.000  H
  C586     1.0000 0.17770  0.45130  0.97020  Biso   1.000  C
  H706     1.0000 0.19460  0.44120  0.95400  Biso   1.000  H
  H707     1.0000 0.17990  0.47670  0.96990  Biso   1.000  H
  H708     1.0000 0.18220  0.44270  0.99370  Biso   1.000  H
  C587     1.0000 0.17384  0.52330  0.75880  Biso   1.000  C
  H709     1.0000 0.15950  0.51580  0.77790  Biso   1.000  H
  H710     1.0000 0.16220  0.51860  0.73730  Biso   1.000  H
  H711     1.0000 0.17820  0.54780  0.76080  Biso   1.000  H
  C588     1.0000 0.30522  0.44920  0.76210  Biso   1.000  C
  H712     1.0000 0.30540  0.43350  0.78150  Biso   1.000  H
  H713     1.0000 0.32400  0.46550  0.76440  Biso   1.000  H
  H714     1.0000 0.30800  0.43620  0.74090  Biso   1.000  H
  C589     1.0000 0.23318  0.48930  0.26544  Biso   1.000  C
  H715     1.0000 0.22880  0.47240  0.28330  Biso   1.000  H
  C590     1.0000 0.20803  0.49600  0.24031  Biso   1.000  C
  C591     1.0000 0.24589  0.53820  0.21361  Biso   1.000  C
  H716     1.0000 0.25030  0.55500  0.19570  Biso   1.000  H
  C592     1.0000 0.27104  0.53150  0.23874  Biso   1.000  C
  C593     1.0000 0.10446  0.53100  0.14560  Biso   1.000  C
  H717     1.0000 0.09830  0.52140  0.16790  Biso   1.000  H
  C594     1.0000 0.07908  0.53540  0.12020  Biso   1.000  C
  H718     1.0000 0.05540  0.52890  0.12490  Biso   1.000  H
  C595     1.0000 0.12220  0.55870  0.08120  Biso   1.000  C
  H719     1.0000 0.12840  0.56830  0.05900  Biso   1.000  H
  C596     1.0000 0.14758  0.55430  0.10660  Biso   1.000  C
  H720     1.0000 0.17120  0.56090  0.10200  Biso   1.000  H
  C597     1.0000 0.07819  0.54910  0.03059  Biso   1.000  C
  C598     1.0000 0.11092  0.55090  0.01762  Biso   1.000  C
  C599     1.0000 0.14143  0.55880  0.04076  Biso   1.000  C
  H721     1.0000 0.14580  0.58330  0.03830  Biso   1.000  H
  H722     1.0000 0.13470  0.55490  0.06450  Biso   1.000  H
  C600     1.0000 0.17770  0.54870  0.02980  Biso   1.000  C
  H723     1.0000 0.19460  0.55880  0.04600  Biso   1.000  H
  H724     1.0000 0.17990  0.52330  0.03010  Biso   1.000  H
  H725     1.0000 0.18220  0.55730  0.00630  Biso   1.000  H
  C601     1.0000 0.17384  0.47670  0.24120  Biso   1.000  C
  H726     1.0000 0.15950  0.48420  0.22210  Biso   1.000  H
  H727     1.0000 0.16220  0.48140  0.26270  Biso   1.000  H
  H728     1.0000 0.17820  0.45220  0.23920  Biso   1.000  H
  C602     1.0000 0.30522  0.55080  0.23790  Biso   1.000  C
  H729     1.0000 0.30540  0.56650  0.21850  Biso   1.000  H
  H730     1.0000 0.32400  0.53450  0.23560  Biso   1.000  H
  H731     1.0000 0.30800  0.56380  0.25910  Biso   1.000  H
  C603     1.0000 0.76682  0.48930  0.73456  Biso   1.000  C
  H732     1.0000 0.77120  0.47240  0.71670  Biso   1.000  H
  C604     1.0000 0.79197  0.49600  0.75969  Biso   1.000  C
  C605     1.0000 0.75411  0.53820  0.78639  Biso   1.000  C
  H733     1.0000 0.74970  0.55500  0.80430  Biso   1.000  H
  C606     1.0000 0.72896  0.53150  0.76126  Biso   1.000  C
  C607     1.0000 0.89554  0.53100  0.85440  Biso   1.000  C
  H734     1.0000 0.90170  0.52140  0.83210  Biso   1.000  H
  C608     1.0000 0.92092  0.53540  0.87980  Biso   1.000  C
  H735     1.0000 0.94460  0.52890  0.87510  Biso   1.000  H
  C609     1.0000 0.87780  0.55870  0.91880  Biso   1.000  C
  H736     1.0000 0.87160  0.56830  0.94100  Biso   1.000  H
  C610     1.0000 0.85242  0.55430  0.89340  Biso   1.000  C
  H737     1.0000 0.82880  0.56090  0.89800  Biso   1.000  H
  C611     1.0000 0.92181  0.54910  0.96941  Biso   1.000  C
  C612     1.0000 0.88908  0.55090  0.98238  Biso   1.000  C
  C613     1.0000 0.85857  0.55880  0.95924  Biso   1.000  C
  H738     1.0000 0.85420  0.58330  0.96170  Biso   1.000  H
  H739     1.0000 0.86530  0.55490  0.93550  Biso   1.000  H
  C614     1.0000 0.82230  0.54870  0.97020  Biso   1.000  C
  H740     1.0000 0.80540  0.55880  0.95400  Biso   1.000  H
  H741     1.0000 0.82010  0.52330  0.96990  Biso   1.000  H
  H742     1.0000 0.81780  0.55730  0.99370  Biso   1.000  H
  C615     1.0000 0.82616  0.47670  0.75880  Biso   1.000  C
  H743     1.0000 0.84050  0.48420  0.77790  Biso   1.000  H
  H744     1.0000 0.83780  0.48140  0.73730  Biso   1.000  H
  H745     1.0000 0.82180  0.45220  0.76080  Biso   1.000  H
  C616     1.0000 0.69478  0.55080  0.76210  Biso   1.000  C
  H746     1.0000 0.69460  0.56650  0.78150  Biso   1.000  H
  H747     1.0000 0.67600  0.53450  0.76440  Biso   1.000  H
  H748     1.0000 0.69200  0.56380  0.74090  Biso   1.000  H
  C617     1.0000 0.51070  0.73456  0.23318  Biso   1.000  C
  H749     1.0000 0.52760  0.71670  0.22880  Biso   1.000  H
  C618     1.0000 0.50400  0.75969  0.20803  Biso   1.000  C
  C619     1.0000 0.46180  0.78639  0.24589  Biso   1.000  C
  H750     1.0000 0.44500  0.80430  0.25030  Biso   1.000  H
  C620     1.0000 0.46850  0.76126  0.27104  Biso   1.000  C
  C621     1.0000 0.46900  0.85440  0.10446  Biso   1.000  C
  H751     1.0000 0.47860  0.83210  0.09830  Biso   1.000  H
  C622     1.0000 0.46460  0.87980  0.07908  Biso   1.000  C
  H752     1.0000 0.47110  0.87510  0.05540  Biso   1.000  H
  C623     1.0000 0.44130  0.91880  0.12220  Biso   1.000  C
  H753     1.0000 0.43170  0.94100  0.12840  Biso   1.000  H
  C624     1.0000 0.44570  0.89340  0.14758  Biso   1.000  C
  H754     1.0000 0.43910  0.89800  0.17120  Biso   1.000  H
  C625     1.0000 0.45090  0.96941  0.07819  Biso   1.000  C
  C626     1.0000 0.44910  0.98238  0.11092  Biso   1.000  C
  C627     1.0000 0.44120  0.95924  0.14143  Biso   1.000  C
  H755     1.0000 0.41670  0.96170  0.14580  Biso   1.000  H
  H756     1.0000 0.44510  0.93550  0.13470  Biso   1.000  H
  C628     1.0000 0.45130  0.97020  0.17770  Biso   1.000  C
  H757     1.0000 0.44120  0.95400  0.19460  Biso   1.000  H
  H758     1.0000 0.47670  0.96990  0.17990  Biso   1.000  H
  H759     1.0000 0.44270  0.99370  0.18220  Biso   1.000  H
  C629     1.0000 0.52330  0.75880  0.17384  Biso   1.000  C
  H760     1.0000 0.51580  0.77790  0.15950  Biso   1.000  H
  H761     1.0000 0.51860  0.73730  0.16220  Biso   1.000  H
  H762     1.0000 0.54780  0.76080  0.17820  Biso   1.000  H
  C630     1.0000 0.44920  0.76210  0.30522  Biso   1.000  C
  H763     1.0000 0.43350  0.78150  0.30540  Biso   1.000  H
  H764     1.0000 0.46550  0.76440  0.32400  Biso   1.000  H
  H765     1.0000 0.43620  0.74090  0.30800  Biso   1.000  H
  C631     1.0000 0.51070  0.26544  0.76682  Biso   1.000  C
  H766     1.0000 0.52760  0.28330  0.77120  Biso   1.000  H
  C632     1.0000 0.50400  0.24031  0.79197  Biso   1.000  C
  C633     1.0000 0.46180  0.21361  0.75411  Biso   1.000  C
  H767     1.0000 0.44500  0.19570  0.74970  Biso   1.000  H
  C634     1.0000 0.46850  0.23874  0.72896  Biso   1.000  C
  C635     1.0000 0.46900  0.14560  0.89554  Biso   1.000  C
  H768     1.0000 0.47860  0.16790  0.90170  Biso   1.000  H
  C636     1.0000 0.46460  0.12020  0.92092  Biso   1.000  C
  H769     1.0000 0.47110  0.12490  0.94460  Biso   1.000  H
  C637     1.0000 0.44130  0.08120  0.87780  Biso   1.000  C
  H770     1.0000 0.43170  0.05900  0.87160  Biso   1.000  H
  C638     1.0000 0.44570  0.10660  0.85242  Biso   1.000  C
  H771     1.0000 0.43910  0.10200  0.82880  Biso   1.000  H
  C639     1.0000 0.45090  0.03059  0.92181  Biso   1.000  C
  C640     1.0000 0.44910  0.01762  0.88908  Biso   1.000  C
  C641     1.0000 0.44120  0.04076  0.85857  Biso   1.000  C
  H772     1.0000 0.41670  0.03830  0.85420  Biso   1.000  H
  H773     1.0000 0.44510  0.06450  0.86530  Biso   1.000  H
  C642     1.0000 0.45130  0.02980  0.82230  Biso   1.000  C
  H774     1.0000 0.44120  0.04600  0.80540  Biso   1.000  H
  H775     1.0000 0.47670  0.03010  0.82010  Biso   1.000  H
  H776     1.0000 0.44270  0.00630  0.81780  Biso   1.000  H
  C643     1.0000 0.52330  0.24120  0.82616  Biso   1.000  C
  H777     1.0000 0.51580  0.22210  0.84050  Biso   1.000  H
  H778     1.0000 0.51860  0.26270  0.83780  Biso   1.000  H
  H779     1.0000 0.54780  0.23920  0.82180  Biso   1.000  H
  C644     1.0000 0.44920  0.23790  0.69478  Biso   1.000  C
  H780     1.0000 0.43350  0.21850  0.69460  Biso   1.000  H
  H781     1.0000 0.46550  0.23560  0.67600  Biso   1.000  H
  H782     1.0000 0.43620  0.25910  0.69200  Biso   1.000  H
  C645     1.0000 0.48930  0.73456  0.76682  Biso   1.000  C
  H783     1.0000 0.47240  0.71670  0.77120  Biso   1.000  H
  C646     1.0000 0.49600  0.75969  0.79197  Biso   1.000  C
  C647     1.0000 0.53820  0.78639  0.75411  Biso   1.000  C
  H784     1.0000 0.55500  0.80430  0.74970  Biso   1.000  H
  C648     1.0000 0.53150  0.76126  0.72896  Biso   1.000  C
  C649     1.0000 0.53100  0.85440  0.89554  Biso   1.000  C
  H785     1.0000 0.52140  0.83210  0.90170  Biso   1.000  H
  C650     1.0000 0.53540  0.87980  0.92092  Biso   1.000  C
  H786     1.0000 0.52890  0.87510  0.94460  Biso   1.000  H
  C651     1.0000 0.55870  0.91880  0.87780  Biso   1.000  C
  H787     1.0000 0.56830  0.94100  0.87160  Biso   1.000  H
  C652     1.0000 0.55430  0.89340  0.85242  Biso   1.000  C
  H788     1.0000 0.56090  0.89800  0.82880  Biso   1.000  H
  C653     1.0000 0.54910  0.96941  0.92181  Biso   1.000  C
  C654     1.0000 0.55090  0.98238  0.88908  Biso   1.000  C
  C655     1.0000 0.55880  0.95924  0.85857  Biso   1.000  C
  H789     1.0000 0.58330  0.96170  0.85420  Biso   1.000  H
  H790     1.0000 0.55490  0.93550  0.86530  Biso   1.000  H
  C656     1.0000 0.54870  0.97020  0.82230  Biso   1.000  C
  H791     1.0000 0.55880  0.95400  0.80540  Biso   1.000  H
  H792     1.0000 0.52330  0.96990  0.82010  Biso   1.000  H
  H793     1.0000 0.55730  0.99370  0.81780  Biso   1.000  H
  C657     1.0000 0.47670  0.75880  0.82616  Biso   1.000  C
  H794     1.0000 0.48420  0.77790  0.84050  Biso   1.000  H
  H795     1.0000 0.48140  0.73730  0.83780  Biso   1.000  H
  H796     1.0000 0.45220  0.76080  0.82180  Biso   1.000  H
  C658     1.0000 0.55080  0.76210  0.69478  Biso   1.000  C
  H797     1.0000 0.56650  0.78150  0.69460  Biso   1.000  H
  H798     1.0000 0.53450  0.76440  0.67600  Biso   1.000  H
  H799     1.0000 0.56380  0.74090  0.69200  Biso   1.000  H
  C659     1.0000 0.48930  0.26544  0.23318  Biso   1.000  C
  H800     1.0000 0.47240  0.28330  0.22880  Biso   1.000  H
  C660     1.0000 0.49600  0.24031  0.20803  Biso   1.000  C
  C661     1.0000 0.53820  0.21361  0.24589  Biso   1.000  C
  H801     1.0000 0.55500  0.19570  0.25030  Biso   1.000  H
  C662     1.0000 0.53150  0.23874  0.27104  Biso   1.000  C
  C663     1.0000 0.53100  0.14560  0.10446  Biso   1.000  C
  H802     1.0000 0.52140  0.16790  0.09830  Biso   1.000  H
  C664     1.0000 0.53540  0.12020  0.07908  Biso   1.000  C
  H803     1.0000 0.52890  0.12490  0.05540  Biso   1.000  H
  C665     1.0000 0.55870  0.08120  0.12220  Biso   1.000  C
  H804     1.0000 0.56830  0.05900  0.12840  Biso   1.000  H
  C666     1.0000 0.55430  0.10660  0.14758  Biso   1.000  C
  H805     1.0000 0.56090  0.10200  0.17120  Biso   1.000  H
  C667     1.0000 0.54910  0.03059  0.07819  Biso   1.000  C
  C668     1.0000 0.55090  0.01762  0.11092  Biso   1.000  C
  C669     1.0000 0.55880  0.04076  0.14143  Biso   1.000  C
  H806     1.0000 0.58330  0.03830  0.14580  Biso   1.000  H
  H807     1.0000 0.55490  0.06450  0.13470  Biso   1.000  H
  C670     1.0000 0.54870  0.02980  0.17770  Biso   1.000  C
  H808     1.0000 0.55880  0.04600  0.19460  Biso   1.000  H
  H809     1.0000 0.52330  0.03010  0.17990  Biso   1.000  H
  H810     1.0000 0.55730  0.00630  0.18220  Biso   1.000  H
  C671     1.0000 0.47670  0.24120  0.17384  Biso   1.000  C
  H811     1.0000 0.48420  0.22210  0.15950  Biso   1.000  H
  H812     1.0000 0.48140  0.26270  0.16220  Biso   1.000  H
  H813     1.0000 0.45220  0.23920  0.17820  Biso   1.000  H
  C672     1.0000 0.55080  0.23790  0.30522  Biso   1.000  C
  H814     1.0000 0.56650  0.21850  0.30540  Biso   1.000  H
  H815     1.0000 0.53450  0.23560  0.32400  Biso   1.000  H
  H816     1.0000 0.56380  0.25910  0.30800  Biso   1.000  H
  Zr1      1.0000 0.43556  0.50000  0.50000  Biso   1.000  Zr
  Zr2      1.0000 0.56444  0.50000  0.50000  Biso   1.000  Zr
  Zr3      1.0000 0.50000  0.43556  0.50000  Biso   1.000  Zr
  Zr4      1.0000 0.50000  0.56444  0.50000  Biso   1.000  Zr
  Zr5      1.0000 0.50000  0.50000  0.43556  Biso   1.000  Zr
  Zr6      1.0000 0.50000  0.50000  0.56444  Biso   1.000  Zr
  O1       1.0000 0.46842  0.46842  0.46842  Biso   1.000  O
  O2       1.0000 0.53158  0.53158  0.46842  Biso   1.000  O
  O3       1.0000 0.53158  0.46842  0.53158  Biso   1.000  O
  O4       1.0000 0.46842  0.53158  0.53158  Biso   1.000  O
  O5       1.0000 0.46842  0.46842  0.53158  Biso   1.000  O
  O6       1.0000 0.53158  0.53158  0.53158  Biso   1.000  O
  O7       1.0000 0.46842  0.53158  0.46842  Biso   1.000  O
  O8       1.0000 0.53158  0.46842  0.46842  Biso   1.000  O
  O9       1.0000 0.40712  0.44995  0.50000  Biso   1.000  O
  C673     1.0000 0.35767  0.40212  0.50000  Biso   1.000  C
  H817     1.0000 0.35130  0.42600  0.50000  Biso   1.000  H
  C674     1.0000 0.33206  0.37651  0.50000  Biso   1.000  C
  H818     1.0000 0.30820  0.38280  0.50000  Biso   1.000  H
  O10      1.0000 0.59288  0.55005  0.50000  Biso   1.000  O
  C675     1.0000 0.64233  0.59788  0.50000  Biso   1.000  C
  H819     1.0000 0.64870  0.57400  0.50000  Biso   1.000  H
  C676     1.0000 0.66794  0.62349  0.50000  Biso   1.000  C
  H820     1.0000 0.69180  0.61720  0.50000  Biso   1.000  H
  O11      1.0000 0.59288  0.44995  0.50000  Biso   1.000  O
  C677     1.0000 0.64233  0.40212  0.50000  Biso   1.000  C
  H821     1.0000 0.64870  0.42600  0.50000  Biso   1.000  H
  C678     1.0000 0.66794  0.37651  0.50000  Biso   1.000  C
  H822     1.0000 0.69180  0.38280  0.50000  Biso   1.000  H
  O12      1.0000 0.40712  0.55005  0.50000  Biso   1.000  O
  C679     1.0000 0.35767  0.59788  0.50000  Biso   1.000  C
  H823     1.0000 0.35130  0.57400  0.50000  Biso   1.000  H
  C680     1.0000 0.33206  0.62349  0.50000  Biso   1.000  C
  H824     1.0000 0.30820  0.61720  0.50000  Biso   1.000  H
  O13      1.0000 0.50000  0.40712  0.44995  Biso   1.000  O
  C681     1.0000 0.50000  0.35767  0.40212  Biso   1.000  C
  H825     1.0000 0.50000  0.35130  0.42600  Biso   1.000  H
  C682     1.0000 0.50000  0.33206  0.37651  Biso   1.000  C
  H826     1.0000 0.50000  0.30820  0.38280  Biso   1.000  H
  O14      1.0000 0.50000  0.59288  0.55005  Biso   1.000  O
  C683     1.0000 0.50000  0.64233  0.59788  Biso   1.000  C
  H827     1.0000 0.50000  0.64870  0.57400  Biso   1.000  H
  C684     1.0000 0.50000  0.66794  0.62349  Biso   1.000  C
  H828     1.0000 0.50000  0.69180  0.61720  Biso   1.000  H
  O15      1.0000 0.50000  0.59288  0.44995  Biso   1.000  O
  C685     1.0000 0.50000  0.64233  0.40212  Biso   1.000  C
  H829     1.0000 0.50000  0.64870  0.42600  Biso   1.000  H
  C686     1.0000 0.50000  0.66794  0.37651  Biso   1.000  C
  H830     1.0000 0.50000  0.69180  0.38280  Biso   1.000  H
  O16      1.0000 0.50000  0.40712  0.55005  Biso   1.000  O
  C687     1.0000 0.50000  0.35767  0.59788  Biso   1.000  C
  H831     1.0000 0.50000  0.35130  0.57400  Biso   1.000  H
  C688     1.0000 0.50000  0.33206  0.62349  Biso   1.000  C
  H832     1.0000 0.50000  0.30820  0.61720  Biso   1.000  H
  O17      1.0000 0.44995  0.50000  0.40712  Biso   1.000  O
  C689     1.0000 0.40212  0.50000  0.35767  Biso   1.000  C
  H833     1.0000 0.42600  0.50000  0.35130  Biso   1.000  H
  C690     1.0000 0.37651  0.50000  0.33206  Biso   1.000  C
  H834     1.0000 0.38280  0.50000  0.30820  Biso   1.000  H
  O18      1.0000 0.55005  0.50000  0.59288  Biso   1.000  O
  C691     1.0000 0.59788  0.50000  0.64233  Biso   1.000  C
  H835     1.0000 0.57400  0.50000  0.64870  Biso   1.000  H
  C692     1.0000 0.62349  0.50000  0.66794  Biso   1.000  C
  H836     1.0000 0.61720  0.50000  0.69180  Biso   1.000  H
  O19      1.0000 0.44995  0.50000  0.59288  Biso   1.000  O
  C693     1.0000 0.40212  0.50000  0.64233  Biso   1.000  C
  H837     1.0000 0.42600  0.50000  0.64870  Biso   1.000  H
  C694     1.0000 0.37651  0.50000  0.66794  Biso   1.000  C
  H838     1.0000 0.38280  0.50000  0.69180  Biso   1.000  H
  O20      1.0000 0.55005  0.50000  0.40712  Biso   1.000  O
  C695     1.0000 0.59788  0.50000  0.35767  Biso   1.000  C
  H839     1.0000 0.57400  0.50000  0.35130  Biso   1.000  H
  C696     1.0000 0.62349  0.50000  0.33206  Biso   1.000  C
  H840     1.0000 0.61720  0.50000  0.30820  Biso   1.000  H
  O21      1.0000 0.44995  0.40712  0.50000  Biso   1.000  O
  C697     1.0000 0.40212  0.35767  0.50000  Biso   1.000  C
  H841     1.0000 0.42600  0.35130  0.50000  Biso   1.000  H
  C698     1.0000 0.37651  0.33206  0.50000  Biso   1.000  C
  H842     1.0000 0.38280  0.30820  0.50000  Biso   1.000  H
  O22      1.0000 0.55005  0.59288  0.50000  Biso   1.000  O
  C699     1.0000 0.59788  0.64233  0.50000  Biso   1.000  C
  H843     1.0000 0.57400  0.64870  0.50000  Biso   1.000  H
  C700     1.0000 0.62349  0.66794  0.50000  Biso   1.000  C
  H844     1.0000 0.61720  0.69180  0.50000  Biso   1.000  H
  O23      1.0000 0.44995  0.59288  0.50000  Biso   1.000  O
  C701     1.0000 0.40212  0.64233  0.50000  Biso   1.000  C
  H845     1.0000 0.42600  0.64870  0.50000  Biso   1.000  H
  C702     1.0000 0.37651  0.66794  0.50000  Biso   1.000  C
  H846     1.0000 0.38280  0.69180  0.50000  Biso   1.000  H
  O24      1.0000 0.55005  0.40712  0.50000  Biso   1.000  O
  C703     1.0000 0.59788  0.35767  0.50000  Biso   1.000  C
  H847     1.0000 0.57400  0.35130  0.50000  Biso   1.000  H
  C704     1.0000 0.62349  0.33206  0.50000  Biso   1.000  C
  H848     1.0000 0.61720  0.30820  0.50000  Biso   1.000  H
  O25      1.0000 0.40712  0.50000  0.55005  Biso   1.000  O
  C705     1.0000 0.35767  0.50000  0.59788  Biso   1.000  C
  H849     1.0000 0.35130  0.50000  0.57400  Biso   1.000  H
  C706     1.0000 0.33206  0.50000  0.62349  Biso   1.000  C
  H850     1.0000 0.30820  0.50000  0.61720  Biso   1.000  H
  O26      1.0000 0.59288  0.50000  0.44995  Biso   1.000  O
  C707     1.0000 0.64233  0.50000  0.40212  Biso   1.000  C
  H851     1.0000 0.64870  0.50000  0.42600  Biso   1.000  H
  C708     1.0000 0.66794  0.50000  0.37651  Biso   1.000  C
  H852     1.0000 0.69180  0.50000  0.38280  Biso   1.000  H
  O27      1.0000 0.59288  0.50000  0.55005  Biso   1.000  O
  C709     1.0000 0.64233  0.50000  0.59788  Biso   1.000  C
  H853     1.0000 0.64870  0.50000  0.57400  Biso   1.000  H
  C710     1.0000 0.66794  0.50000  0.62349  Biso   1.000  C
  H854     1.0000 0.69180  0.50000  0.61720  Biso   1.000  H
  O28      1.0000 0.40712  0.50000  0.44995  Biso   1.000  O
  C711     1.0000 0.35767  0.50000  0.40212  Biso   1.000  C
  H855     1.0000 0.35130  0.50000  0.42600  Biso   1.000  H
  C712     1.0000 0.33206  0.50000  0.37651  Biso   1.000  C
  H856     1.0000 0.30820  0.50000  0.38280  Biso   1.000  H
  O29      1.0000 0.50000  0.44995  0.59288  Biso   1.000  O
  C713     1.0000 0.50000  0.40212  0.64233  Biso   1.000  C
  H857     1.0000 0.50000  0.42600  0.64870  Biso   1.000  H
  C714     1.0000 0.50000  0.37651  0.66794  Biso   1.000  C
  H858     1.0000 0.50000  0.38280  0.69180  Biso   1.000  H
  O30      1.0000 0.50000  0.55005  0.40712  Biso   1.000  O
  C715     1.0000 0.50000  0.59788  0.35767  Biso   1.000  C
  H859     1.0000 0.50000  0.57400  0.35130  Biso   1.000  H
  C716     1.0000 0.50000  0.62349  0.33206  Biso   1.000  C
  H860     1.0000 0.50000  0.61720  0.30820  Biso   1.000  H
  O31      1.0000 0.50000  0.44995  0.40712  Biso   1.000  O
  C717     1.0000 0.50000  0.40212  0.35767  Biso   1.000  C
  H861     1.0000 0.50000  0.42600  0.35130  Biso   1.000  H
  C718     1.0000 0.50000  0.37651  0.33206  Biso   1.000  C
  H862     1.0000 0.50000  0.38280  0.30820  Biso   1.000  H
  O32      1.0000 0.50000  0.55005  0.59288  Biso   1.000  O
  C719     1.0000 0.50000  0.59788  0.64233  Biso   1.000  C
  H863     1.0000 0.50000  0.57400  0.64870  Biso   1.000  H
  C720     1.0000 0.50000  0.62349  0.66794  Biso   1.000  C
  H864     1.0000 0.50000  0.61720  0.69180  Biso   1.000  H
  C721     1.0000 0.41996  0.41996  0.50000  Biso   1.000  C
  C722     1.0000 0.39260  0.39260  0.50000  Biso   1.000  C
  C723     1.0000 0.34159  0.34159  0.50000  Biso   1.000  C
  C724     1.0000 0.31411  0.31411  0.50000  Biso   1.000  C
  C725     1.0000 0.29170  0.29170  0.50000  Biso   1.000  C
  C726     1.0000 0.58004  0.58004  0.50000  Biso   1.000  C
  C727     1.0000 0.60740  0.60740  0.50000  Biso   1.000  C
  C728     1.0000 0.65841  0.65841  0.50000  Biso   1.000  C
  C729     1.0000 0.68589  0.68589  0.50000  Biso   1.000  C
  C730     1.0000 0.70830  0.70830  0.50000  Biso   1.000  C
  C731     1.0000 0.58004  0.41996  0.50000  Biso   1.000  C
  C732     1.0000 0.60740  0.39260  0.50000  Biso   1.000  C
  C733     1.0000 0.65841  0.34159  0.50000  Biso   1.000  C
  C734     1.0000 0.68589  0.31411  0.50000  Biso   1.000  C
  C735     1.0000 0.70830  0.29170  0.50000  Biso   1.000  C
  C736     1.0000 0.41996  0.58004  0.50000  Biso   1.000  C
  C737     1.0000 0.39260  0.60740  0.50000  Biso   1.000  C
  C738     1.0000 0.34159  0.65841  0.50000  Biso   1.000  C
  C739     1.0000 0.31411  0.68589  0.50000  Biso   1.000  C
  C740     1.0000 0.29170  0.70830  0.50000  Biso   1.000  C
  C741     1.0000 0.50000  0.41996  0.41996  Biso   1.000  C
  C742     1.0000 0.50000  0.39260  0.39260  Biso   1.000  C
  C743     1.0000 0.50000  0.34159  0.34159  Biso   1.000  C
  C744     1.0000 0.50000  0.31411  0.31411  Biso   1.000  C
  C745     1.0000 0.50000  0.29170  0.29170  Biso   1.000  C
  C746     1.0000 0.50000  0.58004  0.58004  Biso   1.000  C
  C747     1.0000 0.50000  0.60740  0.60740  Biso   1.000  C
  C748     1.0000 0.50000  0.65841  0.65841  Biso   1.000  C
  C749     1.0000 0.50000  0.68589  0.68589  Biso   1.000  C
  C750     1.0000 0.50000  0.70830  0.70830  Biso   1.000  C
  C751     1.0000 0.50000  0.58004  0.41996  Biso   1.000  C
  C752     1.0000 0.50000  0.60740  0.39260  Biso   1.000  C
  C753     1.0000 0.50000  0.65841  0.34159  Biso   1.000  C
  C754     1.0000 0.50000  0.68589  0.31411  Biso   1.000  C
  C755     1.0000 0.50000  0.70830  0.29170  Biso   1.000  C
  C756     1.0000 0.50000  0.41996  0.58004  Biso   1.000  C
  C757     1.0000 0.50000  0.39260  0.60740  Biso   1.000  C
  C758     1.0000 0.50000  0.34159  0.65841  Biso   1.000  C
  C759     1.0000 0.50000  0.31411  0.68589  Biso   1.000  C
  C760     1.0000 0.50000  0.29170  0.70830  Biso   1.000  C
  C761     1.0000 0.41996  0.50000  0.41996  Biso   1.000  C
  C762     1.0000 0.39260  0.50000  0.39260  Biso   1.000  C
  C763     1.0000 0.34159  0.50000  0.34159  Biso   1.000  C
  C764     1.0000 0.31411  0.50000  0.31411  Biso   1.000  C
  C765     1.0000 0.29170  0.50000  0.29170  Biso   1.000  C
  C766     1.0000 0.58004  0.50000  0.58004  Biso   1.000  C
  C767     1.0000 0.60740  0.50000  0.60740  Biso   1.000  C
  C768     1.0000 0.65841  0.50000  0.65841  Biso   1.000  C
  C769     1.0000 0.68589  0.50000  0.68589  Biso   1.000  C
  C770     1.0000 0.70830  0.50000  0.70830  Biso   1.000  C
  C771     1.0000 0.41996  0.50000  0.58004  Biso   1.000  C
  C772     1.0000 0.39260  0.50000  0.60740  Biso   1.000  C
  C773     1.0000 0.34159  0.50000  0.65841  Biso   1.000  C
  C774     1.0000 0.31411  0.50000  0.68589  Biso   1.000  C
  C775     1.0000 0.29170  0.50000  0.70830  Biso   1.000  C
  C776     1.0000 0.58004  0.50000  0.41996  Biso   1.000  C
  C777     1.0000 0.60740  0.50000  0.39260  Biso   1.000  C
  C778     1.0000 0.65841  0.50000  0.34159  Biso   1.000  C
  C779     1.0000 0.68589  0.50000  0.31411  Biso   1.000  C
  C780     1.0000 0.70830  0.50000  0.29170  Biso   1.000  C
  C781     1.0000 0.26469  0.26469  0.50709  Biso   1.000  C
  C782     1.0000 0.21438  0.21438  0.52040  Biso   1.000  C
  C783     1.0000 0.18756  0.18756  0.52760  Biso   1.000  C
  C784     1.0000 0.16608  0.16608  0.53560  Biso   1.000  C
  C785     1.0000 0.13871  0.13871  0.54040  Biso   1.000  C
  C786     1.0000 0.08796  0.08796  0.54930  Biso   1.000  C
  C787     1.0000 0.06402  0.06402  0.55340  Biso   1.000  C
  C788     1.0000 0.73531  0.73531  0.50709  Biso   1.000  C
  C789     1.0000 0.78562  0.78562  0.52040  Biso   1.000  C
  C790     1.0000 0.81244  0.81244  0.52760  Biso   1.000  C
  C791     1.0000 0.83392  0.83392  0.53560  Biso   1.000  C
  C792     1.0000 0.86129  0.86129  0.54040  Biso   1.000  C
  C793     1.0000 0.91204  0.91204  0.54930  Biso   1.000  C
  C794     1.0000 0.93598  0.93598  0.55340  Biso   1.000  C
  C795     1.0000 0.73531  0.26469  0.49291  Biso   1.000  C
  C796     1.0000 0.78562  0.21438  0.47960  Biso   1.000  C
  C797     1.0000 0.81244  0.18756  0.47240  Biso   1.000  C
  C798     1.0000 0.83392  0.16608  0.46440  Biso   1.000  C
  C799     1.0000 0.86129  0.13871  0.45960  Biso   1.000  C
  C800     1.0000 0.91204  0.08796  0.45070  Biso   1.000  C
  C801     1.0000 0.93598  0.06402  0.44660  Biso   1.000  C
  C802     1.0000 0.26469  0.73531  0.49291  Biso   1.000  C
  C803     1.0000 0.21438  0.78562  0.47960  Biso   1.000  C
  C804     1.0000 0.18756  0.81244  0.47240  Biso   1.000  C
  C805     1.0000 0.16608  0.83392  0.46440  Biso   1.000  C
  C806     1.0000 0.13871  0.86129  0.45960  Biso   1.000  C
  C807     1.0000 0.08796  0.91204  0.45070  Biso   1.000  C
  C808     1.0000 0.06402  0.93598  0.44660  Biso   1.000  C
  C809     1.0000 0.50709  0.26469  0.26469  Biso   1.000  C
  C810     1.0000 0.52040  0.21438  0.21438  Biso   1.000  C
  C811     1.0000 0.52760  0.18756  0.18756  Biso   1.000  C
  C812     1.0000 0.53560  0.16608  0.16608  Biso   1.000  C
  C813     1.0000 0.54040  0.13871  0.13871  Biso   1.000  C
  C814     1.0000 0.54930  0.08796  0.08796  Biso   1.000  C
  C815     1.0000 0.55340  0.06402  0.06402  Biso   1.000  C
  C816     1.0000 0.50709  0.73531  0.73531  Biso   1.000  C
  C817     1.0000 0.52040  0.78562  0.78562  Biso   1.000  C
  C818     1.0000 0.52760  0.81244  0.81244  Biso   1.000  C
  C819     1.0000 0.53560  0.83392  0.83392  Biso   1.000  C
  C820     1.0000 0.54040  0.86129  0.86129  Biso   1.000  C
  C821     1.0000 0.54930  0.91204  0.91204  Biso   1.000  C
  C822     1.0000 0.55340  0.93598  0.93598  Biso   1.000  C
  C823     1.0000 0.49291  0.73531  0.26469  Biso   1.000  C
  C824     1.0000 0.47960  0.78562  0.21438  Biso   1.000  C
  C825     1.0000 0.47240  0.81244  0.18756  Biso   1.000  C
  C826     1.0000 0.46440  0.83392  0.16608  Biso   1.000  C
  C827     1.0000 0.45960  0.86129  0.13871  Biso   1.000  C
  C828     1.0000 0.45070  0.91204  0.08796  Biso   1.000  C
  C829     1.0000 0.44660  0.93598  0.06402  Biso   1.000  C
  C830     1.0000 0.49291  0.26469  0.73531  Biso   1.000  C
  C831     1.0000 0.47960  0.21438  0.78562  Biso   1.000  C
  C832     1.0000 0.47240  0.18756  0.81244  Biso   1.000  C
  C833     1.0000 0.46440  0.16608  0.83392  Biso   1.000  C
  C834     1.0000 0.45960  0.13871  0.86129  Biso   1.000  C
  C835     1.0000 0.45070  0.08796  0.91204  Biso   1.000  C
  C836     1.0000 0.44660  0.06402  0.93598  Biso   1.000  C
  C837     1.0000 0.26469  0.50709  0.26469  Biso   1.000  C
  C838     1.0000 0.21438  0.52040  0.21438  Biso   1.000  C
  C839     1.0000 0.18756  0.52760  0.18756  Biso   1.000  C
  C840     1.0000 0.16608  0.53560  0.16608  Biso   1.000  C
  C841     1.0000 0.13871  0.54040  0.13871  Biso   1.000  C
  C842     1.0000 0.08796  0.54930  0.08796  Biso   1.000  C
  C843     1.0000 0.06402  0.55340  0.06402  Biso   1.000  C
  C844     1.0000 0.73531  0.50709  0.73531  Biso   1.000  C
  C845     1.0000 0.78562  0.52040  0.78562  Biso   1.000  C
  C846     1.0000 0.81244  0.52760  0.81244  Biso   1.000  C
  C847     1.0000 0.83392  0.53560  0.83392  Biso   1.000  C
  C848     1.0000 0.86129  0.54040  0.86129  Biso   1.000  C
  C849     1.0000 0.91204  0.54930  0.91204  Biso   1.000  C
  C850     1.0000 0.93598  0.55340  0.93598  Biso   1.000  C
  C851     1.0000 0.26469  0.49291  0.73531  Biso   1.000  C
  C852     1.0000 0.21438  0.47960  0.78562  Biso   1.000  C
  C853     1.0000 0.18756  0.47240  0.81244  Biso   1.000  C
  C854     1.0000 0.16608  0.46440  0.83392  Biso   1.000  C
  C855     1.0000 0.13871  0.45960  0.86129  Biso   1.000  C
  C856     1.0000 0.08796  0.45070  0.91204  Biso   1.000  C
  C857     1.0000 0.06402  0.44660  0.93598  Biso   1.000  C
  C858     1.0000 0.73531  0.49291  0.26469  Biso   1.000  C
  C859     1.0000 0.78562  0.47960  0.21438  Biso   1.000  C
  C860     1.0000 0.81244  0.47240  0.18756  Biso   1.000  C
  C861     1.0000 0.83392  0.46440  0.16608  Biso   1.000  C
  C862     1.0000 0.86129  0.45960  0.13871  Biso   1.000  C
  C863     1.0000 0.91204  0.45070  0.08796  Biso   1.000  C
  C864     1.0000 0.93598  0.44660  0.06402  Biso   1.000  C
  C865     1.0000 0.26469  0.26469  0.49291  Biso   1.000  C
  C866     1.0000 0.21438  0.21438  0.47960  Biso   1.000  C
  C867     1.0000 0.18756  0.18756  0.47240  Biso   1.000  C
  C868     1.0000 0.16608  0.16608  0.46440  Biso   1.000  C
  C869     1.0000 0.13871  0.13871  0.45960  Biso   1.000  C
  C870     1.0000 0.08796  0.08796  0.45070  Biso   1.000  C
  C871     1.0000 0.06402  0.06402  0.44660  Biso   1.000  C
  C872     1.0000 0.73531  0.73531  0.49291  Biso   1.000  C
  C873     1.0000 0.78562  0.78562  0.47960  Biso   1.000  C
  C874     1.0000 0.81244  0.81244  0.47240  Biso   1.000  C
  C875     1.0000 0.83392  0.83392  0.46440  Biso   1.000  C
  C876     1.0000 0.86129  0.86129  0.45960  Biso   1.000  C
  C877     1.0000 0.91204  0.91204  0.45070  Biso   1.000  C
  C878     1.0000 0.93598  0.93598  0.44660  Biso   1.000  C
  C879     1.0000 0.26469  0.73531  0.50709  Biso   1.000  C
  C880     1.0000 0.21438  0.78562  0.52040  Biso   1.000  C
  C881     1.0000 0.18756  0.81244  0.52760  Biso   1.000  C
  C882     1.0000 0.16608  0.83392  0.53560  Biso   1.000  C
  C883     1.0000 0.13871  0.86129  0.54040  Biso   1.000  C
  C884     1.0000 0.08796  0.91204  0.54930  Biso   1.000  C
  C885     1.0000 0.06402  0.93598  0.55340  Biso   1.000  C
  C886     1.0000 0.73531  0.26469  0.50709  Biso   1.000  C
  C887     1.0000 0.78562  0.21438  0.52040  Biso   1.000  C
  C888     1.0000 0.81244  0.18756  0.52760  Biso   1.000  C
  C889     1.0000 0.83392  0.16608  0.53560  Biso   1.000  C
  C890     1.0000 0.86129  0.13871  0.54040  Biso   1.000  C
  C891     1.0000 0.91204  0.08796  0.54930  Biso   1.000  C
  C892     1.0000 0.93598  0.06402  0.55340  Biso   1.000  C
  C893     1.0000 0.26469  0.50709  0.73531  Biso   1.000  C
  C894     1.0000 0.21438  0.52040  0.78562  Biso   1.000  C
  C895     1.0000 0.18756  0.52760  0.81244  Biso   1.000  C
  C896     1.0000 0.16608  0.53560  0.83392  Biso   1.000  C
  C897     1.0000 0.13871  0.54040  0.86129  Biso   1.000  C
  C898     1.0000 0.08796  0.54930  0.91204  Biso   1.000  C
  C899     1.0000 0.06402  0.55340  0.93598  Biso   1.000  C
  C900     1.0000 0.73531  0.50709  0.26469  Biso   1.000  C
  C901     1.0000 0.78562  0.52040  0.21438  Biso   1.000  C
  C902     1.0000 0.81244  0.52760  0.18756  Biso   1.000  C
  C903     1.0000 0.83392  0.53560  0.16608  Biso   1.000  C
  C904     1.0000 0.86129  0.54040  0.13871  Biso   1.000  C
  C905     1.0000 0.91204  0.54930  0.08796  Biso   1.000  C
  C906     1.0000 0.93598  0.55340  0.06402  Biso   1.000  C
  C907     1.0000 0.73531  0.49291  0.73531  Biso   1.000  C
  C908     1.0000 0.78562  0.47960  0.78562  Biso   1.000  C
  C909     1.0000 0.81244  0.47240  0.81244  Biso   1.000  C
  C910     1.0000 0.83392  0.46440  0.83392  Biso   1.000  C
  C911     1.0000 0.86129  0.45960  0.86129  Biso   1.000  C
  C912     1.0000 0.91204  0.45070  0.91204  Biso   1.000  C
  C913     1.0000 0.93598  0.44660  0.93598  Biso   1.000  C
  C914     1.0000 0.26469  0.49291  0.26469  Biso   1.000  C
  C915     1.0000 0.21438  0.47960  0.21438  Biso   1.000  C
  C916     1.0000 0.18756  0.47240  0.18756  Biso   1.000  C
  C917     1.0000 0.16608  0.46440  0.16608  Biso   1.000  C
  C918     1.0000 0.13871  0.45960  0.13871  Biso   1.000  C
  C919     1.0000 0.08796  0.45070  0.08796  Biso   1.000  C
  C920     1.0000 0.06402  0.44660  0.06402  Biso   1.000  C
  C921     1.0000 0.50709  0.26469  0.73531  Biso   1.000  C
  C922     1.0000 0.52040  0.21438  0.78562  Biso   1.000  C
  C923     1.0000 0.52760  0.18756  0.81244  Biso   1.000  C
  C924     1.0000 0.53560  0.16608  0.83392  Biso   1.000  C
  C925     1.0000 0.54040  0.13871  0.86129  Biso   1.000  C
  C926     1.0000 0.54930  0.08796  0.91204  Biso   1.000  C
  C927     1.0000 0.55340  0.06402  0.93598  Biso   1.000  C
  C928     1.0000 0.50709  0.73531  0.26469  Biso   1.000  C
  C929     1.0000 0.52040  0.78562  0.21438  Biso   1.000  C
  C930     1.0000 0.52760  0.81244  0.18756  Biso   1.000  C
  C931     1.0000 0.53560  0.83392  0.16608  Biso   1.000  C
  C932     1.0000 0.54040  0.86129  0.13871  Biso   1.000  C
  C933     1.0000 0.54930  0.91204  0.08796  Biso   1.000  C
  C934     1.0000 0.55340  0.93598  0.06402  Biso   1.000  C
  C935     1.0000 0.49291  0.26469  0.26469  Biso   1.000  C
  C936     1.0000 0.47960  0.21438  0.21438  Biso   1.000  C
  C937     1.0000 0.47240  0.18756  0.18756  Biso   1.000  C
  C938     1.0000 0.46440  0.16608  0.16608  Biso   1.000  C
  C939     1.0000 0.45960  0.13871  0.13871  Biso   1.000  C
  C940     1.0000 0.45070  0.08796  0.08796  Biso   1.000  C
  C941     1.0000 0.44660  0.06402  0.06402  Biso   1.000  C
  C942     1.0000 0.49291  0.73531  0.73531  Biso   1.000  C
  C943     1.0000 0.47960  0.78562  0.78562  Biso   1.000  C
  C944     1.0000 0.47240  0.81244  0.81244  Biso   1.000  C
  C945     1.0000 0.46440  0.83392  0.83392  Biso   1.000  C
  C946     1.0000 0.45960  0.86129  0.86129  Biso   1.000  C
  C947     1.0000 0.45070  0.91204  0.91204  Biso   1.000  C
  C948     1.0000 0.44660  0.93598  0.93598  Biso   1.000  C
  N1       1.0000 0.05737  0.00000  0.54100  Biso   1.000  N
  H865     1.0000 0.03600  0.00000  0.53270  Biso   1.000  H
  N2       1.0000 0.94263  0.00000  0.54100  Biso   1.000  N
  H866     1.0000 0.96400  0.00000  0.53270  Biso   1.000  H
  N3       1.0000 0.94263  0.00000  0.45900  Biso   1.000  N
  H867     1.0000 0.96400  0.00000  0.46730  Biso   1.000  H
  N4       1.0000 0.05737  0.00000  0.45900  Biso   1.000  N
  H868     1.0000 0.03600  0.00000  0.46730  Biso   1.000  H
  N5       1.0000 0.54100  0.05737  0.00000  Biso   1.000  N
  H869     1.0000 0.53270  0.03600  0.00000  Biso   1.000  H
  N6       1.0000 0.54100  0.94263  0.00000  Biso   1.000  N
  H870     1.0000 0.53270  0.96400  0.00000  Biso   1.000  H
  N7       1.0000 0.45900  0.94263  0.00000  Biso   1.000  N
  H871     1.0000 0.46730  0.96400  0.00000  Biso   1.000  H
  N8       1.0000 0.45900  0.05737  0.00000  Biso   1.000  N
  H872     1.0000 0.46730  0.03600  0.00000  Biso   1.000  H
  N9       1.0000 0.00000  0.54100  0.05737  Biso   1.000  N
  H873     1.0000 0.00000  0.53270  0.03600  Biso   1.000  H
  N10      1.0000 0.00000  0.54100  0.94263  Biso   1.000  N
  H874     1.0000 0.00000  0.53270  0.96400  Biso   1.000  H
  N11      1.0000 0.00000  0.45900  0.94263  Biso   1.000  N
  H875     1.0000 0.00000  0.46730  0.96400  Biso   1.000  H
  N12      1.0000 0.00000  0.45900  0.05737  Biso   1.000  N
  H876     1.0000 0.00000  0.46730  0.03600  Biso   1.000  H
  N13      1.0000 0.00000  0.05737  0.45900  Biso   1.000  N
  H877     1.0000 0.00000  0.03600  0.46730  Biso   1.000  H
  N14      1.0000 0.00000  0.94263  0.45900  Biso   1.000  N
  H878     1.0000 0.00000  0.96400  0.46730  Biso   1.000  H
  N15      1.0000 0.00000  0.94263  0.54100  Biso   1.000  N
  H879     1.0000 0.00000  0.96400  0.53270  Biso   1.000  H
  N16      1.0000 0.00000  0.05737  0.54100  Biso   1.000  N
  H880     1.0000 0.00000  0.03600  0.53270  Biso   1.000  H
  N17      1.0000 0.05737  0.54100  0.00000  Biso   1.000  N
  H881     1.0000 0.03600  0.53270  0.00000  Biso   1.000  H
  N18      1.0000 0.94263  0.54100  0.00000  Biso   1.000  N
  H882     1.0000 0.96400  0.53270  0.00000  Biso   1.000  H
  N19      1.0000 0.94263  0.45900  0.00000  Biso   1.000  N
  H883     1.0000 0.96400  0.46730  0.00000  Biso   1.000  H
  N20      1.0000 0.05737  0.45900  0.00000  Biso   1.000  N
  H884     1.0000 0.03600  0.46730  0.00000  Biso   1.000  H
  N21      1.0000 0.54100  0.00000  0.94263  Biso   1.000  N
  H885     1.0000 0.53270  0.00000  0.96400  Biso   1.000  H
  N22      1.0000 0.54100  0.00000  0.05737  Biso   1.000  N
  H886     1.0000 0.53270  0.00000  0.03600  Biso   1.000  H
  N23      1.0000 0.45900  0.00000  0.05737  Biso   1.000  N
  H887     1.0000 0.46730  0.00000  0.03600  Biso   1.000  H
  N24      1.0000 0.45900  0.00000  0.94263  Biso   1.000  N
  H888     1.0000 0.46730  0.00000  0.96400  Biso   1.000  H
