data_ja5b00450_si_003_clean
_audit_creation_date              2015-08-19
_audit_creation_method            'Materials Studio'
_symmetry_space_group_name_H-M    'P1'
_symmetry_Int_Tables_number       1
_symmetry_cell_setting            triclinic
loop_
_symmetry_equiv_pos_as_xyz
  x,y,z
_cell_length_a                    25.9989
_cell_length_b                    25.9989
_cell_length_c                    42.6560
_cell_angle_alpha                 90.0000
_cell_angle_beta                  90.0000
_cell_angle_gamma                 120.0000
loop_
_atom_site_label
_atom_site_type_symbol
_atom_site_fract_x
_atom_site_fract_y
_atom_site_fract_z
_atom_site_U_iso_or_equiv
_atom_site_adp_type
_atom_site_occupancy
Y1     Y     0.09300  -0.00000   0.79200   0.01267  Uiso   1.00
Y2     Y     0.90700  -0.00000   0.29200   0.01267  Uiso   1.00
Y3     Y     0.15449  -0.00000   0.75000   0.01267  Uiso   1.00
Y4     Y     0.91545   0.91545   0.29479   0.01267  Uiso   1.00
Y5     Y     0.00000   0.84670   0.75000   0.01267  Uiso   1.00
Y6     Y     0.41114   0.00000   0.53318   0.01267  Uiso   1.00
Y7     Y     0.08455   0.08455   0.70521   0.01267  Uiso   1.00
Y8     Y     0.43904   0.87808   0.50000   0.01267  Uiso   1.00
Y9     Y     0.00000   0.55487   0.94474   0.01267  Uiso   1.00
Y10    Y     0.00000   0.90700   0.20800   0.01267  Uiso   1.00
Y11    Y     0.55487   0.55487   0.44474   0.01267  Uiso   1.00
Y12    Y     0.84551   0.00000   0.25000   0.01267  Uiso   1.00
Y13    Y     0.00000   0.58886   0.03318   0.01267  Uiso   1.00
Y14    Y     0.44513   0.44513   0.55526   0.01267  Uiso   1.00
Y15    Y     0.41114   0.00000   0.96682   0.01267  Uiso   1.00
Y16    Y     0.41114   0.41114   0.46682   0.01267  Uiso   1.00
Y17    Y     0.00000   0.09300   0.79200   0.01267  Uiso   1.00
Y18    Y     0.58886  -0.00000   0.46682   0.01267  Uiso   1.00
Y19    Y     0.00000   0.08455   0.20521   0.01267  Uiso   1.00
Y20    Y     0.00000   0.44513   0.05526   0.01267  Uiso   1.00
Y21    Y     0.12192   0.56096   0.50000   0.01267  Uiso   1.00
Y22    Y     0.90700   0.90700   0.79200   0.01267  Uiso   1.00
Y23    Y     0.00000   0.44513   0.44474   0.01267  Uiso   1.00
Y24    Y     0.00000   0.41114   0.96682   0.01267  Uiso   1.00
Y25    Y     0.00000   0.08455   0.29479   0.01267  Uiso   1.00
Y26    Y     0.56096   0.43904   0.00000   0.01267  Uiso   1.00
Y27    Y     0.58886  -0.00000   0.03318   0.01267  Uiso   1.00
Y28    Y     0.41114   0.41114   0.03318   0.01267  Uiso   1.00
Y29    Y     0.55487   0.00000   0.94474   0.01267  Uiso   1.00
Y30    Y     0.00000   0.58886   0.46682   0.01267  Uiso   1.00
Y31    Y     0.00000   0.91545   0.70521   0.01267  Uiso   1.00
Y32    Y     0.55487   0.55487   0.05526   0.01267  Uiso   1.00
Y33    Y     0.84670   0.00000   0.75000   0.01267  Uiso   1.00
Y34    Y     0.43904   0.56096   0.50000   0.01267  Uiso   1.00
Y35    Y     0.44513   0.44513   0.94474   0.01267  Uiso   1.00
Y36    Y     0.84670   0.84670   0.25000   0.01267  Uiso   1.00
Y37    Y     0.00000   0.09300   0.70800   0.01267  Uiso   1.00
Y38    Y     0.00000   0.84551   0.25000   0.01267  Uiso   1.00
Y39    Y     0.00000   0.90700   0.29200   0.01267  Uiso   1.00
Y40    Y     0.91545   0.91545   0.20521   0.01267  Uiso   1.00
Y41    Y     0.90700   0.90700   0.70800   0.01267  Uiso   1.00
Y42    Y     0.90700  -0.00000   0.20800   0.01267  Uiso   1.00
Y43    Y     0.12192   0.56096   0.00000   0.01267  Uiso   1.00
Y44    Y     0.44513  -0.00000   0.44474   0.01267  Uiso   1.00
Y45    Y     0.87808   0.43904   0.50000   0.01267  Uiso   1.00
Y46    Y     0.91545   0.00000   0.70521   0.01267  Uiso   1.00
Y47    Y     0.55487   0.00000   0.55526   0.01267  Uiso   1.00
Y48    Y     0.87808   0.43904   0.00000   0.01267  Uiso   1.00
Y49    Y     0.84551   0.84551   0.75000   0.01267  Uiso   1.00
Y50    Y     0.56096   0.12192   0.50000   0.01267  Uiso   1.00
Y51    Y     0.00000   0.41114   0.53318   0.01267  Uiso   1.00
Y52    Y     0.00000   0.91545   0.79479   0.01267  Uiso   1.00
Y53    Y     0.58886   0.58886   0.53318   0.01267  Uiso   1.00
Y54    Y     0.00000   0.55487   0.55526   0.01267  Uiso   1.00
Y55    Y     0.58886   0.58886   0.96682   0.01267  Uiso   1.00
Y56    Y     0.43904   0.87808   0.00000   0.01267  Uiso   1.00
Y57    Y     0.91545   0.00000   0.79479   0.01267  Uiso   1.00
Y58    Y     0.09300   0.09300   0.29200   0.01267  Uiso   1.00
Y59    Y     0.08455  -0.00000   0.20521   0.01267  Uiso   1.00
Y60    Y     0.00000   0.15449   0.75000   0.01267  Uiso   1.00
Y61    Y     0.00000   0.15330   0.25000   0.01267  Uiso   1.00
Y62    Y     0.08455  -0.00000   0.29479   0.01267  Uiso   1.00
Y63    Y     0.09300   0.09300   0.20800   0.01267  Uiso   1.00
Y64    Y     0.15449   0.15449   0.25000   0.01267  Uiso   1.00
Y65    Y     0.15330  -0.00000   0.25000   0.01267  Uiso   1.00
Y66    Y     0.15330   0.15330   0.75000   0.01267  Uiso   1.00
Y67    Y     0.56096   0.43904   0.50000   0.01267  Uiso   1.00
Y68    Y     0.43904   0.56096   0.00000   0.01267  Uiso   1.00
Y69    Y     0.09300  -0.00000   0.70800   0.01267  Uiso   1.00
Y70    Y     0.08455   0.08455   0.79479   0.01267  Uiso   1.00
Y71    Y     0.56096   0.12192   0.00000   0.01267  Uiso   1.00
Y72    Y     0.44513  -0.00000   0.05526   0.01267  Uiso   1.00
H1     H     0.91880   0.69430   0.18310   0.01267  Uiso   1.00
H2     H     0.74230   0.62080   0.85540   0.01267  Uiso   1.00
H3     H     0.30570   0.08120   0.68310   0.01267  Uiso   1.00
H4     H     0.63830   0.39120   0.54030   0.01267  Uiso   1.00
H5     H     0.38940   0.71390   0.50930   0.01267  Uiso   1.00
H6     H     0.35430   0.61860   0.45160   0.01267  Uiso   1.00
H7     H     0.68200   0.33070   0.43180   0.01267  Uiso   1.00
H8     H     0.84680   0.84680   0.00490   0.01267  Uiso   1.00
H9     H     0.61450   0.29160   0.44530   0.01267  Uiso   1.00
H10    H     0.61060   0.28610   0.49070   0.01267  Uiso   1.00
H11    H     0.87020   0.29130   0.39530   0.01267  Uiso   1.00
H12    H     0.24020   0.24020   0.49100   0.01267  Uiso   1.00
H13    H     0.32410   0.65700   0.47600   0.01267  Uiso   1.00
H14    H     0.00000   0.40820   0.72690   0.01267  Uiso   1.00
H15    H     0.76700   0.08860   0.88210   0.01267  Uiso   1.00
H16    H     0.17350   0.23450   0.35580   0.01267  Uiso   1.00
H17    H     0.79230   0.69140   0.60590   0.01267  Uiso   1.00
H18    H     0.25530   0.39320   0.65500   0.01267  Uiso   1.00
H19    H     0.67550   0.28610   0.50930   0.01267  Uiso   1.00
H20    H     0.72940   0.12710   0.09050   0.01267  Uiso   1.00
H21    H     0.73570   0.35430   0.54840   0.01267  Uiso   1.00
H22    H     0.12150   0.37920   0.85540   0.01267  Uiso   1.00
H23    H     0.25030   0.51500   0.46290   0.01267  Uiso   1.00
H24    H     0.67710   0.29160   0.94530   0.01267  Uiso   1.00
H25    H     0.49410   0.49410   0.21050   0.01267  Uiso   1.00
H26    H     0.94430   0.75210   0.84410   0.01267  Uiso   1.00
H27    H     0.33070   0.68200   0.06820   0.01267  Uiso   1.00
H28    H     0.94430   0.19220   0.34410   0.01267  Uiso   1.00
H29    H     0.26430   0.61860   0.95160   0.01267  Uiso   1.00
H30    H     0.27060   0.87290   0.59050   0.01267  Uiso   1.00
H31    H     0.42110   0.29130   0.60470   0.01267  Uiso   1.00
H32    H     0.75290   0.36170   0.54030   0.01267  Uiso   1.00
H33    H     0.35430   0.73570   0.54840   0.01267  Uiso   1.00
H34    H     0.64870   0.33070   0.56820   0.01267  Uiso   1.00
H35    H     0.19260   0.00000   0.09680   0.01267  Uiso   1.00
H36    H     0.63830   0.24710   0.04030   0.01267  Uiso   1.00
H37    H     0.67840   0.91140   0.61790   0.01267  Uiso   1.00
H38    H     0.39120   0.63830   0.54030   0.01267  Uiso   1.00
H39    H     0.12710   0.72940   0.09050   0.01267  Uiso   1.00
H40    H     0.62020   0.35110   0.49660   0.01267  Uiso   1.00
H41    H     0.36170   0.60880   0.04030   0.01267  Uiso   1.00
H42    H     0.49410   0.00000   0.78950   0.01267  Uiso   1.00
H43    H     0.34300   0.67590   0.52400   0.01267  Uiso   1.00
H44    H     0.08860   0.76700   0.61790   0.01267  Uiso   1.00
H45    H     0.89620   0.68110   0.69340   0.01267  Uiso   1.00
H46    H     0.24710   0.63830   0.04030   0.01267  Uiso   1.00
H47    H     0.50590   0.50590   0.78950   0.01267  Uiso   1.00
H48    H     0.73090   0.35110   0.50340   0.01267  Uiso   1.00
H49    H     0.82650   0.76550   0.85580   0.01267  Uiso   1.00
H50    H     0.26430   0.61860   0.54840   0.01267  Uiso   1.00
H51    H     0.87290   0.60230   0.40950   0.01267  Uiso   1.00
H52    H     0.67550   0.38940   0.00930   0.01267  Uiso   1.00
H53    H     0.10090   0.30860   0.60590   0.01267  Uiso   1.00
H54    H     0.94430   0.75210   0.65590   0.01267  Uiso   1.00
H55    H     0.12935   0.12935   0.94220   0.01267  Uiso   1.00
H56    H     0.21510   0.89620   0.30660   0.01267  Uiso   1.00
H57    H     0.15320   0.00000   0.00490   0.01267  Uiso   1.00
H58    H     0.12935   0.00000   0.44220   0.01267  Uiso   1.00
H59    H     0.86210   0.25530   0.34500   0.01267  Uiso   1.00
H60    H     0.08120   0.30570   0.81690   0.01267  Uiso   1.00
H61    H     0.05570   0.24790   0.34410   0.01267  Uiso   1.00
H62    H     0.48615   0.00000   0.34300   0.01267  Uiso   1.00
H63    H     0.26910   0.62020   0.99660   0.01267  Uiso   1.00
H64    H     0.13790   0.39320   0.34500   0.01267  Uiso   1.00
H65    H     0.00000   0.48615   0.15700   0.01267  Uiso   1.00
H66    H     0.39320   0.25530   0.65500   0.01267  Uiso   1.00
H67    H     0.78490   0.68110   0.30660   0.01267  Uiso   1.00
H68    H     0.79230   0.69140   0.89410   0.01267  Uiso   1.00
H69    H     0.67590   0.34300   0.97600   0.01267  Uiso   1.00
H70    H     0.30570   0.22450   0.18310   0.01267  Uiso   1.00
H71    H     0.72940   0.60230   0.90950   0.01267  Uiso   1.00
H72    H     0.05570   0.80780   0.65590   0.01267  Uiso   1.00
H73    H     0.12710   0.39770   0.90950   0.01267  Uiso   1.00
H74    H     0.39320   0.13790   0.34500   0.01267  Uiso   1.00
H75    H     0.00000   0.19260   0.09680   0.01267  Uiso   1.00
H76    H     0.62080   0.87850   0.35540   0.01267  Uiso   1.00
H77    H     0.34200   0.34200   0.31030   0.01267  Uiso   1.00
H78    H     0.76550   0.93900   0.35580   0.01267  Uiso   1.00
H79    H     0.75980   0.75980   0.99100   0.01267  Uiso   1.00
H80    H     0.23300   0.32160   0.88210   0.01267  Uiso   1.00
H81    H     0.00000   0.87065   0.94220   0.01267  Uiso   1.00
H82    H     0.15320   0.15320   0.50490   0.01267  Uiso   1.00
H83    H     0.60230   0.72940   0.90950   0.01267  Uiso   1.00
H84    H     0.67710   0.38550   0.44530   0.01267  Uiso   1.00
H85    H     0.17350   0.93900   0.85580   0.01267  Uiso   1.00
H86    H     0.19220   0.94430   0.15590   0.01267  Uiso   1.00
H87    H     0.25030   0.73530   0.53710   0.01267  Uiso   1.00
H88    H     0.00000   0.34200   0.81030   0.01267  Uiso   1.00
H89    H     0.21510   0.31890   0.80660   0.01267  Uiso   1.00
H90    H     0.67590   0.33290   0.47600   0.01267  Uiso   1.00
H91    H     0.64870   0.31800   0.06820   0.01267  Uiso   1.00
H92    H     0.61860   0.35430   0.45160   0.01267  Uiso   1.00
H93    H     0.38140   0.64570   0.54840   0.01267  Uiso   1.00
H94    H     0.24790   0.05570   0.34410   0.01267  Uiso   1.00
H95    H     0.08120   0.30570   0.68310   0.01267  Uiso   1.00
H96    H     0.60880   0.36170   0.04030   0.01267  Uiso   1.00
H97    H     0.23300   0.91140   0.38210   0.01267  Uiso   1.00
H98    H     0.39120   0.75290   0.45970   0.01267  Uiso   1.00
H99    H     0.29130   0.42110   0.60470   0.01267  Uiso   1.00
H100   H     0.59180   0.00000   0.22690   0.01267  Uiso   1.00
H101   H     0.75210   0.80780   0.34410   0.01267  Uiso   1.00
H102   H     0.75210   0.94430   0.84410   0.01267  Uiso   1.00
H103   H     0.62080   0.74230   0.64460   0.01267  Uiso   1.00
H104   H     0.34300   0.67590   0.97600   0.01267  Uiso   1.00
H105   H     0.32290   0.70840   0.05470   0.01267  Uiso   1.00
H106   H     0.51385  -0.00000   0.84300   0.01267  Uiso   1.00
H107   H     0.59180   0.59180   0.77310   0.01267  Uiso   1.00
H108   H     0.00000   0.30890   0.41510   0.01267  Uiso   1.00
H109   H     0.51385   0.51385   0.34300   0.01267  Uiso   1.00
H110   H     0.35110   0.73090   0.99660   0.01267  Uiso   1.00
H111   H     0.21510   0.31890   0.69340   0.01267  Uiso   1.00
H112   H     0.13790   0.74470   0.84500   0.01267  Uiso   1.00
H113   H     0.69140   0.89910   0.10590   0.01267  Uiso   1.00
H114   H     0.32290   0.61450   0.55470   0.01267  Uiso   1.00
H115   H     0.91140   0.23300   0.38210   0.01267  Uiso   1.00
H116   H     0.00000   0.24020   0.50900   0.01267  Uiso   1.00
H117   H     0.89910   0.69140   0.10590   0.01267  Uiso   1.00
H118   H     0.50590   0.50590   0.71050   0.01267  Uiso   1.00
H119   H     0.40820  -0.00000   0.72690   0.01267  Uiso   1.00
H120   H     0.73570   0.35430   0.95160   0.01267  Uiso   1.00
H121   H     0.29160   0.67710   0.94530   0.01267  Uiso   1.00
H122   H     0.64890   0.26910   0.00340   0.01267  Uiso   1.00
H123   H     0.30860   0.20770   0.39410   0.01267  Uiso   1.00
H124   H     0.39120   0.63830   0.95970   0.01267  Uiso   1.00
H125   H     0.49410   0.00000   0.71050   0.01267  Uiso   1.00
H126   H     0.80780   0.75210   0.15590   0.01267  Uiso   1.00
H127   H     0.05570   0.80780   0.84410   0.01267  Uiso   1.00
H128   H     0.60230   0.72940   0.59050   0.01267  Uiso   1.00
H129   H     0.38940   0.67550   0.49070   0.01267  Uiso   1.00
H130   H     0.87065   0.87065   0.05780   0.01267  Uiso   1.00
H131   H     0.00000   0.84680   0.99510   0.01267  Uiso   1.00
H132   H     0.20770   0.30860   0.10590   0.01267  Uiso   1.00
H133   H     0.80780   0.05570   0.84410   0.01267  Uiso   1.00
H134   H     0.00000   0.15320   0.00490   0.01267  Uiso   1.00
H135   H     0.35130   0.66930   0.43180   0.01267  Uiso   1.00
H136   H     0.23450   0.06100   0.85580   0.01267  Uiso   1.00
H137   H     0.29160   0.61450   0.05470   0.01267  Uiso   1.00
H138   H     0.80740   0.80740   0.40320   0.01267  Uiso   1.00
H139   H     0.80780   0.05570   0.65590   0.01267  Uiso   1.00
H140   H     0.26910   0.64890   0.49660   0.01267  Uiso   1.00
H141   H     0.19220   0.24790   0.65590   0.01267  Uiso   1.00
H142   H     0.00000   0.40820   0.77310   0.01267  Uiso   1.00
H143   H     0.00000   0.12935   0.44220   0.01267  Uiso   1.00
H144   H     0.38550   0.67710   0.05470   0.01267  Uiso   1.00
H145   H     0.69110   0.69110   0.08490   0.01267  Uiso   1.00
H146   H     0.68110   0.89620   0.80660   0.01267  Uiso   1.00
H147   H     0.70870   0.57890   0.10470   0.01267  Uiso   1.00
H148   H     0.71390   0.32450   0.49070   0.01267  Uiso   1.00
H149   H     0.39770   0.27060   0.40950   0.01267  Uiso   1.00
H150   H     0.23450   0.17350   0.35580   0.01267  Uiso   1.00
H151   H     0.30570   0.08120   0.81690   0.01267  Uiso   1.00
H152   H     0.75290   0.36170   0.95970   0.01267  Uiso   1.00
H153   H     0.75290   0.39120   0.45970   0.01267  Uiso   1.00
H154   H     0.30890   0.00000   0.41510   0.01267  Uiso   1.00
H155   H     0.40820  -0.00000   0.77310   0.01267  Uiso   1.00
H156   H     0.68200   0.35130   0.93180   0.01267  Uiso   1.00
H157   H     0.64570   0.38140   0.54840   0.01267  Uiso   1.00
H158   H     0.48615   0.48615   0.84300   0.01267  Uiso   1.00
H159   H     0.68110   0.78490   0.19340   0.01267  Uiso   1.00
H160   H     0.10090   0.79230   0.39410   0.01267  Uiso   1.00
H161   H     0.08120   0.77550   0.18310   0.01267  Uiso   1.00
H162   H     0.26470   0.51500   0.96290   0.01267  Uiso   1.00
H163   H     0.27060   0.39770   0.09050   0.01267  Uiso   1.00
H164   H     0.25770   0.37920   0.35540   0.01267  Uiso   1.00
H165   H     0.66930   0.35130   0.43180   0.01267  Uiso   1.00
H166   H     0.89620   0.21510   0.30660   0.01267  Uiso   1.00
H167   H     0.60230   0.87290   0.09050   0.01267  Uiso   1.00
H168   H     0.00000   0.51385   0.65700   0.01267  Uiso   1.00
H169   H     0.60230   0.87290   0.40950   0.01267  Uiso   1.00
H170   H     0.62020   0.26910   0.99660   0.01267  Uiso   1.00
H171   H     0.89620   0.21510   0.19340   0.01267  Uiso   1.00
H172   H     0.00000   0.12935   0.05780   0.01267  Uiso   1.00
H173   H     0.66930   0.35130   0.06820   0.01267  Uiso   1.00
H174   H     0.91880   0.22450   0.81690   0.01267  Uiso   1.00
H175   H     0.27060   0.39770   0.40950   0.01267  Uiso   1.00
H176   H     0.08120   0.77550   0.31690   0.01267  Uiso   1.00
H177   H     0.00000   0.69110   0.91510   0.01267  Uiso   1.00
H178   H     0.35110   0.73090   0.50340   0.01267  Uiso   1.00
H179   H     0.15320   0.15320   0.99510   0.01267  Uiso   1.00
H180   H     0.10090   0.79230   0.10590   0.01267  Uiso   1.00
H181   H     0.68110   0.78490   0.30660   0.01267  Uiso   1.00
H182   H     0.48500   0.74970   0.53710   0.01267  Uiso   1.00
H183   H     0.00000   0.87065   0.55780   0.01267  Uiso   1.00
H184   H     0.74970   0.26470   0.03710   0.01267  Uiso   1.00
H185   H     0.75980   0.75980   0.50900   0.01267  Uiso   1.00
H186   H     0.30890   0.00000   0.08490   0.01267  Uiso   1.00
H187   H     0.22450   0.91880   0.81690   0.01267  Uiso   1.00
H188   H     0.00000   0.84680   0.50490   0.01267  Uiso   1.00
H189   H     0.75290   0.39120   0.04030   0.01267  Uiso   1.00
H190   H     0.23450   0.17350   0.14420   0.01267  Uiso   1.00
H191   H     0.39770   0.27060   0.09050   0.01267  Uiso   1.00
H192   H     0.10380   0.31890   0.19340   0.01267  Uiso   1.00
H193   H     0.71390   0.32450   0.00930   0.01267  Uiso   1.00
H194   H     0.74230   0.12150   0.14460   0.01267  Uiso   1.00
H195   H     0.70870   0.57890   0.39530   0.01267  Uiso   1.00
H196   H     0.20770   0.89910   0.60590   0.01267  Uiso   1.00
H197   H     0.69110   0.69110   0.41510   0.01267  Uiso   1.00
H198   H     0.38550   0.67710   0.44530   0.01267  Uiso   1.00
H199   H     0.80740   0.80740   0.09680   0.01267  Uiso   1.00
H200   H     0.29160   0.61450   0.44530   0.01267  Uiso   1.00
H201   H     0.77550   0.69430   0.68310   0.01267  Uiso   1.00
H202   H     0.35130   0.66930   0.06820   0.01267  Uiso   1.00
H203   H     0.20770   0.30860   0.39410   0.01267  Uiso   1.00
H204   H     0.00000   0.24020   0.99100   0.01267  Uiso   1.00
H205   H     0.86210   0.60680   0.65500   0.01267  Uiso   1.00
H206   H     0.87065   0.87065   0.44220   0.01267  Uiso   1.00
H207   H     0.38940   0.67550   0.00930   0.01267  Uiso   1.00
H208   H     0.08860   0.76700   0.88210   0.01267  Uiso   1.00
H209   H     0.68110   0.89620   0.69340   0.01267  Uiso   1.00
H210   H     0.17350   0.93900   0.64420   0.01267  Uiso   1.00
H211   H     0.80780   0.75210   0.34410   0.01267  Uiso   1.00
H212   H     0.29130   0.42110   0.89530   0.01267  Uiso   1.00
H213   H     0.93900   0.17350   0.85580   0.01267  Uiso   1.00
H214   H     0.87850   0.25770   0.85540   0.01267  Uiso   1.00
H215   H     0.19260   0.19260   0.59680   0.01267  Uiso   1.00
H216   H     0.30860   0.20770   0.10590   0.01267  Uiso   1.00
H217   H     0.64890   0.26910   0.49660   0.01267  Uiso   1.00
H218   H     0.89910   0.69140   0.39410   0.01267  Uiso   1.00
H219   H     0.00000   0.30890   0.08490   0.01267  Uiso   1.00
H220   H     0.91140   0.23300   0.11790   0.01267  Uiso   1.00
H221   H     0.73530   0.25030   0.96290   0.01267  Uiso   1.00
H222   H     0.00000   0.15320   0.49510   0.01267  Uiso   1.00
H223   H     0.69140   0.89910   0.39410   0.01267  Uiso   1.00
H224   H     0.65700   0.33290   0.97600   0.01267  Uiso   1.00
H225   H     0.35130   0.68200   0.56820   0.01267  Uiso   1.00
H226   H     0.51385   0.51385   0.15700   0.01267  Uiso   1.00
H227   H     0.13790   0.74470   0.65500   0.01267  Uiso   1.00
H228   H     0.25770   0.87850   0.64460   0.01267  Uiso   1.00
H229   H     0.32290   0.70840   0.44530   0.01267  Uiso   1.00
H230   H     0.38550   0.70840   0.94530   0.01267  Uiso   1.00
H231   H     0.32410   0.66710   0.52400   0.01267  Uiso   1.00
H232   H     0.75210   0.80780   0.15590   0.01267  Uiso   1.00
H233   H     0.59180   0.00000   0.27310   0.01267  Uiso   1.00
H234   H     0.17350   0.23450   0.14420   0.01267  Uiso   1.00
H235   H     0.91140   0.67840   0.61790   0.01267  Uiso   1.00
H236   H     0.74470   0.13790   0.65500   0.01267  Uiso   1.00
H237   H     0.23300   0.91140   0.11790   0.01267  Uiso   1.00
H238   H     0.60880   0.36170   0.45970   0.01267  Uiso   1.00
H239   H     0.24790   0.05570   0.15590   0.01267  Uiso   1.00
H240   H     0.61860   0.35430   0.04840   0.01267  Uiso   1.00
H241   H     0.64870   0.31800   0.43180   0.01267  Uiso   1.00
H242   H     0.67590   0.33290   0.02400   0.01267  Uiso   1.00
H243   H     0.19220   0.94430   0.34410   0.01267  Uiso   1.00
H244   H     0.23300   0.32160   0.61790   0.01267  Uiso   1.00
H245   H     0.67710   0.38550   0.05470   0.01267  Uiso   1.00
H246   H     0.74230   0.62080   0.64460   0.01267  Uiso   1.00
H247   H     0.48615   0.00000   0.15700   0.01267  Uiso   1.00
H248   H     0.38140   0.73570   0.45160   0.01267  Uiso   1.00
H249   H     0.57890   0.87020   0.89530   0.01267  Uiso   1.00
H250   H     0.76550   0.93900   0.14420   0.01267  Uiso   1.00
H251   H     0.24790   0.19220   0.65590   0.01267  Uiso   1.00
H252   H     0.34200   0.34200   0.18970   0.01267  Uiso   1.00
H253   H     0.62080   0.87850   0.14460   0.01267  Uiso   1.00
H254   H     0.00000   0.19260   0.40320   0.01267  Uiso   1.00
H255   H     0.60880   0.24710   0.95970   0.01267  Uiso   1.00
H256   H     0.66710   0.32410   0.52400   0.01267  Uiso   1.00
H257   H     0.39320   0.13790   0.15500   0.01267  Uiso   1.00
H258   H     0.31800   0.66930   0.56820   0.01267  Uiso   1.00
H259   H     0.29130   0.87020   0.39530   0.01267  Uiso   1.00
H260   H     0.20770   0.89910   0.89410   0.01267  Uiso   1.00
H261   H     0.30570   0.22450   0.31690   0.01267  Uiso   1.00
H262   H     0.60680   0.86210   0.65500   0.01267  Uiso   1.00
H263   H     0.78490   0.68110   0.19340   0.01267  Uiso   1.00
H264   H     0.42110   0.29130   0.89530   0.01267  Uiso   1.00
H265   H     0.00000   0.48615   0.34300   0.01267  Uiso   1.00
H266   H     0.13790   0.39320   0.15500   0.01267  Uiso   1.00
H267   H     0.25770   0.87850   0.85540   0.01267  Uiso   1.00
H268   H     0.12935   0.12935   0.55780   0.01267  Uiso   1.00
H269   H     0.78490   0.10380   0.69340   0.01267  Uiso   1.00
H270   H     0.32160   0.23300   0.61790   0.01267  Uiso   1.00
H271   H     0.05570   0.24790   0.15590   0.01267  Uiso   1.00
H272   H     0.39320   0.25530   0.84500   0.01267  Uiso   1.00
H273   H     0.19220   0.24790   0.84410   0.01267  Uiso   1.00
H274   H     0.64570   0.38140   0.95160   0.01267  Uiso   1.00
H275   H     0.86210   0.25530   0.15500   0.01267  Uiso   1.00
H276   H     0.67590   0.34300   0.52400   0.01267  Uiso   1.00
H277   H     0.12935   0.00000   0.05780   0.01267  Uiso   1.00
H278   H     0.06100   0.23450   0.64420   0.01267  Uiso   1.00
H279   H     0.15320   0.00000   0.49510   0.01267  Uiso   1.00
H280   H     0.61860   0.26430   0.95160   0.01267  Uiso   1.00
H281   H     0.21510   0.89620   0.19340   0.01267  Uiso   1.00
H282   H     0.62080   0.74230   0.85540   0.01267  Uiso   1.00
H283   H     0.12710   0.39770   0.59050   0.01267  Uiso   1.00
H284   H     0.30890   0.30890   0.58490   0.01267  Uiso   1.00
H285   H     0.67550   0.38940   0.49070   0.01267  Uiso   1.00
H286   H     0.87290   0.60230   0.09050   0.01267  Uiso   1.00
H287   H     0.00000   0.80740   0.59680   0.01267  Uiso   1.00
H288   H     0.94430   0.19220   0.15590   0.01267  Uiso   1.00
H289   H     0.29130   0.87020   0.10470   0.01267  Uiso   1.00
H290   H     0.91880   0.22450   0.68310   0.01267  Uiso   1.00
H291   H     0.12980   0.70870   0.60470   0.01267  Uiso   1.00
H292   H     0.24710   0.63830   0.45970   0.01267  Uiso   1.00
H293   H     0.66930   0.31800   0.56820   0.01267  Uiso   1.00
H294   H     0.38940   0.71390   0.99070   0.01267  Uiso   1.00
H295   H     0.36170   0.60880   0.45970   0.01267  Uiso   1.00
H296   H     0.62020   0.35110   0.00340   0.01267  Uiso   1.00
H297   H     0.12710   0.72940   0.40950   0.01267  Uiso   1.00
H298   H     0.26910   0.62020   0.50340   0.01267  Uiso   1.00
H299   H     0.35430   0.73570   0.95160   0.01267  Uiso   1.00
H300   H     0.39770   0.12710   0.90950   0.01267  Uiso   1.00
H301   H     0.89620   0.68110   0.80660   0.01267  Uiso   1.00
H302   H     0.39120   0.75290   0.04030   0.01267  Uiso   1.00
H303   H     0.87020   0.57890   0.60470   0.01267  Uiso   1.00
H304   H     0.63830   0.24710   0.45970   0.01267  Uiso   1.00
H305   H     0.19260   0.00000   0.40320   0.01267  Uiso   1.00
H306   H     0.00000   0.49410   0.78950   0.01267  Uiso   1.00
H307   H     0.84680   0.00000   0.99510   0.01267  Uiso   1.00
H308   H     0.30860   0.10090   0.60590   0.01267  Uiso   1.00
H309   H     0.70840   0.38550   0.55470   0.01267  Uiso   1.00
H310   H     0.26910   0.64890   0.00340   0.01267  Uiso   1.00
H311   H     0.33070   0.68200   0.43180   0.01267  Uiso   1.00
H312   H     0.69430   0.77550   0.68310   0.01267  Uiso   1.00
H313   H     0.24790   0.19220   0.84410   0.01267  Uiso   1.00
H314   H     0.49410   0.49410   0.28950   0.01267  Uiso   1.00
H315   H     0.25030   0.51500   0.03710   0.01267  Uiso   1.00
H316   H     0.28610   0.67550   0.99070   0.01267  Uiso   1.00
H317   H     0.72940   0.12710   0.40950   0.01267  Uiso   1.00
H318   H     0.71390   0.38940   0.99070   0.01267  Uiso   1.00
H319   H     0.67550   0.28610   0.99070   0.01267  Uiso   1.00
H320   H     0.30890   0.30890   0.91510   0.01267  Uiso   1.00
H321   H     0.31890   0.21510   0.69340   0.01267  Uiso   1.00
H322   H     0.34200  -0.00000   0.81030   0.01267  Uiso   1.00
H323   H     0.32410   0.65700   0.02400   0.01267  Uiso   1.00
H324   H     0.24020   0.24020   0.00900   0.01267  Uiso   1.00
H325   H     0.66710   0.32410   0.97600   0.01267  Uiso   1.00
H326   H     0.87020   0.29130   0.10470   0.01267  Uiso   1.00
H327   H     0.61060   0.28610   0.00930   0.01267  Uiso   1.00
H328   H     0.61450   0.29160   0.05470   0.01267  Uiso   1.00
H329   H     0.84680   0.84680   0.49510   0.01267  Uiso   1.00
H330   H     0.68200   0.33070   0.06820   0.01267  Uiso   1.00
H331   H     0.10380   0.31890   0.30660   0.01267  Uiso   1.00
H332   H     0.32450   0.61060   0.99070   0.01267  Uiso   1.00
H333   H     0.37920   0.12150   0.64460   0.01267  Uiso   1.00
H334   H     0.35430   0.61860   0.04840   0.01267  Uiso   1.00
H335   H     0.66930   0.31800   0.93180   0.01267  Uiso   1.00
H336   H     0.91880   0.69430   0.31690   0.01267  Uiso   1.00
H337   H     0.22450   0.30570   0.18310   0.01267  Uiso   1.00
H338   H     0.22450   0.91880   0.68310   0.01267  Uiso   1.00
H339   H     0.28610   0.61060   0.00930   0.01267  Uiso   1.00
H340   H     0.33290   0.67590   0.47600   0.01267  Uiso   1.00
H341   H     0.51500   0.26470   0.53710   0.01267  Uiso   1.00
H342   H     0.31800   0.64870   0.43180   0.01267  Uiso   1.00
H343   H     0.87020   0.57890   0.89530   0.01267  Uiso   1.00
H344   H     0.48500   0.73530   0.03710   0.01267  Uiso   1.00
H345   H     0.26470   0.51500   0.53710   0.01267  Uiso   1.00
H346   H     0.87065   0.00000   0.55780   0.01267  Uiso   1.00
H347   H     0.00000   0.75980   0.00900   0.01267  Uiso   1.00
H348   H     0.33290   0.65700   0.97600   0.01267  Uiso   1.00
H349   H     0.89910   0.20770   0.89410   0.01267  Uiso   1.00
H350   H     0.74470   0.60680   0.15500   0.01267  Uiso   1.00
H351   H     0.32450   0.61060   0.50930   0.01267  Uiso   1.00
H352   H     0.32160   0.23300   0.88210   0.01267  Uiso   1.00
H353   H     0.24020  -0.00000   0.99100   0.01267  Uiso   1.00
H354   H     0.69430   0.91880   0.31690   0.01267  Uiso   1.00
H355   H     0.38140   0.64570   0.95160   0.01267  Uiso   1.00
H356   H     0.00000   0.65800   0.18970   0.01267  Uiso   1.00
H357   H     0.65800   0.65800   0.81030   0.01267  Uiso   1.00
H358   H     0.91140   0.67840   0.88210   0.01267  Uiso   1.00
H359   H     0.78490   0.10380   0.80660   0.01267  Uiso   1.00
H360   H     0.67840   0.91140   0.88210   0.01267  Uiso   1.00
H361   H     0.31890   0.10380   0.30660   0.01267  Uiso   1.00
H362   H     0.57890   0.70870   0.39530   0.01267  Uiso   1.00
H363   H     0.26470   0.74970   0.46290   0.01267  Uiso   1.00
H364   H     0.00000   0.49410   0.71050   0.01267  Uiso   1.00
H365   H     0.69140   0.79230   0.60590   0.01267  Uiso   1.00
H366   H     0.10090   0.30860   0.89410   0.01267  Uiso   1.00
H367   H     0.65700   0.32410   0.47600   0.01267  Uiso   1.00
H368   H     0.24710   0.60880   0.95970   0.01267  Uiso   1.00
H369   H     0.00000   0.34200   0.68970   0.01267  Uiso   1.00
H370   H     0.62020   0.26910   0.50340   0.01267  Uiso   1.00
H371   H     0.60680   0.74470   0.34500   0.01267  Uiso   1.00
H372   H     0.79230   0.10090   0.10590   0.01267  Uiso   1.00
H373   H     0.12150   0.74230   0.35540   0.01267  Uiso   1.00
H374   H     0.61060   0.32450   0.50930   0.01267  Uiso   1.00
H375   H     0.64890   0.37980   0.50340   0.01267  Uiso   1.00
H376   H     0.82650   0.76550   0.64420   0.01267  Uiso   1.00
H377   H     0.27060   0.87290   0.90950   0.01267  Uiso   1.00
H378   H     0.30860   0.10090   0.89410   0.01267  Uiso   1.00
H379   H     0.65800   0.65800   0.68970   0.01267  Uiso   1.00
H380   H     0.70840   0.32290   0.44530   0.01267  Uiso   1.00
H381   H     0.70870   0.12980   0.89530   0.01267  Uiso   1.00
H382   H     0.00000   0.50590   0.28950   0.01267  Uiso   1.00
H383   H     0.65800  -0.00000   0.31030   0.01267  Uiso   1.00
H384   H     0.89910   0.20770   0.60590   0.01267  Uiso   1.00
H385   H     0.33290   0.65700   0.52400   0.01267  Uiso   1.00
H386   H     0.10380   0.78490   0.69340   0.01267  Uiso   1.00
H387   H     0.37920   0.25770   0.35540   0.01267  Uiso   1.00
H388   H     0.73530   0.48500   0.03710   0.01267  Uiso   1.00
H389   H     0.70870   0.12980   0.60470   0.01267  Uiso   1.00
H390   H     0.75210   0.94430   0.65590   0.01267  Uiso   1.00
H391   H     0.68200   0.35130   0.56820   0.01267  Uiso   1.00
H392   H     0.84680   0.00000   0.50490   0.01267  Uiso   1.00
H393   H     0.77550   0.08120   0.18310   0.01267  Uiso   1.00
H394   H     0.74230   0.12150   0.35540   0.01267  Uiso   1.00
H395   H     0.65700   0.33290   0.52400   0.01267  Uiso   1.00
H396   H     0.48615   0.48615   0.65700   0.01267  Uiso   1.00
H397   H     0.74970   0.26470   0.46290   0.01267  Uiso   1.00
H398   H     0.12980   0.42110   0.10470   0.01267  Uiso   1.00
H399   H     0.25530   0.86210   0.15500   0.01267  Uiso   1.00
H400   H     0.74470   0.13790   0.84500   0.01267  Uiso   1.00
H401   H     0.26430   0.64570   0.04840   0.01267  Uiso   1.00
H402   H     0.93900   0.76550   0.14420   0.01267  Uiso   1.00
H403   H     0.48500   0.74970   0.96290   0.01267  Uiso   1.00
H404   H     0.71390   0.38940   0.50930   0.01267  Uiso   1.00
H405   H     0.74970   0.48500   0.96290   0.01267  Uiso   1.00
H406   H     0.69430   0.77550   0.81690   0.01267  Uiso   1.00
H407   H     0.42110   0.12980   0.39530   0.01267  Uiso   1.00
H408   H     0.00000   0.69110   0.58490   0.01267  Uiso   1.00
H409   H     0.51500   0.25030   0.03710   0.01267  Uiso   1.00
H410   H     0.38550   0.70840   0.55470   0.01267  Uiso   1.00
H411   H     0.60880   0.24710   0.54030   0.01267  Uiso   1.00
H412   H     0.34300   0.66710   0.02400   0.01267  Uiso   1.00
H413   H     0.32450   0.71390   0.00930   0.01267  Uiso   1.00
H414   H     0.32410   0.66710   0.97600   0.01267  Uiso   1.00
H415   H     0.40820   0.40820   0.27310   0.01267  Uiso   1.00
H416   H     0.69110  -0.00000   0.58490   0.01267  Uiso   1.00
H417   H     0.73570   0.38140   0.45160   0.01267  Uiso   1.00
H418   H     0.82650   0.06100   0.35580   0.01267  Uiso   1.00
H419   H     0.06100   0.82650   0.14420   0.01267  Uiso   1.00
H420   H     0.28610   0.67550   0.50930   0.01267  Uiso   1.00
H421   H     0.64570   0.26430   0.04840   0.01267  Uiso   1.00
H422   H     0.64890   0.37980   0.99660   0.01267  Uiso   1.00
H423   H     0.87850   0.62080   0.14460   0.01267  Uiso   1.00
H424   H     0.67840   0.76700   0.11790   0.01267  Uiso   1.00
H425   H     0.70840   0.38550   0.94530   0.01267  Uiso   1.00
H426   H     0.75980  -0.00000   0.00900   0.01267  Uiso   1.00
H427   H     0.51385  -0.00000   0.65700   0.01267  Uiso   1.00
H428   H     0.37980   0.73090   0.49660   0.01267  Uiso   1.00
H429   H     0.32160   0.08860   0.38210   0.01267  Uiso   1.00
H430   H     0.73090   0.37980   0.00340   0.01267  Uiso   1.00
H431   H     0.08860   0.32160   0.11790   0.01267  Uiso   1.00
H432   H     0.59180   0.59180   0.72690   0.01267  Uiso   1.00
H433   H     0.73530   0.25030   0.53710   0.01267  Uiso   1.00
H434   H     0.39770   0.12710   0.59050   0.01267  Uiso   1.00
H435   H     0.00000   0.59180   0.22690   0.01267  Uiso   1.00
H436   H     0.80740  -0.00000   0.59680   0.01267  Uiso   1.00
H437   H     0.50590   0.00000   0.28950   0.01267  Uiso   1.00
H438   H     0.35110   0.62020   0.00340   0.01267  Uiso   1.00
H439   H     0.66710   0.34300   0.02400   0.01267  Uiso   1.00
H440   H     0.29160   0.67710   0.55470   0.01267  Uiso   1.00
H441   H     0.76550   0.82650   0.85580   0.01267  Uiso   1.00
H442   H     0.34200  -0.00000   0.68970   0.01267  Uiso   1.00
H443   H     0.06100   0.23450   0.85580   0.01267  Uiso   1.00
H444   H     0.61860   0.26430   0.54840   0.01267  Uiso   1.00
H445   H     0.32160   0.08860   0.11790   0.01267  Uiso   1.00
H446   H     0.37980   0.64890   0.99660   0.01267  Uiso   1.00
H447   H     0.25530   0.39320   0.84500   0.01267  Uiso   1.00
H448   H     0.75980  -0.00000   0.49100   0.01267  Uiso   1.00
H449   H     0.87850   0.25770   0.64460   0.01267  Uiso   1.00
H450   H     0.36170   0.75290   0.95970   0.01267  Uiso   1.00
H451   H     0.66710   0.34300   0.47600   0.01267  Uiso   1.00
H452   H     0.35110   0.62020   0.49660   0.01267  Uiso   1.00
H453   H     0.50590   0.00000   0.21050   0.01267  Uiso   1.00
H454   H     0.00000   0.59180   0.27310   0.01267  Uiso   1.00
H455   H     0.79230   0.10090   0.39410   0.01267  Uiso   1.00
H456   H     0.24710   0.60880   0.54030   0.01267  Uiso   1.00
H457   H     0.23450   0.06100   0.64420   0.01267  Uiso   1.00
H458   H     0.93900   0.17350   0.64420   0.01267  Uiso   1.00
H459   H     0.87065   0.00000   0.94220   0.01267  Uiso   1.00
H460   H     0.67710   0.29160   0.55470   0.01267  Uiso   1.00
H461   H     0.08860   0.32160   0.38210   0.01267  Uiso   1.00
H462   H     0.72940   0.60230   0.59050   0.01267  Uiso   1.00
H463   H     0.73090   0.37980   0.49660   0.01267  Uiso   1.00
H464   H     0.37980   0.73090   0.00340   0.01267  Uiso   1.00
H465   H     0.25770   0.37920   0.14460   0.01267  Uiso   1.00
H466   H     0.86210   0.60680   0.84500   0.01267  Uiso   1.00
H467   H     0.67840   0.76700   0.38210   0.01267  Uiso   1.00
H468   H     0.32290   0.61450   0.94530   0.01267  Uiso   1.00
H469   H     0.87850   0.62080   0.35540   0.01267  Uiso   1.00
H470   H     0.63830   0.39120   0.95970   0.01267  Uiso   1.00
H471   H     0.64570   0.26430   0.45160   0.01267  Uiso   1.00
H472   H     0.76550   0.82650   0.64420   0.01267  Uiso   1.00
H473   H     0.57890   0.87020   0.60470   0.01267  Uiso   1.00
H474   H     0.61450   0.32290   0.55470   0.01267  Uiso   1.00
H475   H     0.61450   0.32290   0.94530   0.01267  Uiso   1.00
H476   H     0.06100   0.82650   0.35580   0.01267  Uiso   1.00
H477   H     0.87290   0.27060   0.90950   0.01267  Uiso   1.00
H478   H     0.69110  -0.00000   0.91510   0.01267  Uiso   1.00
H479   H     0.82650   0.06100   0.14420   0.01267  Uiso   1.00
H480   H     0.73570   0.38140   0.04840   0.01267  Uiso   1.00
H481   H     0.40820   0.40820   0.22690   0.01267  Uiso   1.00
H482   H     0.61060   0.32450   0.99070   0.01267  Uiso   1.00
H483   H     0.32450   0.71390   0.49070   0.01267  Uiso   1.00
H484   H     0.34300   0.66710   0.47600   0.01267  Uiso   1.00
H485   H     0.24020  -0.00000   0.50900   0.01267  Uiso   1.00
H486   H     0.10380   0.78490   0.80660   0.01267  Uiso   1.00
H487   H     0.51500   0.25030   0.46290   0.01267  Uiso   1.00
H488   H     0.42110   0.12980   0.10470   0.01267  Uiso   1.00
H489   H     0.37980   0.64890   0.50340   0.01267  Uiso   1.00
H490   H     0.74970   0.48500   0.53710   0.01267  Uiso   1.00
H491   H     0.93900   0.76550   0.35580   0.01267  Uiso   1.00
H492   H     0.26430   0.64570   0.45160   0.01267  Uiso   1.00
H493   H     0.25530   0.86210   0.34500   0.01267  Uiso   1.00
H494   H     0.12980   0.42110   0.39530   0.01267  Uiso   1.00
H495   H     0.87290   0.27060   0.59050   0.01267  Uiso   1.00
H496   H     0.77550   0.08120   0.31690   0.01267  Uiso   1.00
H497   H     0.76700   0.67840   0.38210   0.01267  Uiso   1.00
H498   H     0.73530   0.48500   0.46290   0.01267  Uiso   1.00
H499   H     0.37920   0.25770   0.14460   0.01267  Uiso   1.00
H500   H     0.73090   0.35110   0.99660   0.01267  Uiso   1.00
H501   H     0.65800  -0.00000   0.18970   0.01267  Uiso   1.00
H502   H     0.37920   0.12150   0.85540   0.01267  Uiso   1.00
H503   H     0.00000   0.50590   0.21050   0.01267  Uiso   1.00
H504   H     0.70840   0.32290   0.05470   0.01267  Uiso   1.00
H505   H     0.38140   0.73570   0.04840   0.01267  Uiso   1.00
H506   H     0.69140   0.79230   0.89410   0.01267  Uiso   1.00
H507   H     0.77550   0.69430   0.81690   0.01267  Uiso   1.00
H508   H     0.00000   0.80740   0.90320   0.01267  Uiso   1.00
H509   H     0.12150   0.74230   0.14460   0.01267  Uiso   1.00
H510   H     0.76700   0.08860   0.61790   0.01267  Uiso   1.00
H511   H     0.60680   0.74470   0.15500   0.01267  Uiso   1.00
H512   H     0.31890   0.21510   0.80660   0.01267  Uiso   1.00
H513   H     0.33070   0.64870   0.93180   0.01267  Uiso   1.00
H514   H     0.65700   0.32410   0.02400   0.01267  Uiso   1.00
H515   H     0.31800   0.64870   0.06820   0.01267  Uiso   1.00
H516   H     0.76700   0.67840   0.11790   0.01267  Uiso   1.00
H517   H     0.26470   0.74970   0.03710   0.01267  Uiso   1.00
H518   H     0.33070   0.64870   0.56820   0.01267  Uiso   1.00
H519   H     0.57890   0.70870   0.10470   0.01267  Uiso   1.00
H520   H     0.31890   0.10380   0.19340   0.01267  Uiso   1.00
H521   H     0.64870   0.33070   0.93180   0.01267  Uiso   1.00
H522   H     0.00000   0.65800   0.31030   0.01267  Uiso   1.00
H523   H     0.31800   0.66930   0.93180   0.01267  Uiso   1.00
H524   H     0.69430   0.91880   0.18310   0.01267  Uiso   1.00
H525   H     0.60680   0.86210   0.84500   0.01267  Uiso   1.00
H526   H     0.74470   0.60680   0.34500   0.01267  Uiso   1.00
H527   H     0.00000   0.75980   0.49100   0.01267  Uiso   1.00
H528   H     0.36170   0.75290   0.54030   0.01267  Uiso   1.00
H529   H     0.12150   0.37920   0.64460   0.01267  Uiso   1.00
H530   H     0.00000   0.51385   0.84300   0.01267  Uiso   1.00
H531   H     0.80740  -0.00000   0.90320   0.01267  Uiso   1.00
H532   H     0.48500   0.73530   0.46290   0.01267  Uiso   1.00
H533   H     0.12980   0.70870   0.89530   0.01267  Uiso   1.00
H534   H     0.33290   0.67590   0.02400   0.01267  Uiso   1.00
H535   H     0.51500   0.26470   0.96290   0.01267  Uiso   1.00
H536   H     0.28610   0.61060   0.49070   0.01267  Uiso   1.00
H537   H     0.19260   0.19260   0.90320   0.01267  Uiso   1.00
H538   H     0.25030   0.73530   0.96290   0.01267  Uiso   1.00
H539   H     0.35130   0.68200   0.93180   0.01267  Uiso   1.00
H540   H     0.22450   0.30570   0.31690   0.01267  Uiso   1.00
C1     C     0.00000   0.34430   0.42070   0.01267  Uiso   1.00
C2     C     0.46900   0.14670   0.95696   0.01267  Uiso   1.00
C3     C     0.80260   0.59710   0.60231   0.01267  Uiso   1.00
C4     C     0.41620   0.00000   0.79490   0.01267  Uiso   1.00
C5     C     0.64270   0.82420   0.62716   0.01267  Uiso   1.00
C6     C     0.16810   0.75140   0.08539   0.01267  Uiso   1.00
C7     C     0.21580   0.36090   0.65300   0.01267  Uiso   1.00
C8     C     0.35100   0.85470   0.44016   0.01267  Uiso   1.00
C9     C     0.26720   0.62730   0.52140   0.01267  Uiso   1.00
C10    C     0.31060   0.18670   0.12370   0.01267  Uiso   1.00
C11    C     0.63990   0.37270   0.52140   0.01267  Uiso   1.00
C12    C     0.85330   0.32230   0.95696   0.01267  Uiso   1.00
C13    C     0.59710   0.79450   0.10231   0.01267  Uiso   1.00
C14    C     0.63910   0.78420   0.34700   0.01267  Uiso   1.00
C15    C     0.68940   0.81330   0.87630   0.01267  Uiso   1.00
C16    C     0.18380   0.47120   0.43068   0.01267  Uiso   1.00
C17    C     0.35800   0.66600   0.94940   0.01267  Uiso   1.00
C18    C     0.68150   0.88340   0.86910   0.01267  Uiso   1.00
C19    C     0.80310   0.69130   0.66970   0.01267  Uiso   1.00
C20    C     0.43050   0.16520   0.40630   0.01267  Uiso   1.00
C21    C     0.00000   0.46725   0.69540   0.01267  Uiso   1.00
C22    C     0.30870   0.11180   0.66970   0.01267  Uiso   1.00
C23    C     0.52100   0.00000   0.16360   0.01267  Uiso   1.00
C24    C     0.12390   0.81330   0.37630   0.01267  Uiso   1.00
C25    C     0.61140  -0.00000   0.15130   0.01267  Uiso   1.00
C26    C     0.36010   0.62730   0.02140   0.01267  Uiso   1.00
C27    C     0.19190   0.31680   0.67570   0.01267  Uiso   1.00
C28    C     0.32230   0.85330   0.95696   0.01267  Uiso   1.00
C29    C     0.87510   0.19190   0.32430   0.01267  Uiso   1.00
C30    C     0.61140   0.61140   0.65130   0.01267  Uiso   1.00
C31    C     0.81330   0.68940   0.87630   0.01267  Uiso   1.00
C32    C     0.73130   0.86460   0.67260   0.01267  Uiso   1.00
C33    C     0.31200   0.67200   0.49410   0.01267  Uiso   1.00
C34    C     0.68940   0.87610   0.12370   0.01267  Uiso   1.00
C35    C     0.00000   0.41620   0.70510   0.01267  Uiso   1.00
C36    C     0.81850   0.64270   0.12716   0.01267  Uiso   1.00
C37    C     0.16470   0.16470   0.55220   0.01267  Uiso   1.00
C38    C     0.14530   0.49630   0.44016   0.01267  Uiso   1.00
C39    C     0.20550   0.80260   0.39769   0.01267  Uiso   1.00
C40    C     0.20190   0.88340   0.36910   0.01267  Uiso   1.00
C41    C     0.00000   0.54450   0.39360   0.01267  Uiso   1.00
C42    C     0.35730   0.18150   0.62716   0.01267  Uiso   1.00
C43    C     0.56034   0.56034   0.64160   0.01267  Uiso   1.00
C44    C     0.36000   0.67200   0.99410   0.01267  Uiso   1.00
C45    C     0.00000   0.25400   0.06710   0.01267  Uiso   1.00
C46    C     0.41620   0.00000   0.70510   0.01267  Uiso   1.00
C47    C     0.19740   0.40290   0.39769   0.01267  Uiso   1.00
C48    C     0.28740   0.47120   0.56932   0.01267  Uiso   1.00
C49    C     0.17740   0.27460   0.84630   0.01267  Uiso   1.00
C50    C     0.69200   0.33400   0.94940   0.01267  Uiso   1.00
C51    C     0.19190   0.87510   0.32430   0.01267  Uiso   1.00
C52    C     0.19690   0.30870   0.16970   0.01267  Uiso   1.00
C53    C     0.81620   0.28740   0.06932   0.01267  Uiso   1.00
C54    C     0.53275  -0.00000   0.19540   0.01267  Uiso   1.00
C55    C     0.51410   0.76370   0.94676   0.01267  Uiso   1.00
C56    C     0.74600   0.74600   0.43290   0.01267  Uiso   1.00
C57    C     0.67770   0.14670   0.04304   0.01267  Uiso   1.00
C58    C     0.24960   0.48590   0.55324   0.01267  Uiso   1.00
C59    C     0.64200   0.33400   0.44940   0.01267  Uiso   1.00
C60    C     0.00000   0.58380   0.20510   0.01267  Uiso   1.00
C61    C     0.41670   0.16810   0.58539   0.01267  Uiso   1.00
C62    C     0.09720   0.27460   0.15370   0.01267  Uiso   1.00
C63    C     0.82420   0.64270   0.62716   0.01267  Uiso   1.00
C64    C     0.11660   0.79810   0.63090   0.01267  Uiso   1.00
C65    C     0.12390   0.31060   0.87630   0.01267  Uiso   1.00
C66    C     0.00000   0.26815   0.46430   0.01267  Uiso   1.00
C67    C     0.78420   0.14510   0.65300   0.01267  Uiso   1.00
C68    C     0.56034  -0.00000   0.14160   0.01267  Uiso   1.00
C69    C     0.54180   0.80940   0.06095   0.01267  Uiso   1.00
C70    C     0.73185   0.73185   0.03570   0.01267  Uiso   1.00
C71    C     0.35800   0.66600   0.55060   0.01267  Uiso   1.00
C72    C     0.83530   0.83530   0.05220   0.01267  Uiso   1.00
C73    C     0.85330   0.32230   0.54304   0.01267  Uiso   1.00
C74    C     0.16520   0.73470   0.90630   0.01267  Uiso   1.00
C75    C     0.16620   0.89960   0.64650   0.01267  Uiso   1.00
C76    C     0.43966   0.00000   0.85840   0.01267  Uiso   1.00
C77    C     0.75040   0.51410   0.05324   0.01267  Uiso   1.00
C78    C     0.73340   0.83380   0.85350   0.01267  Uiso   1.00
C79    C     0.48590   0.24960   0.94676   0.01267  Uiso   1.00
C80    C     0.81850   0.17580   0.87284   0.01267  Uiso   1.00
C81    C     0.80810   0.68320   0.32430   0.01267  Uiso   1.00
C82    C     0.79450   0.19740   0.60231   0.01267  Uiso   1.00
C83    C     0.73280   0.36010   0.52140   0.01267  Uiso   1.00
C84    C     0.26720   0.62730   0.97860   0.01267  Uiso   1.00
C85    C     0.24860   0.41670   0.08539   0.01267  Uiso   1.00
C86    C     0.64770   0.86410   0.35310   0.01267  Uiso   1.00
C87    C     0.00000   0.79770   0.57540   0.01267  Uiso   1.00
C88    C     0.62730   0.36010   0.02140   0.01267  Uiso   1.00
C89    C     0.45820   0.19060   0.93905   0.01267  Uiso   1.00
C90    C     0.45550   0.00000   0.60640   0.01267  Uiso   1.00
C91    C     0.90280   0.72540   0.84630   0.01267  Uiso   1.00
C92    C     0.09720   0.82260   0.65370   0.01267  Uiso   1.00
C93    C     0.62310   0.62310   0.68310   0.01267  Uiso   1.00
C94    C     0.12490   0.31680   0.32430   0.01267  Uiso   1.00
C95    C     0.26530   0.83480   0.09370   0.01267  Uiso   1.00
C96    C     0.26815  -0.00000   0.03570   0.01267  Uiso   1.00
C97    C     0.13590   0.35230   0.64690   0.01267  Uiso   1.00
C98    C     0.73130   0.86460   0.82740   0.01267  Uiso   1.00
C99    C     0.16620   0.89960   0.85350   0.01267  Uiso   1.00
C100   C     0.35230   0.21640   0.35310   0.01267  Uiso   1.00
C101   C     0.27460   0.09720   0.34630   0.01267  Uiso   1.00
C102   C     0.00000   0.43966   0.85840   0.01267  Uiso   1.00
C103   C     0.83480   0.56950   0.59370   0.01267  Uiso   1.00
C104   C     0.83530  -0.00000   0.55220   0.01267  Uiso   1.00
C105   C     0.34430   0.34430   0.92070   0.01267  Uiso   1.00
C106   C     0.36090   0.21580   0.65300   0.01267  Uiso   1.00
C107   C     0.30870   0.19690   0.16970   0.01267  Uiso   1.00
C108   C     0.35100   0.49630   0.55984   0.01267  Uiso   1.00
C109   C     0.56950   0.83480   0.59370   0.01267  Uiso   1.00
C110   C     0.64770   0.78360   0.85310   0.01267  Uiso   1.00
C111   C     0.82260   0.72540   0.15370   0.01267  Uiso   1.00
C112   C     0.36010   0.73280   0.52140   0.01267  Uiso   1.00
C113   C     0.00000   0.56034   0.35840   0.01267  Uiso   1.00
C114   C     0.54450   0.00000   0.39360   0.01267  Uiso   1.00
C115   C     0.85490   0.21580   0.15300   0.01267  Uiso   1.00
C116   C     0.17580   0.35730   0.12716   0.01267  Uiso   1.00
C117   C     0.73280   0.36010   0.97860   0.01267  Uiso   1.00
C118   C     0.00000   0.53275   0.19540   0.01267  Uiso   1.00
C119   C     0.67200   0.31200   0.00590   0.01267  Uiso   1.00
C120   C     0.88680   0.78020   0.69660   0.01267  Uiso   1.00
C121   C     0.68150   0.79810   0.13090   0.01267  Uiso   1.00
C122   C     0.32640   0.32640   0.52720   0.01267  Uiso   1.00
C123   C     0.00000   0.79770   0.92460   0.01267  Uiso   1.00
C124   C     0.86410   0.21640   0.64690   0.01267  Uiso   1.00
C125   C     0.28740   0.47120   0.93068   0.01267  Uiso   1.00
C126   C     0.58330   0.83190   0.08539   0.01267  Uiso   1.00
C127   C     0.26660   0.16620   0.35350   0.01267  Uiso   1.00
C128   C     0.00000   0.65570   0.57930   0.01267  Uiso   1.00
C129   C     0.00000   0.16470   0.05220   0.01267  Uiso   1.00
C130   C     0.35100   0.49630   0.94016   0.01267  Uiso   1.00
C131   C     0.83480   0.26530   0.09370   0.01267  Uiso   1.00
C132   C     0.73280   0.37270   0.47860   0.01267  Uiso   1.00
C133   C     0.80810   0.12490   0.67570   0.01267  Uiso   1.00
C134   C     0.85470   0.50370   0.94016   0.01267  Uiso   1.00
C135   C     0.78020   0.88680   0.80340   0.01267  Uiso   1.00
C136   C     0.65570   0.65570   0.07930   0.01267  Uiso   1.00
C137   C     0.53100   0.85330   0.45696   0.01267  Uiso   1.00
C138   C     0.33400   0.69200   0.94940   0.01267  Uiso   1.00
C139   C     0.23630   0.48590   0.44676   0.01267  Uiso   1.00
C140   C     0.13590   0.78360   0.35310   0.01267  Uiso   1.00
C141   C     0.66600   0.30800   0.05060   0.01267  Uiso   1.00
C142   C     0.00000   0.46725   0.80460   0.01267  Uiso   1.00
C143   C     0.68320   0.87510   0.67570   0.01267  Uiso   1.00
C144   C     0.56950   0.83480   0.90630   0.01267  Uiso   1.00
C145   C     0.18670   0.31060   0.12370   0.01267  Uiso   1.00
C146   C     0.26720   0.63990   0.47860   0.01267  Uiso   1.00
C147   C     0.47120   0.28740   0.93068   0.01267  Uiso   1.00
C148   C     0.64000   0.32800   0.00590   0.01267  Uiso   1.00
C149   C     0.88340   0.20190   0.36910   0.01267  Uiso   1.00
C150   C     0.43050   0.26530   0.59370   0.01267  Uiso   1.00
C151   C     0.50370   0.85470   0.55984   0.01267  Uiso   1.00
C152   C     0.37690   0.00000   0.68310   0.01267  Uiso   1.00
C153   C     0.00000   0.76940   0.51250   0.01267  Uiso   1.00
C154   C     0.66600   0.35800   0.94940   0.01267  Uiso   1.00
C155   C     0.32640  -0.00000   0.02720   0.01267  Uiso   1.00
C156   C     0.32230   0.46900   0.04304   0.01267  Uiso   1.00
C157   C     0.50370   0.64900   0.44016   0.01267  Uiso   1.00
C158   C     0.16520   0.43050   0.09370   0.01267  Uiso   1.00
C159   C     0.25400  -0.00000   0.43290   0.01267  Uiso   1.00
C160   C     0.73240   0.54180   0.93905   0.01267  Uiso   1.00
C161   C     0.00000   0.52100   0.16360   0.01267  Uiso   1.00
C162   C     0.58330   0.75140   0.58539   0.01267  Uiso   1.00
C163   C     0.25400   0.25400   0.93290   0.01267  Uiso   1.00
C164   C     0.16810   0.41670   0.91461   0.01267  Uiso   1.00
C165   C     0.21980   0.11320   0.19660   0.01267  Uiso   1.00
C166   C     0.19740   0.79450   0.60231   0.01267  Uiso   1.00
C167   C     0.21580   0.85490   0.34700   0.01267  Uiso   1.00
C168   C     0.31850   0.20190   0.86910   0.01267  Uiso   1.00
C169   C     0.71260   0.52880   0.06932   0.01267  Uiso   1.00
C170   C     0.23060  -0.00000   0.01250   0.01267  Uiso   1.00
C171   C     0.26530   0.43050   0.90630   0.01267  Uiso   1.00
C172   C     0.68150   0.88340   0.63090   0.01267  Uiso   1.00
C173   C     0.81620   0.52880   0.56932   0.01267  Uiso   1.00
C174   C     0.00000   0.38860   0.65130   0.01267  Uiso   1.00
C175   C     0.82115   0.82115   0.02080   0.01267  Uiso   1.00
C176   C     0.31200   0.64000   0.99410   0.01267  Uiso   1.00
C177   C     0.45550   0.45550   0.39360   0.01267  Uiso   1.00
C178   C     0.79770   0.00000   0.57540   0.01267  Uiso   1.00
C179   C     0.33400   0.64200   0.44940   0.01267  Uiso   1.00
C180   C     0.30800   0.64200   0.94940   0.01267  Uiso   1.00
C181   C     0.65570  -0.00000   0.92070   0.01267  Uiso   1.00
C182   C     0.89960   0.73340   0.35350   0.01267  Uiso   1.00
C183   C     0.35730   0.17580   0.37284   0.01267  Uiso   1.00
C184   C     0.54180   0.73240   0.56095   0.01267  Uiso   1.00
C185   C     0.79450   0.59710   0.10231   0.01267  Uiso   1.00
C186   C     0.12390   0.81330   0.12370   0.01267  Uiso   1.00
C187   C     0.85470   0.35100   0.44016   0.01267  Uiso   1.00
C188   C     0.51410   0.75040   0.44676   0.01267  Uiso   1.00
C189   C     0.41670   0.16810   0.91461   0.01267  Uiso   1.00
C190   C     0.86460   0.13330   0.17260   0.01267  Uiso   1.00
C191   C     0.32800   0.64000   0.49410   0.01267  Uiso   1.00
C192   C     0.32800   0.68800   0.99410   0.01267  Uiso   1.00
C193   C     0.86670   0.73130   0.32740   0.01267  Uiso   1.00
C194   C     0.46725   0.46725   0.30460   0.01267  Uiso   1.00
C195   C     0.78360   0.13590   0.35310   0.01267  Uiso   1.00
C196   C     0.88820   0.69130   0.33030   0.01267  Uiso   1.00
C197   C     0.18380   0.71260   0.93068   0.01267  Uiso   1.00
C198   C     0.64200   0.30800   0.94940   0.01267  Uiso   1.00
C199   C     0.18150   0.35730   0.87284   0.01267  Uiso   1.00
C200   C     0.64270   0.81850   0.37284   0.01267  Uiso   1.00
C201   C     0.24860   0.83190   0.58539   0.01267  Uiso   1.00
C202   C     0.21980   0.10660   0.80340   0.01267  Uiso   1.00
C203   C     0.31060   0.12390   0.62370   0.01267  Uiso   1.00
C204   C     0.11660   0.79810   0.86910   0.01267  Uiso   1.00
C205   C     0.73340   0.89960   0.35350   0.01267  Uiso   1.00
C206   C     0.17740   0.90280   0.34630   0.01267  Uiso   1.00
C207   C     0.47900   0.00000   0.83640   0.01267  Uiso   1.00
C208   C     0.34430   0.34430   0.57930   0.01267  Uiso   1.00
C209   C     0.83380   0.73340   0.64650   0.01267  Uiso   1.00
C210   C     0.17740   0.90280   0.15370   0.01267  Uiso   1.00
C211   C     0.73340   0.89960   0.14650   0.01267  Uiso   1.00
C212   C     0.56950   0.73470   0.09370   0.01267  Uiso   1.00
C213   C     0.49630   0.35100   0.55984   0.01267  Uiso   1.00
C214   C     0.36010   0.73280   0.97860   0.01267  Uiso   1.00
C215   C     0.82420   0.64270   0.87284   0.01267  Uiso   1.00
C216   C     0.64270   0.81850   0.12716   0.01267  Uiso   1.00
C217   C     0.28740   0.81620   0.43068   0.01267  Uiso   1.00
C218   C     0.61140   0.61140   0.84870   0.01267  Uiso   1.00
C219   C     0.00000   0.38860   0.84870   0.01267  Uiso   1.00
C220   C     0.11180   0.30870   0.83030   0.01267  Uiso   1.00
C221   C     0.88820   0.69130   0.16970   0.01267  Uiso   1.00
C222   C     0.78360   0.13590   0.14690   0.01267  Uiso   1.00
C223   C     0.32800   0.68800   0.50590   0.01267  Uiso   1.00
C224   C     0.46725   0.46725   0.19540   0.01267  Uiso   1.00
C225   C     0.19690   0.88820   0.66970   0.01267  Uiso   1.00
C226   C     0.72540   0.90280   0.84630   0.01267  Uiso   1.00
C227   C     0.32800   0.64000   0.00590   0.01267  Uiso   1.00
C228   C     0.86460   0.13330   0.32740   0.01267  Uiso   1.00
C229   C     0.64200   0.30800   0.55060   0.01267  Uiso   1.00
C230   C     0.51410   0.75040   0.05324   0.01267  Uiso   1.00
C231   C     0.85470   0.35100   0.05984   0.01267  Uiso   1.00
C232   C     0.63910   0.85490   0.65300   0.01267  Uiso   1.00
C233   C     0.58330   0.75140   0.91461   0.01267  Uiso   1.00
C234   C     0.79450   0.59710   0.39769   0.01267  Uiso   1.00
C235   C     0.76370   0.51410   0.55324   0.01267  Uiso   1.00
C236   C     0.35730   0.17580   0.12716   0.01267  Uiso   1.00
C237   C     0.23060   0.23060   0.98750   0.01267  Uiso   1.00
C238   C     0.75040   0.23630   0.94676   0.01267  Uiso   1.00
C239   C     0.45550   0.45550   0.10640   0.01267  Uiso   1.00
C240   C     0.82260   0.09720   0.65370   0.01267  Uiso   1.00
C241   C     0.37690   0.37690   0.31690   0.01267  Uiso   1.00
C242   C     0.67200   0.36000   0.50590   0.01267  Uiso   1.00
C243   C     0.81330   0.12390   0.12370   0.01267  Uiso   1.00
C244   C     0.78360   0.64770   0.64690   0.01267  Uiso   1.00
C245   C     0.00000   0.37690   0.68310   0.01267  Uiso   1.00
C246   C     0.26815   0.26815   0.96430   0.01267  Uiso   1.00
C247   C     0.82115   0.82115   0.47920   0.01267  Uiso   1.00
C248   C     0.38860  -0.00000   0.84870   0.01267  Uiso   1.00
C249   C     0.31850   0.20190   0.63090   0.01267  Uiso   1.00
C250   C     0.13330   0.26870   0.67260   0.01267  Uiso   1.00
C251   C     0.23060  -0.00000   0.48750   0.01267  Uiso   1.00
C252   C     0.71260   0.52880   0.43068   0.01267  Uiso   1.00
C253   C     0.21580   0.85490   0.15300   0.01267  Uiso   1.00
C254   C     0.20230   0.20230   0.57540   0.01267  Uiso   1.00
C255   C     0.21980   0.11320   0.30340   0.01267  Uiso   1.00
C256   C     0.88820   0.19690   0.66970   0.01267  Uiso   1.00
C257   C     0.13590   0.35230   0.85310   0.01267  Uiso   1.00
C258   C     0.43050   0.26530   0.90630   0.01267  Uiso   1.00
C259   C     0.73340   0.83380   0.64650   0.01267  Uiso   1.00
C260   C     0.00000   0.52100   0.33640   0.01267  Uiso   1.00
C261   C     0.25400  -0.00000   0.06710   0.01267  Uiso   1.00
C262   C     0.12490   0.80810   0.82430   0.01267  Uiso   1.00
C263   C     0.50370   0.64900   0.05984   0.01267  Uiso   1.00
C264   C     0.32230   0.46900   0.45696   0.01267  Uiso   1.00
C265   C     0.32640  -0.00000   0.47280   0.01267  Uiso   1.00
C266   C     0.69130   0.80310   0.83030   0.01267  Uiso   1.00
C267   C     0.59710   0.80260   0.89769   0.01267  Uiso   1.00
C268   C     0.16520   0.43050   0.40630   0.01267  Uiso   1.00
C269   C     0.88340   0.20190   0.13090   0.01267  Uiso   1.00
C270   C     0.64000   0.32800   0.49410   0.01267  Uiso   1.00
C271   C     0.64270   0.82420   0.87284   0.01267  Uiso   1.00
C272   C     0.13330   0.26870   0.82740   0.01267  Uiso   1.00
C273   C     0.26720   0.63990   0.02140   0.01267  Uiso   1.00
C274   C     0.65570   0.65570   0.42070   0.01267  Uiso   1.00
C275   C     0.63910   0.85490   0.84700   0.01267  Uiso   1.00
C276   C     0.10040   0.26660   0.85350   0.01267  Uiso   1.00
C277   C     0.00000   0.53275   0.30460   0.01267  Uiso   1.00
C278   C     0.11320   0.89340   0.69660   0.01267  Uiso   1.00
C279   C     0.18670   0.31060   0.37630   0.01267  Uiso   1.00
C280   C     0.19690   0.88820   0.83030   0.01267  Uiso   1.00
C281   C     0.66600   0.30800   0.44940   0.01267  Uiso   1.00
C282   C     0.62730   0.26720   0.52140   0.01267  Uiso   1.00
C283   C     0.71260   0.18380   0.93068   0.01267  Uiso   1.00
C284   C     0.13590   0.78360   0.14690   0.01267  Uiso   1.00
C285   C     0.36000   0.68800   0.49410   0.01267  Uiso   1.00
C286   C     0.23630   0.48590   0.05324   0.01267  Uiso   1.00
C287   C     0.53275   0.53275   0.80460   0.01267  Uiso   1.00
C288   C     0.14530   0.64900   0.55984   0.01267  Uiso   1.00
C289   C     0.53100   0.85330   0.04304   0.01267  Uiso   1.00
C290   C     0.09720   0.82260   0.84630   0.01267  Uiso   1.00
C291   C     0.26530   0.43050   0.59370   0.01267  Uiso   1.00
C292   C     0.40290   0.20550   0.60231   0.01267  Uiso   1.00
C293   C     0.16810   0.41670   0.58539   0.01267  Uiso   1.00
C294   C     0.76940  -0.00000   0.98750   0.01267  Uiso   1.00
C295   C     0.73280   0.37270   0.02140   0.01267  Uiso   1.00
C296   C     0.83480   0.26530   0.40630   0.01267  Uiso   1.00
C297   C     0.20550   0.40290   0.60231   0.01267  Uiso   1.00
C298   C     0.76940   0.76940   0.48750   0.01267  Uiso   1.00
C299   C     0.00000   0.16470   0.44780   0.01267  Uiso   1.00
C300   C     0.31680   0.12490   0.17570   0.01267  Uiso   1.00
C301   C     0.67360  -0.00000   0.97280   0.01267  Uiso   1.00
C302   C     0.00000   0.82115   0.97920   0.01267  Uiso   1.00
C303   C     0.26660   0.16620   0.14650   0.01267  Uiso   1.00
C304   C     0.58330   0.83190   0.41461   0.01267  Uiso   1.00
C305   C     0.76370   0.24960   0.44676   0.01267  Uiso   1.00
C306   C     0.68150   0.79810   0.36910   0.01267  Uiso   1.00
C307   C     0.85470   0.50370   0.55984   0.01267  Uiso   1.00
C308   C     0.11320   0.89340   0.80340   0.01267  Uiso   1.00
C309   C     0.67200   0.31200   0.49410   0.01267  Uiso   1.00
C310   C     0.87610   0.18670   0.62370   0.01267  Uiso   1.00
C311   C     0.76370   0.24960   0.05324   0.01267  Uiso   1.00
C312   C     0.31680   0.19190   0.82430   0.01267  Uiso   1.00
C313   C     0.17580   0.35730   0.37284   0.01267  Uiso   1.00
C314   C     0.64000   0.31200   0.50590   0.01267  Uiso   1.00
C315   C     0.85490   0.21580   0.34700   0.01267  Uiso   1.00
C316   C     0.81330   0.12390   0.37630   0.01267  Uiso   1.00
C317   C     0.54450   0.00000   0.10640   0.01267  Uiso   1.00
C318   C     0.24960   0.48590   0.94676   0.01267  Uiso   1.00
C319   C     0.00000   0.56034   0.14160   0.01267  Uiso   1.00
C320   C     0.51410   0.76370   0.55324   0.01267  Uiso   1.00
C321   C     0.82260   0.72540   0.34630   0.01267  Uiso   1.00
C322   C     0.82115   0.00000   0.97920   0.01267  Uiso   1.00
C323   C     0.73185   0.00000   0.53570   0.01267  Uiso   1.00
C324   C     0.30870   0.19690   0.33030   0.01267  Uiso   1.00
C325   C     0.00000   0.83530   0.55220   0.01267  Uiso   1.00
C326   C     0.45820   0.19060   0.56095   0.01267  Uiso   1.00
C327   C     0.68800   0.32800   0.50590   0.01267  Uiso   1.00
C328   C     0.52880   0.81620   0.56932   0.01267  Uiso   1.00
C329   C     0.00000   0.45550   0.89360   0.01267  Uiso   1.00
C330   C     0.27460   0.09720   0.15370   0.01267  Uiso   1.00
C331   C     0.35230   0.21640   0.14690   0.01267  Uiso   1.00
C332   C     0.17885  -0.00000   0.02080   0.01267  Uiso   1.00
C333   C     0.21580   0.36090   0.84700   0.01267  Uiso   1.00
C334   C     0.67200   0.36000   0.99410   0.01267  Uiso   1.00
C335   C     0.00000   0.47900   0.66360   0.01267  Uiso   1.00
C336   C     0.31200   0.64000   0.50590   0.01267  Uiso   1.00
C337   C     0.58380   0.00000   0.29490   0.01267  Uiso   1.00
C338   C     0.26815  -0.00000   0.46430   0.01267  Uiso   1.00
C339   C     0.26530   0.83480   0.40630   0.01267  Uiso   1.00
C340   C     0.12490   0.31680   0.17570   0.01267  Uiso   1.00
C341   C     0.23630   0.75040   0.55324   0.01267  Uiso   1.00
C342   C     0.62730   0.36010   0.47860   0.01267  Uiso   1.00
C343   C     0.64770   0.86410   0.14690   0.01267  Uiso   1.00
C344   C     0.26760   0.80940   0.93905   0.01267  Uiso   1.00
C345   C     0.24860   0.41670   0.41461   0.01267  Uiso   1.00
C346   C     0.69200   0.33400   0.55060   0.01267  Uiso   1.00
C347   C     0.53100   0.67770   0.54304   0.01267  Uiso   1.00
C348   C     0.65570  -0.00000   0.57930   0.01267  Uiso   1.00
C349   C     0.80810   0.68320   0.17570   0.01267  Uiso   1.00
C350   C     0.50370   0.85470   0.94016   0.01267  Uiso   1.00
C351   C     0.46725  -0.00000   0.80460   0.01267  Uiso   1.00
C352   C     0.00000   0.74600   0.93290   0.01267  Uiso   1.00
C353   C     0.75040   0.51410   0.44676   0.01267  Uiso   1.00
C354   C     0.00000   0.25400   0.43290   0.01267  Uiso   1.00
C355   C     0.83530   0.83530   0.44780   0.01267  Uiso   1.00
C356   C     0.38860   0.38860   0.34870   0.01267  Uiso   1.00
C357   C     0.54180   0.80940   0.43905   0.01267  Uiso   1.00
C358   C     0.56034  -0.00000   0.35840   0.01267  Uiso   1.00
C359   C     0.00000   0.26815   0.03570   0.01267  Uiso   1.00
C360   C     0.00000   0.83530   0.94780   0.01267  Uiso   1.00
C361   C     0.89340   0.11320   0.80340   0.01267  Uiso   1.00
C362   C     0.21640   0.86410   0.64690   0.01267  Uiso   1.00
C363   C     0.17885   0.17885   0.97920   0.01267  Uiso   1.00
C364   C     0.18670   0.87610   0.87630   0.01267  Uiso   1.00
C365   C     0.09720   0.27460   0.34630   0.01267  Uiso   1.00
C366   C     0.27460   0.17740   0.65370   0.01267  Uiso   1.00
C367   C     0.00000   0.58380   0.29490   0.01267  Uiso   1.00
C368   C     0.67770   0.14670   0.45696   0.01267  Uiso   1.00
C369   C     0.74600   0.74600   0.06710   0.01267  Uiso   1.00
C370   C     0.53275  -0.00000   0.30460   0.01267  Uiso   1.00
C371   C     0.81620   0.28740   0.43068   0.01267  Uiso   1.00
C372   C     0.75040   0.23630   0.55324   0.01267  Uiso   1.00
C373   C     0.19690   0.30870   0.33030   0.01267  Uiso   1.00
C374   C     0.19190   0.87510   0.17570   0.01267  Uiso   1.00
C375   C     0.19740   0.40290   0.10231   0.01267  Uiso   1.00
C376   C     0.80940   0.26760   0.93905   0.01267  Uiso   1.00
C377   C     0.46900   0.14670   0.54304   0.01267  Uiso   1.00
C378   C     0.37690   0.37690   0.18310   0.01267  Uiso   1.00
C379   C     0.73470   0.16520   0.90630   0.01267  Uiso   1.00
C380   C     0.00000   0.54450   0.10640   0.01267  Uiso   1.00
C381   C     0.20190   0.88340   0.13090   0.01267  Uiso   1.00
C382   C     0.20550   0.80260   0.10231   0.01267  Uiso   1.00
C383   C     0.52100   0.52100   0.83640   0.01267  Uiso   1.00
C384   C     0.14530   0.49630   0.05984   0.01267  Uiso   1.00
C385   C     0.68940   0.81330   0.62370   0.01267  Uiso   1.00
C386   C     0.14510   0.78420   0.84700   0.01267  Uiso   1.00
C387   C     0.81850   0.64270   0.37284   0.01267  Uiso   1.00
C388   C     0.68940   0.87610   0.37630   0.01267  Uiso   1.00
C389   C     0.31200   0.67200   0.00590   0.01267  Uiso   1.00
C390   C     0.16520   0.73470   0.59370   0.01267  Uiso   1.00
C391   C     0.85490   0.63910   0.65300   0.01267  Uiso   1.00
C392   C     0.33400   0.64200   0.05060   0.01267  Uiso   1.00
C393   C     0.87510   0.19190   0.17570   0.01267  Uiso   1.00
C394   C     0.18150   0.35730   0.62716   0.01267  Uiso   1.00
C395   C     0.64770   0.78360   0.64690   0.01267  Uiso   1.00
C396   C     0.36010   0.62730   0.47860   0.01267  Uiso   1.00
C397   C     0.61140  -0.00000   0.34870   0.01267  Uiso   1.00
C398   C     0.52100   0.00000   0.33640   0.01267  Uiso   1.00
C399   C     0.12390   0.31060   0.62370   0.01267  Uiso   1.00
C400   C     0.87510   0.68320   0.67570   0.01267  Uiso   1.00
C401   C     0.43050   0.16520   0.09370   0.01267  Uiso   1.00
C402   C     0.88340   0.68150   0.63090   0.01267  Uiso   1.00
C403   C     0.74600  -0.00000   0.93290   0.01267  Uiso   1.00
C404   C     0.18380   0.47120   0.06932   0.01267  Uiso   1.00
C405   C     0.00000   0.65570   0.92070   0.01267  Uiso   1.00
C406   C     0.63910   0.78420   0.15300   0.01267  Uiso   1.00
C407   C     0.59710   0.79450   0.39769   0.01267  Uiso   1.00
C408   C     0.00000   0.41620   0.79490   0.01267  Uiso   1.00
C409   C     0.31060   0.18670   0.37630   0.01267  Uiso   1.00
C410   C     0.64900   0.14530   0.55984   0.01267  Uiso   1.00
C411   C     0.35100   0.85470   0.05984   0.01267  Uiso   1.00
C412   C     0.27460   0.17740   0.84630   0.01267  Uiso   1.00
C413   C     0.16810   0.75140   0.41461   0.01267  Uiso   1.00
C414   C     0.00000   0.34430   0.07930   0.01267  Uiso   1.00
C415   C     0.11180   0.80310   0.16970   0.01267  Uiso   1.00
C416   C     0.46725  -0.00000   0.69540   0.01267  Uiso   1.00
C417   C     0.00000   0.20230   0.42460   0.01267  Uiso   1.00
C418   C     0.36090   0.21580   0.84700   0.01267  Uiso   1.00
C419   C     0.19190   0.31680   0.82430   0.01267  Uiso   1.00
C420   C     0.00000   0.82115   0.52080   0.01267  Uiso   1.00
C421   C     0.00000   0.61140   0.15130   0.01267  Uiso   1.00
C422   C     0.26870   0.13330   0.82740   0.01267  Uiso   1.00
C423   C     0.26870   0.13540   0.17260   0.01267  Uiso   1.00
C424   C     0.40290   0.19740   0.10231   0.01267  Uiso   1.00
C425   C     0.73240   0.19060   0.06095   0.01267  Uiso   1.00
C426   C     0.16470   0.00000   0.44780   0.01267  Uiso   1.00
C427   C     0.79450   0.19740   0.89769   0.01267  Uiso   1.00
C428   C     0.13330   0.86460   0.32740   0.01267  Uiso   1.00
C429   C     0.26760   0.45820   0.43905   0.01267  Uiso   1.00
C430   C     0.79810   0.68150   0.13090   0.01267  Uiso   1.00
C431   C     0.48590   0.24960   0.55324   0.01267  Uiso   1.00
C432   C     0.86460   0.73130   0.82740   0.01267  Uiso   1.00
C433   C     0.47900   0.47900   0.33640   0.01267  Uiso   1.00
C434   C     0.68800   0.36000   0.49410   0.01267  Uiso   1.00
C435   C     0.17580   0.81850   0.87284   0.01267  Uiso   1.00
C436   C     0.78420   0.14510   0.84700   0.01267  Uiso   1.00
C437   C     0.73130   0.86670   0.17260   0.01267  Uiso   1.00
C438   C     0.24960   0.76370   0.05324   0.01267  Uiso   1.00
C439   C     0.87610   0.68940   0.12370   0.01267  Uiso   1.00
C440   C     0.76370   0.51410   0.94676   0.01267  Uiso   1.00
C441   C     0.69130   0.88820   0.16970   0.01267  Uiso   1.00
C442   C     0.10660   0.88680   0.19660   0.01267  Uiso   1.00
C443   C     0.30800   0.66600   0.44940   0.01267  Uiso   1.00
C444   C     0.75140   0.16810   0.08539   0.01267  Uiso   1.00
C445   C     0.11320   0.21980   0.19660   0.01267  Uiso   1.00
C446   C     0.00000   0.43966   0.64160   0.01267  Uiso   1.00
C447   C     0.19740   0.79450   0.89769   0.01267  Uiso   1.00
C448   C     0.88680   0.10660   0.30340   0.01267  Uiso   1.00
C449   C     0.78020   0.89340   0.19660   0.01267  Uiso   1.00
C450   C     0.47120   0.28740   0.56932   0.01267  Uiso   1.00
C451   C     0.76940  -0.00000   0.51250   0.01267  Uiso   1.00
C452   C     0.23060   0.23060   0.51250   0.01267  Uiso   1.00
C453   C     0.69200   0.35800   0.05060   0.01267  Uiso   1.00
C454   C     0.80940   0.54180   0.43905   0.01267  Uiso   1.00
C455   C     0.17740   0.27460   0.65370   0.01267  Uiso   1.00
C456   C     0.28740   0.81620   0.06932   0.01267  Uiso   1.00
C457   C     0.41670   0.24860   0.41461   0.01267  Uiso   1.00
C458   C     0.14670   0.46900   0.95696   0.01267  Uiso   1.00
C459   C     0.10660   0.21980   0.69660   0.01267  Uiso   1.00
C460   C     0.46900   0.32230   0.45696   0.01267  Uiso   1.00
C461   C     0.86460   0.73130   0.67260   0.01267  Uiso   1.00
C462   C     0.89340   0.78020   0.19660   0.01267  Uiso   1.00
C463   C     0.79810   0.11660   0.86910   0.01267  Uiso   1.00
C464   C     0.32640   0.32640   0.97280   0.01267  Uiso   1.00
C465   C     0.90280   0.17740   0.15370   0.01267  Uiso   1.00
C466   C     0.83380   0.73340   0.85350   0.01267  Uiso   1.00
C467   C     0.18150   0.82420   0.37284   0.01267  Uiso   1.00
C468   C     0.62730   0.26720   0.97860   0.01267  Uiso   1.00
C469   C     0.80810   0.12490   0.82430   0.01267  Uiso   1.00
C470   C     0.13540   0.26870   0.17260   0.01267  Uiso   1.00
C471   C     0.00000   0.62310   0.31690   0.01267  Uiso   1.00
C472   C     0.54450   0.54450   0.89360   0.01267  Uiso   1.00
C473   C     0.72540   0.82260   0.15370   0.01267  Uiso   1.00
C474   C     0.53275   0.53275   0.69540   0.01267  Uiso   1.00
C475   C     0.10040   0.26660   0.64650   0.01267  Uiso   1.00
C476   C     0.45550   0.00000   0.89360   0.01267  Uiso   1.00
C477   C     0.31680   0.12490   0.32430   0.01267  Uiso   1.00
C478   C     0.76940   0.76940   0.01250   0.01267  Uiso   1.00
C479   C     0.78420   0.63910   0.34700   0.01267  Uiso   1.00
C480   C     0.72540   0.90280   0.65370   0.01267  Uiso   1.00
C481   C     0.36000   0.68800   0.00590   0.01267  Uiso   1.00
C482   C     0.79810   0.11660   0.63090   0.01267  Uiso   1.00
C483   C     0.83190   0.24860   0.58539   0.01267  Uiso   1.00
C484   C     0.78360   0.64770   0.85310   0.01267  Uiso   1.00
C485   C     0.45820   0.26760   0.43905   0.01267  Uiso   1.00
C486   C     0.86410   0.64770   0.35310   0.01267  Uiso   1.00
C487   C     0.21640   0.35230   0.35310   0.01267  Uiso   1.00
C488   C     0.52880   0.71260   0.06932   0.01267  Uiso   1.00
C489   C     0.63990   0.26720   0.47860   0.01267  Uiso   1.00
C490   C     0.67360   0.67360   0.47280   0.01267  Uiso   1.00
C491   C     0.56950   0.73470   0.40630   0.01267  Uiso   1.00
C492   C     0.00000   0.17885   0.47920   0.01267  Uiso   1.00
C493   C     0.78020   0.88680   0.69660   0.01267  Uiso   1.00
C494   C     0.13540   0.86670   0.67260   0.01267  Uiso   1.00
C495   C     0.58380   0.58380   0.79490   0.01267  Uiso   1.00
C496   C     0.31060   0.12390   0.87630   0.01267  Uiso   1.00
C497   C     0.81620   0.52880   0.93068   0.01267  Uiso   1.00
C498   C     0.58380   0.00000   0.20510   0.01267  Uiso   1.00
C499   C     0.88820   0.19690   0.83030   0.01267  Uiso   1.00
C500   C     0.75140   0.58330   0.91461   0.01267  Uiso   1.00
C501   C     0.00000   0.32640   0.47280   0.01267  Uiso   1.00
C502   C     0.64000   0.31200   0.99410   0.01267  Uiso   1.00
C503   C     0.12490   0.80810   0.67570   0.01267  Uiso   1.00
C504   C     0.56034   0.56034   0.85840   0.01267  Uiso   1.00
C505   C     0.79770   0.79770   0.07540   0.01267  Uiso   1.00
C506   C     0.41620   0.41620   0.20510   0.01267  Uiso   1.00
C507   C     0.26660   0.10040   0.64650   0.01267  Uiso   1.00
C508   C     0.47900   0.00000   0.66360   0.01267  Uiso   1.00
C509   C     0.18380   0.71260   0.56932   0.01267  Uiso   1.00
C510   C     0.32230   0.85330   0.54304   0.01267  Uiso   1.00
C511   C     0.47120   0.18380   0.06932   0.01267  Uiso   1.00
C512   C     0.10040   0.83380   0.14650   0.01267  Uiso   1.00
C513   C     0.19060   0.73240   0.06095   0.01267  Uiso   1.00
C514   C     0.81850   0.17580   0.62716   0.01267  Uiso   1.00
C515   C     0.19060   0.45820   0.93905   0.01267  Uiso   1.00
C516   C     0.26870   0.13330   0.67260   0.01267  Uiso   1.00
C517   C     0.88340   0.68150   0.86910   0.01267  Uiso   1.00
C518   C     0.14510   0.36090   0.34700   0.01267  Uiso   1.00
C519   C     0.34430   0.00000   0.42070   0.01267  Uiso   1.00
C520   C     0.73470   0.16520   0.59370   0.01267  Uiso   1.00
C521   C     0.17885  -0.00000   0.47920   0.01267  Uiso   1.00
C522   C     0.73185   0.73185   0.46430   0.01267  Uiso   1.00
C523   C     0.64200   0.33400   0.05060   0.01267  Uiso   1.00
C524   C     0.35800   0.69200   0.44940   0.01267  Uiso   1.00
C525   C     0.80310   0.11180   0.16970   0.01267  Uiso   1.00
C526   C     0.16470   0.16470   0.94780   0.01267  Uiso   1.00
C527   C     0.23630   0.75040   0.94676   0.01267  Uiso   1.00
C528   C     0.82260   0.09720   0.84630   0.01267  Uiso   1.00
C529   C     0.87610   0.18670   0.87630   0.01267  Uiso   1.00
C530   C     0.00000   0.73185   0.96430   0.01267  Uiso   1.00
C531   C     0.68320   0.80810   0.32430   0.01267  Uiso   1.00
C532   C     0.10660   0.21980   0.80340   0.01267  Uiso   1.00
C533   C     0.20230  -0.00000   0.42460   0.01267  Uiso   1.00
C534   C     0.64900   0.50370   0.44016   0.01267  Uiso   1.00
C535   C     0.62310   0.00000   0.18310   0.01267  Uiso   1.00
C536   C     0.88680   0.78020   0.80340   0.01267  Uiso   1.00
C537   C     0.26815   0.26815   0.53570   0.01267  Uiso   1.00
C538   C     0.54450   0.54450   0.60640   0.01267  Uiso   1.00
C539   C     0.49630   0.14530   0.44016   0.01267  Uiso   1.00
C540   C     0.83530  -0.00000   0.94780   0.01267  Uiso   1.00
C541   C     0.16620   0.26660   0.14650   0.01267  Uiso   1.00
C542   C     0.82420   0.18150   0.37284   0.01267  Uiso   1.00
C543   C     0.85330   0.53100   0.04304   0.01267  Uiso   1.00
C544   C     0.37270   0.73280   0.02140   0.01267  Uiso   1.00
C545   C     0.43966   0.00000   0.64160   0.01267  Uiso   1.00
C546   C     0.63990   0.37270   0.97860   0.01267  Uiso   1.00
C547   C     0.73470   0.56950   0.09370   0.01267  Uiso   1.00
C548   C     0.43966   0.43966   0.14160   0.01267  Uiso   1.00
C549   C     0.83380   0.10040   0.35350   0.01267  Uiso   1.00
C550   C     0.31680   0.19190   0.67570   0.01267  Uiso   1.00
C551   C     0.11660   0.31850   0.13090   0.01267  Uiso   1.00
C552   C     0.36090   0.14510   0.15300   0.01267  Uiso   1.00
C553   C     0.14530   0.64900   0.94016   0.01267  Uiso   1.00
C554   C     0.35230   0.13590   0.64690   0.01267  Uiso   1.00
C555   C     0.00000   0.23060   0.48750   0.01267  Uiso   1.00
C556   C     0.31850   0.11660   0.36910   0.01267  Uiso   1.00
C557   C     0.48590   0.23630   0.44676   0.01267  Uiso   1.00
C558   C     0.83190   0.58330   0.41461   0.01267  Uiso   1.00
C559   C     0.14670   0.67770   0.04304   0.01267  Uiso   1.00
C560   C     0.68320   0.87510   0.82430   0.01267  Uiso   1.00
C561   C     0.36000   0.67200   0.50590   0.01267  Uiso   1.00
C562   C     0.90280   0.72540   0.65370   0.01267  Uiso   1.00
C563   C     0.82115   0.00000   0.52080   0.01267  Uiso   1.00
C564   C     0.62310   0.62310   0.81690   0.01267  Uiso   1.00
C565   C     0.80260   0.20550   0.39769   0.01267  Uiso   1.00
C566   C     0.86670   0.13540   0.82740   0.01267  Uiso   1.00
C567   C     0.37270   0.63990   0.97860   0.01267  Uiso   1.00
C568   C     0.80260   0.20550   0.10231   0.01267  Uiso   1.00
C569   C     0.80940   0.26760   0.56095   0.01267  Uiso   1.00
C570   C     0.14670   0.67770   0.45696   0.01267  Uiso   1.00
C571   C     0.69130   0.80310   0.66970   0.01267  Uiso   1.00
C572   C     0.83190   0.58330   0.08539   0.01267  Uiso   1.00
C573   C     0.48590   0.23630   0.05324   0.01267  Uiso   1.00
C574   C     0.31850   0.11660   0.13090   0.01267  Uiso   1.00
C575   C     0.00000   0.23060   0.01250   0.01267  Uiso   1.00
C576   C     0.36090   0.14510   0.34700   0.01267  Uiso   1.00
C577   C     0.11660   0.31850   0.36910   0.01267  Uiso   1.00
C578   C     0.38860   0.38860   0.15130   0.01267  Uiso   1.00
C579   C     0.83380   0.10040   0.14650   0.01267  Uiso   1.00
C580   C     0.37690   0.00000   0.81690   0.01267  Uiso   1.00
C581   C     0.73240   0.54180   0.56095   0.01267  Uiso   1.00
C582   C     0.34430   0.00000   0.07930   0.01267  Uiso   1.00
C583   C     0.14510   0.36090   0.15300   0.01267  Uiso   1.00
C584   C     0.43966   0.43966   0.35840   0.01267  Uiso   1.00
C585   C     0.73470   0.56950   0.40630   0.01267  Uiso   1.00
C586   C     0.83480   0.56950   0.90630   0.01267  Uiso   1.00
C587   C     0.37270   0.73280   0.47860   0.01267  Uiso   1.00
C588   C     0.85330   0.53100   0.45696   0.01267  Uiso   1.00
C589   C     0.67770   0.53100   0.95696   0.01267  Uiso   1.00
C590   C     0.82420   0.18150   0.12716   0.01267  Uiso   1.00
C591   C     0.16620   0.26660   0.35350   0.01267  Uiso   1.00
C592   C     0.49630   0.14530   0.05984   0.01267  Uiso   1.00
C593   C     0.62310   0.00000   0.31690   0.01267  Uiso   1.00
C594   C     0.64900   0.50370   0.05984   0.01267  Uiso   1.00
C595   C     0.20230  -0.00000   0.07540   0.01267  Uiso   1.00
C596   C     0.35230   0.13590   0.85310   0.01267  Uiso   1.00
C597   C     0.24860   0.83190   0.91461   0.01267  Uiso   1.00
C598   C     0.89960   0.16620   0.64650   0.01267  Uiso   1.00
C599   C     0.75140   0.58330   0.58539   0.01267  Uiso   1.00
C600   C     0.86410   0.21640   0.85310   0.01267  Uiso   1.00
C601   C     0.68320   0.80810   0.17570   0.01267  Uiso   1.00
C602   C     0.19060   0.45820   0.56095   0.01267  Uiso   1.00
C603   C     0.80310   0.11180   0.33030   0.01267  Uiso   1.00
C604   C     0.35800   0.69200   0.05060   0.01267  Uiso   1.00
C605   C     0.20190   0.31850   0.63090   0.01267  Uiso   1.00
C606   C     0.52100   0.52100   0.66360   0.01267  Uiso   1.00
C607   C     0.00000   0.47900   0.83640   0.01267  Uiso   1.00
C608   C     0.80260   0.59710   0.89769   0.01267  Uiso   1.00
C609   C     0.35730   0.18150   0.87284   0.01267  Uiso   1.00
C610   C     0.19060   0.73240   0.43905   0.01267  Uiso   1.00
C611   C     0.10040   0.83380   0.35350   0.01267  Uiso   1.00
C612   C     0.47120   0.18380   0.43068   0.01267  Uiso   1.00
C613   C     0.37270   0.63990   0.52140   0.01267  Uiso   1.00
C614   C     0.49630   0.35100   0.94016   0.01267  Uiso   1.00
C615   C     0.79810   0.68150   0.36910   0.01267  Uiso   1.00
C616   C     0.41620   0.41620   0.29490   0.01267  Uiso   1.00
C617   C     0.79770   0.79770   0.42460   0.01267  Uiso   1.00
C618   C     0.00000   0.32640   0.02720   0.01267  Uiso   1.00
C619   C     0.86670   0.13540   0.67260   0.01267  Uiso   1.00
C620   C     0.83190   0.24860   0.91461   0.01267  Uiso   1.00
C621   C     0.87510   0.68320   0.82430   0.01267  Uiso   1.00
C622   C     0.30800   0.64200   0.55060   0.01267  Uiso   1.00
C623   C     0.21980   0.10660   0.69660   0.01267  Uiso   1.00
C624   C     0.00000   0.17885   0.02080   0.01267  Uiso   1.00
C625   C     0.89960   0.73340   0.14650   0.01267  Uiso   1.00
C626   C     0.17580   0.81850   0.62716   0.01267  Uiso   1.00
C627   C     0.67360   0.67360   0.02720   0.01267  Uiso   1.00
C628   C     0.38860  -0.00000   0.65130   0.01267  Uiso   1.00
C629   C     0.52880   0.71260   0.43068   0.01267  Uiso   1.00
C630   C     0.21640   0.35230   0.14690   0.01267  Uiso   1.00
C631   C     0.86410   0.64770   0.14690   0.01267  Uiso   1.00
C632   C     0.45820   0.26760   0.06095   0.01267  Uiso   1.00
C633   C     0.40290   0.20550   0.89769   0.01267  Uiso   1.00
C634   C     0.11180   0.30870   0.66970   0.01267  Uiso   1.00
C635   C     0.64900   0.14530   0.94016   0.01267  Uiso   1.00
C636   C     0.78420   0.63910   0.15300   0.01267  Uiso   1.00
C637   C     0.00000   0.76940   0.98750   0.01267  Uiso   1.00
C638   C     0.59710   0.80260   0.60231   0.01267  Uiso   1.00
C639   C     0.00000   0.45550   0.60640   0.01267  Uiso   1.00
C640   C     0.13540   0.86670   0.82740   0.01267  Uiso   1.00
C641   C     0.73185   0.00000   0.96430   0.01267  Uiso   1.00
C642   C     0.14510   0.78420   0.65300   0.01267  Uiso   1.00
C643   C     0.00000   0.67360   0.52720   0.01267  Uiso   1.00
C644   C     0.89340   0.11320   0.69660   0.01267  Uiso   1.00
C645   C     0.72540   0.82260   0.34630   0.01267  Uiso   1.00
C646   C     0.58380   0.58380   0.70510   0.01267  Uiso   1.00
C647   C     0.13540   0.26870   0.32740   0.01267  Uiso   1.00
C648   C     0.66600   0.35800   0.55060   0.01267  Uiso   1.00
C649   C     0.00000   0.37690   0.81690   0.01267  Uiso   1.00
C650   C     0.18150   0.82420   0.12716   0.01267  Uiso   1.00
C651   C     0.90280   0.17740   0.34630   0.01267  Uiso   1.00
C652   C     0.17885   0.17885   0.52080   0.01267  Uiso   1.00
C653   C     0.71260   0.18380   0.56932   0.01267  Uiso   1.00
C654   C     0.89340   0.78020   0.30340   0.01267  Uiso   1.00
C655   C     0.20230   0.20230   0.92460   0.01267  Uiso   1.00
C656   C     0.33400   0.69200   0.55060   0.01267  Uiso   1.00
C657   C     0.85490   0.63910   0.84700   0.01267  Uiso   1.00
C658   C     0.00000   0.67360   0.97280   0.01267  Uiso   1.00
C659   C     0.46900   0.32230   0.04304   0.01267  Uiso   1.00
C660   C     0.41670   0.24860   0.08539   0.01267  Uiso   1.00
C661   C     0.20550   0.40290   0.89769   0.01267  Uiso   1.00
C662   C     0.30870   0.11180   0.83030   0.01267  Uiso   1.00
C663   C     0.80940   0.54180   0.06095   0.01267  Uiso   1.00
C664   C     0.20190   0.31850   0.86910   0.01267  Uiso   1.00
C665   C     0.69200   0.35800   0.44940   0.01267  Uiso   1.00
C666   C     0.78020   0.89340   0.30340   0.01267  Uiso   1.00
C667   C     0.80310   0.69130   0.83030   0.01267  Uiso   1.00
C668   C     0.88680   0.10660   0.19660   0.01267  Uiso   1.00
C669   C     0.67770   0.53100   0.54304   0.01267  Uiso   1.00
C670   C     0.81330   0.68940   0.62370   0.01267  Uiso   1.00
C671   C     0.11320   0.21980   0.30340   0.01267  Uiso   1.00
C672   C     0.00000   0.73185   0.53570   0.01267  Uiso   1.00
C673   C     0.00000   0.74600   0.56710   0.01267  Uiso   1.00
C674   C     0.75140   0.16810   0.41461   0.01267  Uiso   1.00
C675   C     0.30800   0.66600   0.05060   0.01267  Uiso   1.00
C676   C     0.89960   0.16620   0.85350   0.01267  Uiso   1.00
C677   C     0.10660   0.88680   0.30340   0.01267  Uiso   1.00
C678   C     0.25400   0.25400   0.56710   0.01267  Uiso   1.00
C679   C     0.69130   0.88820   0.33030   0.01267  Uiso   1.00
C680   C     0.74600  -0.00000   0.56710   0.01267  Uiso   1.00
C681   C     0.87610   0.68940   0.37630   0.01267  Uiso   1.00
C682   C     0.24960   0.76370   0.44676   0.01267  Uiso   1.00
C683   C     0.73130   0.86670   0.32740   0.01267  Uiso   1.00
C684   C     0.26760   0.80940   0.56095   0.01267  Uiso   1.00
C685   C     0.54180   0.73240   0.93905   0.01267  Uiso   1.00
C686   C     0.00000   0.62310   0.18310   0.01267  Uiso   1.00
C687   C     0.86670   0.73130   0.17260   0.01267  Uiso   1.00
C688   C     0.68800   0.36000   0.00590   0.01267  Uiso   1.00
C689   C     0.47900   0.47900   0.16360   0.01267  Uiso   1.00
C690   C     0.63990   0.26720   0.02140   0.01267  Uiso   1.00
C691   C     0.26660   0.10040   0.85350   0.01267  Uiso   1.00
C692   C     0.26760   0.45820   0.06095   0.01267  Uiso   1.00
C693   C     0.13330   0.86460   0.17260   0.01267  Uiso   1.00
C694   C     0.67360  -0.00000   0.52720   0.01267  Uiso   1.00
C695   C     0.52880   0.81620   0.93068   0.01267  Uiso   1.00
C696   C     0.16470   0.00000   0.05220   0.01267  Uiso   1.00
C697   C     0.21640   0.86410   0.85310   0.01267  Uiso   1.00
C698   C     0.73240   0.19060   0.43905   0.01267  Uiso   1.00
C699   C     0.53100   0.67770   0.95696   0.01267  Uiso   1.00
C700   C     0.40290   0.19740   0.39769   0.01267  Uiso   1.00
C701   C     0.14670   0.46900   0.54304   0.01267  Uiso   1.00
C702   C     0.26870   0.13540   0.32740   0.01267  Uiso   1.00
C703   C     0.79770   0.00000   0.92460   0.01267  Uiso   1.00
C704   C     0.00000   0.61140   0.34870   0.01267  Uiso   1.00
C705   C     0.68800   0.32800   0.99410   0.01267  Uiso   1.00
C706   C     0.18670   0.87610   0.62370   0.01267  Uiso   1.00
C707   C     0.00000   0.20230   0.07540   0.01267  Uiso   1.00
C708   C     0.11180   0.80310   0.33030   0.01267  Uiso   1.00
N1     N     0.65920   0.33350   0.47780   0.01267  Uiso   1.00
N2     N     0.32570   0.66650   0.02220   0.01267  Uiso   1.00
N3     N     0.34080   0.66650   0.52220   0.01267  Uiso   1.00
N4     N     0.65920   0.32570   0.97780   0.01267  Uiso   1.00
N5     N     0.66650   0.34080   0.52220   0.01267  Uiso   1.00
N6     N     0.67430   0.33350   0.52220   0.01267  Uiso   1.00
N7     N     0.67430   0.33350   0.97780   0.01267  Uiso   1.00
N8     N     0.34080   0.66650   0.97780   0.01267  Uiso   1.00
N9     N     0.67430   0.34080   0.02220   0.01267  Uiso   1.00
N10    N     0.65920   0.33350   0.02220   0.01267  Uiso   1.00
N11    N     0.33350   0.67430   0.97780   0.01267  Uiso   1.00
N12    N     0.65920   0.32570   0.52220   0.01267  Uiso   1.00
N13    N     0.32570   0.66650   0.47780   0.01267  Uiso   1.00
N14    N     0.32570   0.65920   0.52220   0.01267  Uiso   1.00
N15    N     0.66650   0.34080   0.97780   0.01267  Uiso   1.00
N16    N     0.33350   0.65920   0.47780   0.01267  Uiso   1.00
N17    N     0.34080   0.67430   0.02220   0.01267  Uiso   1.00
N18    N     0.66650   0.32570   0.02220   0.01267  Uiso   1.00
N19    N     0.32570   0.65920   0.97780   0.01267  Uiso   1.00
N20    N     0.33350   0.67430   0.52220   0.01267  Uiso   1.00
N21    N     0.66650   0.32570   0.47780   0.01267  Uiso   1.00
N22    N     0.34080   0.67430   0.47780   0.01267  Uiso   1.00
N23    N     0.33350   0.65920   0.02220   0.01267  Uiso   1.00
N24    N     0.67430   0.34080   0.47780   0.01267  Uiso   1.00
O1     O     0.21890   0.15090   0.21530   0.01267  Uiso   1.00
O2     O     0.62828   0.46239   0.45999   0.01267  Uiso   1.00
O3     O     0.94475   0.40592   0.48998   0.01267  Uiso   1.00
O4     O     0.47410  -0.00000   0.10580   0.01267  Uiso   1.00
O5     O     0.09490   0.47390   0.07254   0.01267  Uiso   1.00
O6     O     0.52590   0.52590   0.10580   0.01267  Uiso   1.00
O7     O     0.41830   0.41830   0.08750   0.01267  Uiso   1.00
O8     O     0.91840   0.00000   0.30010   0.01267  Uiso   1.00
O9     O     0.94474   0.45645   0.95886   0.01267  Uiso   1.00
O10    O     0.08160   0.08160   0.19990   0.01267  Uiso   1.00
O11    O     0.62828   0.16589   0.95999   0.01267  Uiso   1.00
O12    O     0.49610  -0.00000   0.10100   0.01267  Uiso   1.00
O13    O     0.05560   0.93710   0.75000   0.01267  Uiso   1.00
O14    O     0.14580   0.93080   0.28800   0.01267  Uiso   1.00
O15    O     0.38300   0.76300   0.00220   0.01267  Uiso   1.00
O16    O     0.62100   0.52610   0.42746   0.01267  Uiso   1.00
O17    O     0.00000   0.62120   0.89900   0.01267  Uiso   1.00
O18    O     0.62120  -0.00000   0.60100   0.01267  Uiso   1.00
O19    O     0.02730   0.96840   0.65000   0.01267  Uiso   1.00
O20    O     0.94474   0.48829   0.04114   0.01267  Uiso   1.00
O21    O     0.88070   0.05710   0.18990   0.01267  Uiso   1.00
O22    O     0.21500   0.14580   0.78800   0.01267  Uiso   1.00
O23    O     0.51660   0.34958   0.47254   0.01267  Uiso   1.00
O24    O     0.00000   0.49610   0.10100   0.01267  Uiso   1.00
O25    O     0.05890   0.02730   0.35000   0.01267  Uiso   1.00
O26    O     0.06920   0.21500   0.28800   0.01267  Uiso   1.00
O27    O     0.48829   0.54355   0.95886   0.01267  Uiso   1.00
O28    O     0.05525   0.59408   0.51002   0.01267  Uiso   1.00
O29    O     0.62000   0.38300   0.99780   0.01267  Uiso   1.00
O30    O     0.48829   0.94474   0.45886   0.01267  Uiso   1.00
O31    O     0.92590   0.92590   0.34300   0.01267  Uiso   1.00
O32    O     0.94474   0.45645   0.54114   0.01267  Uiso   1.00
O33    O     0.16589   0.62828   0.95999   0.01267  Uiso   1.00
O34    O     0.59408   0.05525   0.51002   0.01267  Uiso   1.00
O35    O     0.05890   0.03160   0.65000   0.01267  Uiso   1.00
O36    O     0.93200   0.15090   0.71530   0.01267  Uiso   1.00
O37    O     0.00000   0.33530   0.99770   0.01267  Uiso   1.00
O38    O     0.88070   0.82360   0.68990   0.01267  Uiso   1.00
O39    O     0.16702   0.51660   0.52746   0.01267  Uiso   1.00
O40    O     0.00000   0.07410   0.34300   0.01267  Uiso   1.00
O41    O     0.23700   0.62000   0.00220   0.01267  Uiso   1.00
O42    O     0.09490   0.62100   0.92746   0.01267  Uiso   1.00
O43    O     0.12260   0.18180   0.80540   0.01267  Uiso   1.00
O44    O     0.05525   0.46117   0.01002   0.01267  Uiso   1.00
O45    O     0.59408   0.53883   0.01002   0.01267  Uiso   1.00
O46    O     0.83298   0.48340   0.02746   0.01267  Uiso   1.00
O47    O     0.83298   0.34958   0.97254   0.01267  Uiso   1.00
O48    O     0.45645   0.51171   0.45886   0.01267  Uiso   1.00
O49    O     0.09330   0.42920   0.54524   0.01267  Uiso   1.00
O50    O     0.94080   0.12260   0.19460   0.01267  Uiso   1.00
O51    O     0.33530   0.33530   0.49770   0.01267  Uiso   1.00
O52    O     0.33530  -0.00000   0.50230   0.01267  Uiso   1.00
O53    O     0.42920   0.09330   0.54524   0.01267  Uiso   1.00
O54    O     0.05525   0.59408   0.98998   0.01267  Uiso   1.00
O55    O     0.00000   0.59940   0.41250   0.01267  Uiso   1.00
O56    O     0.66410   0.57080   0.95476   0.01267  Uiso   1.00
O57    O     0.07410   0.07410   0.65700   0.01267  Uiso   1.00
O58    O     0.97270   0.94110   0.85000   0.01267  Uiso   1.00
O59    O     0.90510   0.52610   0.92746   0.01267  Uiso   1.00
O60    O     0.06290   0.11850   0.75000   0.01267  Uiso   1.00
O61    O     0.00000   0.33530   0.50230   0.01267  Uiso   1.00
O62    O     0.59408   0.05525   0.98998   0.01267  Uiso   1.00
O63    O     0.00000   0.40060   0.91250   0.01267  Uiso   1.00
O64    O     0.34958   0.51660   0.02746   0.01267  Uiso   1.00
O65    O     0.32820   0.32820   0.48320   0.01267  Uiso   1.00
O66    O     0.90670   0.33590   0.95476   0.01267  Uiso   1.00
O67    O     0.09330   0.42920   0.95476   0.01267  Uiso   1.00
O68    O     0.85420   0.06920   0.78800   0.01267  Uiso   1.00
O69    O     0.90670   0.57080   0.04524   0.01267  Uiso   1.00
O70    O     0.06800   0.84910   0.28470   0.01267  Uiso   1.00
O71    O     0.05526   0.54355   0.04114   0.01267  Uiso   1.00
O72    O     0.05710   0.88070   0.31010   0.01267  Uiso   1.00
O73    O     0.93200   0.78110   0.28470   0.01267  Uiso   1.00
O74    O     0.85420   0.78500   0.21200   0.01267  Uiso   1.00
O75    O     0.00000   0.00000   0.78120   0.01267  Uiso   1.00
O76    O     0.08160   0.00000   0.69990   0.01267  Uiso   1.00
O77    O     0.62120   0.62120   0.39900   0.01267  Uiso   1.00
O78    O     0.57080   0.90670   0.04524   0.01267  Uiso   1.00
O79    O     0.05890   0.03160   0.85000   0.01267  Uiso   1.00
O80    O     0.00000   0.67180   0.48320   0.01267  Uiso   1.00
O81    O     0.81820   0.94080   0.80540   0.01267  Uiso   1.00
O82    O     0.48340   0.65042   0.97254   0.01267  Uiso   1.00
O83    O     0.90510   0.37900   0.42746   0.01267  Uiso   1.00
O84    O     0.00000   0.66470   0.00230   0.01267  Uiso   1.00
O85    O     0.62000   0.23700   0.00220   0.01267  Uiso   1.00
O86    O     0.00000   0.50390   0.60100   0.01267  Uiso   1.00
O87    O     0.37880   0.37880   0.60100   0.01267  Uiso   1.00
O88    O     0.38000   0.76300   0.50220   0.01267  Uiso   1.00
O89    O     0.18180   0.05920   0.30540   0.01267  Uiso   1.00
O90    O     0.15090   0.21890   0.21530   0.01267  Uiso   1.00
O91    O     0.81820   0.87740   0.30540   0.01267  Uiso   1.00
O92    O     0.11930   0.17640   0.31010   0.01267  Uiso   1.00
O93    O     0.53883   0.59408   0.01002   0.01267  Uiso   1.00
O94    O     0.85420   0.78500   0.28800   0.01267  Uiso   1.00
O95    O     0.66410   0.57080   0.54524   0.01267  Uiso   1.00
O96    O     0.00000   0.91840   0.30010   0.01267  Uiso   1.00
O97    O     0.09330   0.66410   0.04524   0.01267  Uiso   1.00
O98    O     0.37880   0.37880   0.89900   0.01267  Uiso   1.00
O99    O     0.83411   0.46239   0.54001   0.01267  Uiso   1.00
O100   O     0.83411   0.37172   0.04001   0.01267  Uiso   1.00
O101   O     0.18180   0.12260   0.69460   0.01267  Uiso   1.00
O102   O     0.40060   0.00000   0.91250   0.01267  Uiso   1.00
O103   O     0.15090   0.93200   0.78470   0.01267  Uiso   1.00
O104   O     0.05710   0.17640   0.68990   0.01267  Uiso   1.00
O105   O     0.62000   0.38300   0.50220   0.01267  Uiso   1.00
O106   O     0.65042   0.48340   0.97254   0.01267  Uiso   1.00
O107   O     0.59940   0.59940   0.91250   0.01267  Uiso   1.00
O108   O     0.88070   0.82360   0.81010   0.01267  Uiso   1.00
O109   O     0.17640   0.05710   0.81010   0.01267  Uiso   1.00
O110   O     0.66470   0.66470   0.99770   0.01267  Uiso   1.00
O111   O     0.00000   0.00000   0.21880   0.01267  Uiso   1.00
O112   O     0.91840   0.91840   0.80010   0.01267  Uiso   1.00
O113   O     0.94290   0.82360   0.31010   0.01267  Uiso   1.00
O114   O     0.78500   0.93080   0.71200   0.01267  Uiso   1.00
O115   O     0.48340   0.83298   0.02746   0.01267  Uiso   1.00
O116   O     0.00000   0.47410   0.39420   0.01267  Uiso   1.00
O117   O     0.37900   0.90510   0.07254   0.01267  Uiso   1.00
O118   O     0.37172   0.83411   0.45999   0.01267  Uiso   1.00
O119   O     0.83298   0.34958   0.52746   0.01267  Uiso   1.00
O120   O     0.97270   0.94110   0.65000   0.01267  Uiso   1.00
O121   O     0.37172   0.83411   0.04001   0.01267  Uiso   1.00
O122   O     0.62100   0.09490   0.92746   0.01267  Uiso   1.00
O123   O     0.76300   0.38300   0.49780   0.01267  Uiso   1.00
O124   O     0.91840   0.91840   0.69990   0.01267  Uiso   1.00
O125   O     0.37900   0.90510   0.42746   0.01267  Uiso   1.00
O126   O     0.00000   0.47410   0.10580   0.01267  Uiso   1.00
O127   O     0.48340   0.83298   0.47254   0.01267  Uiso   1.00
O128   O     0.84910   0.78110   0.78470   0.01267  Uiso   1.00
O129   O     0.34958   0.83298   0.52746   0.01267  Uiso   1.00
O130   O     0.14580   0.93080   0.21200   0.01267  Uiso   1.00
O131   O     0.84910   0.06800   0.28470   0.01267  Uiso   1.00
O132   O     0.00000   0.66470   0.49770   0.01267  Uiso   1.00
O133   O     0.94290   0.82360   0.18990   0.01267  Uiso   1.00
O134   O     0.00000   0.00000   0.28120   0.01267  Uiso   1.00
O135   O     0.78110   0.84910   0.78470   0.01267  Uiso   1.00
O136   O     0.21890   0.06800   0.71530   0.01267  Uiso   1.00
O137   O     0.49610   0.49610   0.60100   0.01267  Uiso   1.00
O138   O     0.53761   0.37172   0.54001   0.01267  Uiso   1.00
O139   O     0.87740   0.05920   0.69460   0.01267  Uiso   1.00
O140   O     0.37900   0.47390   0.57254   0.01267  Uiso   1.00
O141   O     0.76300   0.38000   0.50220   0.01267  Uiso   1.00
O142   O     0.17640   0.11930   0.31010   0.01267  Uiso   1.00
O143   O     0.83411   0.37172   0.45999   0.01267  Uiso   1.00
O144   O     0.06800   0.21890   0.71530   0.01267  Uiso   1.00
O145   O     0.09330   0.66410   0.45476   0.01267  Uiso   1.00
O146   O     0.00000   0.91840   0.19990   0.01267  Uiso   1.00
O147   O     0.53883   0.59408   0.48998   0.01267  Uiso   1.00
O148   O     0.53761   0.37172   0.95999   0.01267  Uiso   1.00
O149   O     0.11930   0.17640   0.18990   0.01267  Uiso   1.00
O150   O     0.57080   0.90670   0.45476   0.01267  Uiso   1.00
O151   O     0.81820   0.87740   0.19460   0.01267  Uiso   1.00
O152   O     0.15090   0.21890   0.28470   0.01267  Uiso   1.00
O153   O     0.18180   0.05920   0.19460   0.01267  Uiso   1.00
O154   O     0.47410   0.47410   0.89420   0.01267  Uiso   1.00
O155   O     0.94080   0.81820   0.80540   0.01267  Uiso   1.00
O156   O     0.96840   0.02730   0.85000   0.01267  Uiso   1.00
O157   O     0.62000   0.23700   0.49780   0.01267  Uiso   1.00
O158   O     0.53761   0.16589   0.45999   0.01267  Uiso   1.00
O159   O     0.90510   0.37900   0.07254   0.01267  Uiso   1.00
O160   O     0.64440  -0.00000   0.94930   0.01267  Uiso   1.00
O161   O     0.00000   0.67180   0.01680   0.01267  Uiso   1.00
O162   O     0.06290   0.94440   0.25000   0.01267  Uiso   1.00
O163   O     0.62120   0.62120   0.10100   0.01267  Uiso   1.00
O164   O     0.92590   0.00000   0.65700   0.01267  Uiso   1.00
O165   O     0.64440  -0.00000   0.55070   0.01267  Uiso   1.00
O166   O     0.00000   0.41830   0.58750   0.01267  Uiso   1.00
O167   O     0.00000   0.59940   0.08750   0.01267  Uiso   1.00
O168   O     0.58170   0.58170   0.91250   0.01267  Uiso   1.00
O169   O     0.93200   0.78110   0.21530   0.01267  Uiso   1.00
O170   O     0.46239   0.83411   0.95999   0.01267  Uiso   1.00
O171   O     0.05710   0.88070   0.18990   0.01267  Uiso   1.00
O172   O     0.05526   0.54355   0.45886   0.01267  Uiso   1.00
O173   O     0.61700   0.23700   0.99780   0.01267  Uiso   1.00
O174   O     0.16702   0.51660   0.97254   0.01267  Uiso   1.00
O175   O     0.05890   0.02730   0.15000   0.01267  Uiso   1.00
O176   O     0.06800   0.84910   0.21530   0.01267  Uiso   1.00
O177   O     0.90670   0.57080   0.45476   0.01267  Uiso   1.00
O178   O     0.52590   0.52590   0.39420   0.01267  Uiso   1.00
O179   O     0.58170   0.58170   0.58750   0.01267  Uiso   1.00
O180   O     0.00000   0.64440   0.94930   0.01267  Uiso   1.00
O181   O     0.34958   0.51660   0.47254   0.01267  Uiso   1.00
O182   O     0.05560   0.11850   0.25000   0.01267  Uiso   1.00
O183   O     0.05525   0.46117   0.48998   0.01267  Uiso   1.00
O184   O     0.51171   0.05526   0.95886   0.01267  Uiso   1.00
O185   O     0.11930   0.94290   0.68990   0.01267  Uiso   1.00
O186   O     0.40592   0.46117   0.51002   0.01267  Uiso   1.00
O187   O     0.62828   0.16589   0.54001   0.01267  Uiso   1.00
O188   O     0.33590   0.42920   0.45476   0.01267  Uiso   1.00
O189   O     0.33530   0.33530   0.00230   0.01267  Uiso   1.00
O190   O     0.94080   0.12260   0.30540   0.01267  Uiso   1.00
O191   O     0.46239   0.83411   0.54001   0.01267  Uiso   1.00
O192   O     0.06920   0.85420   0.71200   0.01267  Uiso   1.00
O193   O     0.85420   0.06920   0.71200   0.01267  Uiso   1.00
O194   O     0.50390  -0.00000   0.89900   0.01267  Uiso   1.00
O195   O     0.96840   0.94110   0.35000   0.01267  Uiso   1.00
O196   O     0.33590   0.90670   0.54524   0.01267  Uiso   1.00
O197   O     0.45645   0.51171   0.04114   0.01267  Uiso   1.00
O198   O     0.40060   0.00000   0.58750   0.01267  Uiso   1.00
O199   O     0.83298   0.48340   0.47254   0.01267  Uiso   1.00
O200   O     0.59408   0.53883   0.48998   0.01267  Uiso   1.00
O201   O     0.65042   0.48340   0.52746   0.01267  Uiso   1.00
O202   O     0.23700   0.62000   0.49780   0.01267  Uiso   1.00
O203   O     0.93080   0.78500   0.71200   0.01267  Uiso   1.00
O204   O     0.00000   0.07410   0.15700   0.01267  Uiso   1.00
O205   O     0.54355   0.48829   0.54114   0.01267  Uiso   1.00
O206   O     0.46239   0.62828   0.45999   0.01267  Uiso   1.00
O207   O     0.62100   0.09490   0.57254   0.01267  Uiso   1.00
O208   O     0.53883   0.94475   0.98998   0.01267  Uiso   1.00
O209   O     0.92590   0.92590   0.15700   0.01267  Uiso   1.00
O210   O     0.48829   0.94474   0.04114   0.01267  Uiso   1.00
O211   O     0.00000   0.62120   0.60100   0.01267  Uiso   1.00
O212   O     0.42920   0.09330   0.95476   0.01267  Uiso   1.00
O213   O     0.45645   0.94474   0.95886   0.01267  Uiso   1.00
O214   O     0.67180   0.67180   0.51680   0.01267  Uiso   1.00
O215   O     0.00000   0.40060   0.58750   0.01267  Uiso   1.00
O216   O     0.52610   0.90510   0.57254   0.01267  Uiso   1.00
O217   O     0.06920   0.21500   0.21200   0.01267  Uiso   1.00
O218   O     0.00000   0.49610   0.39900   0.01267  Uiso   1.00
O219   O     0.03160   0.05890   0.85000   0.01267  Uiso   1.00
O220   O     0.51660   0.34958   0.02746   0.01267  Uiso   1.00
O221   O     0.37172   0.53761   0.54001   0.01267  Uiso   1.00
O222   O     0.51171   0.05526   0.54114   0.01267  Uiso   1.00
O223   O     0.88070   0.05710   0.31010   0.01267  Uiso   1.00
O224   O     0.94474   0.48829   0.45886   0.01267  Uiso   1.00
O225   O     0.46239   0.62828   0.04001   0.01267  Uiso   1.00
O226   O     0.62100   0.52610   0.07254   0.01267  Uiso   1.00
O227   O     0.38300   0.76300   0.49780   0.01267  Uiso   1.00
O228   O     0.59940   0.59940   0.58750   0.01267  Uiso   1.00
O229   O     0.14580   0.21500   0.71200   0.01267  Uiso   1.00
O230   O     0.23700   0.61700   0.50220   0.01267  Uiso   1.00
O231   O     0.00000   0.52590   0.60580   0.01267  Uiso   1.00
O232   O     0.49610  -0.00000   0.39900   0.01267  Uiso   1.00
O233   O     0.94110   0.97270   0.65000   0.01267  Uiso   1.00
O234   O     0.00000   0.64440   0.55070   0.01267  Uiso   1.00
O235   O     0.08160   0.08160   0.30010   0.01267  Uiso   1.00
O236   O     0.00000   0.32820   0.98320   0.01267  Uiso   1.00
O237   O     0.61700   0.23700   0.50220   0.01267  Uiso   1.00
O238   O     0.91840   0.00000   0.19990   0.01267  Uiso   1.00
O239   O     0.41830   0.41830   0.41250   0.01267  Uiso   1.00
O240   O     0.66470   0.66470   0.50230   0.01267  Uiso   1.00
O241   O     0.38000   0.76300   0.99780   0.01267  Uiso   1.00
O242   O     0.81820   0.94080   0.69460   0.01267  Uiso   1.00
O243   O     0.09490   0.47390   0.42746   0.01267  Uiso   1.00
O244   O     0.52590  -0.00000   0.89420   0.01267  Uiso   1.00
O245   O     0.47410  -0.00000   0.39420   0.01267  Uiso   1.00
O246   O     0.94475   0.40592   0.01002   0.01267  Uiso   1.00
O247   O     0.62828   0.46239   0.04001   0.01267  Uiso   1.00
O248   O     0.21890   0.15090   0.28470   0.01267  Uiso   1.00
O249   O     0.92590   0.00000   0.84300   0.01267  Uiso   1.00
O250   O     0.54355   0.48829   0.95886   0.01267  Uiso   1.00
O251   O     0.05920   0.87740   0.69460   0.01267  Uiso   1.00
O252   O     0.94080   0.81820   0.69460   0.01267  Uiso   1.00
O253   O     0.12260   0.94080   0.19460   0.01267  Uiso   1.00
O254   O     0.64440   0.64440   0.05070   0.01267  Uiso   1.00
O255   O     0.17640   0.05710   0.68990   0.01267  Uiso   1.00
O256   O     0.97270   0.03160   0.35000   0.01267  Uiso   1.00
O257   O     0.41830   0.00000   0.91250   0.01267  Uiso   1.00
O258   O     0.15090   0.93200   0.71530   0.01267  Uiso   1.00
O259   O     0.05920   0.87740   0.80540   0.01267  Uiso   1.00
O260   O     0.45645   0.94474   0.54114   0.01267  Uiso   1.00
O261   O     0.32820   0.00000   0.51680   0.01267  Uiso   1.00
O262   O     0.00000   0.37880   0.10100   0.01267  Uiso   1.00
O263   O     0.00000   0.32820   0.51680   0.01267  Uiso   1.00
O264   O     0.66470  -0.00000   0.49770   0.01267  Uiso   1.00
O265   O     0.02730   0.96840   0.85000   0.01267  Uiso   1.00
O266   O     0.46117   0.40592   0.51002   0.01267  Uiso   1.00
O267   O     0.00000   0.58170   0.08750   0.01267  Uiso   1.00
O268   O     0.51171   0.45645   0.45886   0.01267  Uiso   1.00
O269   O     0.62120  -0.00000   0.89900   0.01267  Uiso   1.00
O270   O     0.78110   0.93200   0.28470   0.01267  Uiso   1.00
O271   O     0.88150   0.93710   0.25000   0.01267  Uiso   1.00
O272   O     0.21500   0.06920   0.21200   0.01267  Uiso   1.00
O273   O     0.87740   0.05920   0.80540   0.01267  Uiso   1.00
O274   O     0.50390   0.50390   0.39900   0.01267  Uiso   1.00
O275   O     0.87740   0.81820   0.30540   0.01267  Uiso   1.00
O276   O     0.82360   0.88070   0.81010   0.01267  Uiso   1.00
O277   O     0.93200   0.15090   0.78470   0.01267  Uiso   1.00
O278   O     0.05920   0.18180   0.30540   0.01267  Uiso   1.00
O279   O     0.07410   0.07410   0.84300   0.01267  Uiso   1.00
O280   O     0.37880  -0.00000   0.10100   0.01267  Uiso   1.00
O281   O     0.47390   0.37900   0.57254   0.01267  Uiso   1.00
O282   O     0.09490   0.62100   0.57254   0.01267  Uiso   1.00
O283   O     0.05710   0.17640   0.81010   0.01267  Uiso   1.00
O284   O     0.02730   0.05890   0.35000   0.01267  Uiso   1.00
O285   O     0.84910   0.06800   0.21530   0.01267  Uiso   1.00
O286   O     0.47390   0.09490   0.07254   0.01267  Uiso   1.00
O287   O     0.94110   0.96840   0.15000   0.01267  Uiso   1.00
O288   O     0.14580   0.21500   0.78800   0.01267  Uiso   1.00
O289   O     0.53883   0.94475   0.51002   0.01267  Uiso   1.00
O290   O     0.16589   0.62828   0.54001   0.01267  Uiso   1.00
O291   O     0.46117   0.05525   0.48998   0.01267  Uiso   1.00
O292   O     0.35560   0.00000   0.05070   0.01267  Uiso   1.00
O293   O     0.96840   0.94110   0.15000   0.01267  Uiso   1.00
O294   O     0.41830   0.00000   0.58750   0.01267  Uiso   1.00
O295   O     0.49610   0.49610   0.89900   0.01267  Uiso   1.00
O296   O     0.40592   0.94475   0.01002   0.01267  Uiso   1.00
O297   O     0.93080   0.14580   0.28800   0.01267  Uiso   1.00
O298   O     0.47410   0.47410   0.60580   0.01267  Uiso   1.00
O299   O     0.21500   0.14580   0.71200   0.01267  Uiso   1.00
O300   O     0.17640   0.11930   0.18990   0.01267  Uiso   1.00
O301   O     0.59940  -0.00000   0.08750   0.01267  Uiso   1.00
O302   O     0.90510   0.52610   0.57254   0.01267  Uiso   1.00
O303   O     0.00000   0.35560   0.05070   0.01267  Uiso   1.00
O304   O     0.84910   0.78110   0.71530   0.01267  Uiso   1.00
O305   O     0.58170  -0.00000   0.41250   0.01267  Uiso   1.00
O306   O     0.93710   0.05560   0.75000   0.01267  Uiso   1.00
O307   O     0.54355   0.05526   0.04114   0.01267  Uiso   1.00
O308   O     0.03160   0.97270   0.15000   0.01267  Uiso   1.00
O309   O     0.50390  -0.00000   0.60100   0.01267  Uiso   1.00
O310   O     0.33530  -0.00000   0.99770   0.01267  Uiso   1.00
O311   O     0.07410   0.00000   0.34300   0.01267  Uiso   1.00
O312   O     0.78110   0.84910   0.71530   0.01267  Uiso   1.00
O313   O     0.06800   0.21890   0.78470   0.01267  Uiso   1.00
O314   O     0.93080   0.78500   0.78800   0.01267  Uiso   1.00
O315   O     0.94110   0.97270   0.85000   0.01267  Uiso   1.00
O316   O     0.32820   0.32820   0.01680   0.01267  Uiso   1.00
O317   O     0.33590   0.42920   0.04524   0.01267  Uiso   1.00
O318   O     0.00000   0.41830   0.91250   0.01267  Uiso   1.00
O319   O     0.40060   0.40060   0.08750   0.01267  Uiso   1.00
O320   O     0.66410   0.09330   0.45476   0.01267  Uiso   1.00
O321   O     0.76300   0.38300   0.00220   0.01267  Uiso   1.00
O322   O     0.42920   0.33590   0.45476   0.01267  Uiso   1.00
O323   O     0.16589   0.53761   0.45999   0.01267  Uiso   1.00
O324   O     0.67180  -0.00000   0.01680   0.01267  Uiso   1.00
O325   O     0.94475   0.53883   0.98998   0.01267  Uiso   1.00
O326   O     0.48340   0.65042   0.52746   0.01267  Uiso   1.00
O327   O     0.38300   0.62000   0.50220   0.01267  Uiso   1.00
O328   O     0.40592   0.46117   0.98998   0.01267  Uiso   1.00
O329   O     0.93710   0.88150   0.25000   0.01267  Uiso   1.00
O330   O     0.00000   0.52590   0.89420   0.01267  Uiso   1.00
O331   O     0.52590  -0.00000   0.60580   0.01267  Uiso   1.00
O332   O     0.06920   0.85420   0.78800   0.01267  Uiso   1.00
O333   O     0.82360   0.94290   0.18990   0.01267  Uiso   1.00
O334   O     0.96840   0.02730   0.65000   0.01267  Uiso   1.00
O335   O     0.67180   0.67180   0.98320   0.01267  Uiso   1.00
O336   O     0.61700   0.38000   0.00220   0.01267  Uiso   1.00
O337   O     0.00000   0.92590   0.84300   0.01267  Uiso   1.00
O338   O     0.57080   0.66410   0.54524   0.01267  Uiso   1.00
O339   O     0.38000   0.61700   0.49780   0.01267  Uiso   1.00
O340   O     0.52610   0.62100   0.42746   0.01267  Uiso   1.00
O341   O     0.47390   0.37900   0.92746   0.01267  Uiso   1.00
O342   O     0.16702   0.65042   0.47254   0.01267  Uiso   1.00
O343   O     0.78500   0.85420   0.21200   0.01267  Uiso   1.00
O344   O     0.51660   0.16702   0.52746   0.01267  Uiso   1.00
O345   O     0.65042   0.16702   0.47254   0.01267  Uiso   1.00
O346   O     0.65042   0.16702   0.02746   0.01267  Uiso   1.00
O347   O     0.78500   0.85420   0.28800   0.01267  Uiso   1.00
O348   O     0.00000   0.08160   0.80010   0.01267  Uiso   1.00
O349   O     0.16702   0.65042   0.02746   0.01267  Uiso   1.00
O350   O     0.52610   0.90510   0.92746   0.01267  Uiso   1.00
O351   O     0.94440   0.88150   0.75000   0.01267  Uiso   1.00
O352   O     0.11850   0.05560   0.25000   0.01267  Uiso   1.00
O353   O     0.52610   0.62100   0.07254   0.01267  Uiso   1.00
O354   O     0.38000   0.61700   0.00220   0.01267  Uiso   1.00
O355   O     0.46117   0.40592   0.98998   0.01267  Uiso   1.00
O356   O     0.61700   0.38000   0.49780   0.01267  Uiso   1.00
O357   O     0.82360   0.94290   0.31010   0.01267  Uiso   1.00
O358   O     0.21890   0.06800   0.78470   0.01267  Uiso   1.00
O359   O     0.51660   0.16702   0.97254   0.01267  Uiso   1.00
O360   O     0.05526   0.51171   0.54114   0.01267  Uiso   1.00
O361   O     0.67180  -0.00000   0.48320   0.01267  Uiso   1.00
O362   O     0.16589   0.53761   0.04001   0.01267  Uiso   1.00
O363   O     0.00000   0.50390   0.89900   0.01267  Uiso   1.00
O364   O     0.66410   0.09330   0.04524   0.01267  Uiso   1.00
O365   O     0.94440   0.06290   0.25000   0.01267  Uiso   1.00
O366   O     0.00000   0.35560   0.44930   0.01267  Uiso   1.00
O367   O     0.40060   0.40060   0.41250   0.01267  Uiso   1.00
O368   O     0.33590   0.90670   0.95476   0.01267  Uiso   1.00
O369   O     0.00000   0.08160   0.69990   0.01267  Uiso   1.00
O370   O     0.18180   0.12260   0.80540   0.01267  Uiso   1.00
O371   O     0.53761   0.16589   0.04001   0.01267  Uiso   1.00
O372   O     0.82360   0.88070   0.68990   0.01267  Uiso   1.00
O373   O     0.76300   0.38000   0.99780   0.01267  Uiso   1.00
O374   O     0.07410   0.00000   0.15700   0.01267  Uiso   1.00
O375   O     0.03160   0.97270   0.35000   0.01267  Uiso   1.00
O376   O     0.54355   0.05526   0.45886   0.01267  Uiso   1.00
O377   O     0.37900   0.47390   0.92746   0.01267  Uiso   1.00
O378   O     0.58170  -0.00000   0.08750   0.01267  Uiso   1.00
O379   O     0.59940  -0.00000   0.41250   0.01267  Uiso   1.00
O380   O     0.23700   0.61700   0.99780   0.01267  Uiso   1.00
O381   O     0.93080   0.14580   0.21200   0.01267  Uiso   1.00
O382   O     0.37172   0.53761   0.95999   0.01267  Uiso   1.00
O383   O     0.40592   0.94475   0.48998   0.01267  Uiso   1.00
O384   O     0.08160   0.00000   0.80010   0.01267  Uiso   1.00
O385   O     0.12260   0.18180   0.69460   0.01267  Uiso   1.00
O386   O     0.38300   0.62000   0.99780   0.01267  Uiso   1.00
O387   O     0.03160   0.05890   0.65000   0.01267  Uiso   1.00
O388   O     0.94290   0.11930   0.68990   0.01267  Uiso   1.00
O389   O     0.35560   0.00000   0.44930   0.01267  Uiso   1.00
O390   O     0.46117   0.05525   0.01002   0.01267  Uiso   1.00
O391   O     0.94110   0.96840   0.35000   0.01267  Uiso   1.00
O392   O     0.51171   0.45645   0.04114   0.01267  Uiso   1.00
O393   O     0.83411   0.46239   0.95999   0.01267  Uiso   1.00
O394   O     0.47390   0.09490   0.42746   0.01267  Uiso   1.00
O395   O     0.11850   0.06290   0.75000   0.01267  Uiso   1.00
O396   O     0.02730   0.05890   0.15000   0.01267  Uiso   1.00
O397   O     0.05526   0.51171   0.95886   0.01267  Uiso   1.00
O398   O     0.37880  -0.00000   0.39900   0.01267  Uiso   1.00
O399   O     0.88150   0.94440   0.75000   0.01267  Uiso   1.00
O400   O     0.32820   0.00000   0.98320   0.01267  Uiso   1.00
O401   O     0.94290   0.11930   0.81010   0.01267  Uiso   1.00
O402   O     0.57080   0.66410   0.95476   0.01267  Uiso   1.00
O403   O     0.05920   0.18180   0.19460   0.01267  Uiso   1.00
O404   O     0.87740   0.81820   0.19460   0.01267  Uiso   1.00
O405   O     0.50390   0.50390   0.10100   0.01267  Uiso   1.00
O406   O     0.21500   0.06920   0.28800   0.01267  Uiso   1.00
O407   O     0.94475   0.53883   0.51002   0.01267  Uiso   1.00
O408   O     0.78110   0.93200   0.21530   0.01267  Uiso   1.00
O409   O     0.35560   0.35560   0.55070   0.01267  Uiso   1.00
O410   O     0.00000   0.58170   0.41250   0.01267  Uiso   1.00
O411   O     0.00000   0.00000   0.71880   0.01267  Uiso   1.00
O412   O     0.11930   0.94290   0.81010   0.01267  Uiso   1.00
O413   O     0.66470  -0.00000   0.00230   0.01267  Uiso   1.00
O414   O     0.42920   0.33590   0.04524   0.01267  Uiso   1.00
O415   O     0.00000   0.37880   0.39900   0.01267  Uiso   1.00
O416   O     0.48829   0.54355   0.54114   0.01267  Uiso   1.00
O417   O     0.34958   0.83298   0.97254   0.01267  Uiso   1.00
O418   O     0.97270   0.03160   0.15000   0.01267  Uiso   1.00
O419   O     0.78500   0.93080   0.78800   0.01267  Uiso   1.00
O420   O     0.00000   0.92590   0.65700   0.01267  Uiso   1.00
O421   O     0.64440   0.64440   0.44930   0.01267  Uiso   1.00
O422   O     0.12260   0.94080   0.30540   0.01267  Uiso   1.00
O423   O     0.35560   0.35560   0.94930   0.01267  Uiso   1.00
O424   O     0.90670   0.33590   0.54524   0.01267  Uiso   1.00
F1     F     0.00000   0.65080   0.36850   0.01267  Uiso   1.00
F2     F     0.00000   0.70980   0.91200   0.01267  Uiso   1.00
F3     F     0.29020   0.00000   0.41200   0.01267  Uiso   1.00
F4     F     0.29020   0.29020   0.58800   0.01267  Uiso   1.00
F5     F     0.34920  -0.00000   0.63150   0.01267  Uiso   1.00
F6     F     0.70980   0.00000   0.58800   0.01267  Uiso   1.00
F7     F     0.34920   0.34920   0.13150   0.01267  Uiso   1.00
F8     F     0.65080   0.65080   0.86850   0.01267  Uiso   1.00
F9     F     0.00000   0.29020   0.41200   0.01267  Uiso   1.00
F10    F     0.00000   0.29020   0.08800   0.01267  Uiso   1.00
F11    F     0.65080   0.65080   0.63150   0.01267  Uiso   1.00
F12    F     0.70980   0.00000   0.91200   0.01267  Uiso   1.00
F13    F     0.34920   0.34920   0.36850   0.01267  Uiso   1.00
F14    F     0.00000   0.70980   0.58800   0.01267  Uiso   1.00
F15    F     0.00000   0.34920   0.86850   0.01267  Uiso   1.00
F16    F     0.29020   0.00000   0.08800   0.01267  Uiso   1.00
F17    F     0.00000   0.65080   0.13150   0.01267  Uiso   1.00
F18    F     0.00000   0.34920   0.63150   0.01267  Uiso   1.00
F19    F     0.34920  -0.00000   0.86850   0.01267  Uiso   1.00
F20    F     0.70980   0.70980   0.08800   0.01267  Uiso   1.00
F21    F     0.29020   0.29020   0.91200   0.01267  Uiso   1.00
F22    F     0.65080  -0.00000   0.13150   0.01267  Uiso   1.00
F23    F     0.65080  -0.00000   0.36850   0.01267  Uiso   1.00
F24    F     0.70980   0.70980   0.41200   0.01267  Uiso   1.00
