data_ja5b00450_si_006_clean
_audit_creation_date              2015-08-19
_audit_creation_method            'Materials Studio'
_symmetry_space_group_name_H-M    'P1'
_symmetry_Int_Tables_number       1
_symmetry_cell_setting            triclinic
loop_
_symmetry_equiv_pos_as_xyz
  x,y,z
_cell_length_a                    21.1634
_cell_length_b                    29.3518
_cell_length_c                    29.3518
_cell_angle_alpha                 120.0000
_cell_angle_beta                  90.0000
_cell_angle_gamma                 90.0000
loop_
_atom_site_label
_atom_site_type_symbol
_atom_site_fract_x
_atom_site_fract_y
_atom_site_fract_z
_atom_site_U_iso_or_equiv
_atom_site_adp_type
_atom_site_occupancy
Y1     Y     0.50000   0.49080   0.74540   0.01267  Uiso   1.00
Y2     Y     0.40870   0.37674   0.75348   0.01267  Uiso   1.00
Y3     Y     0.40870   0.75348   0.37674   0.01267  Uiso   1.00
Y4     Y     0.90878   0.28977   0.57954   0.01267  Uiso   1.00
Y5     Y     0.59130   0.37674   0.75348   0.01267  Uiso   1.00
Y6     Y     0.50000   0.07884   0.92116   0.01267  Uiso   1.00
Y7     Y     0.90878   0.71023   0.28978   0.01267  Uiso   1.00
Y8     Y     0.40870   0.24652   0.62326   0.01267  Uiso   1.00
Y9     Y     0.59130   0.75348   0.37674   0.01267  Uiso   1.00
Y10    Y     0.00000   0.41204   0.82408   0.01267  Uiso   1.00
Y11    Y     0.50000   0.74540   0.25460   0.01267  Uiso   1.00
Y12    Y     0.40870   0.37674   0.62326   0.01267  Uiso   1.00
Y13    Y     0.74210   0.66667   0.33334   0.01267  Uiso   1.00
Y14    Y     0.25790   0.33333   0.66666   0.01267  Uiso   1.00
Y15    Y     0.00000   0.41204   0.58796   0.01267  Uiso   1.00
Y16    Y     0.00000   0.58796   0.17592   0.01267  Uiso   1.00
Y17    Y     0.00000   0.82408   0.41204   0.01267  Uiso   1.00
Y18    Y     0.00000   0.17592   0.58796   0.01267  Uiso   1.00
Y19    Y     0.40870   0.62326   0.37674   0.01267  Uiso   1.00
Y20    Y     0.50000   0.15768   0.07884   0.01267  Uiso   1.00
Y21    Y     0.90878   0.57955   0.28978   0.01267  Uiso   1.00
Y22    Y     0.90878   0.28977   0.71022   0.01267  Uiso   1.00
Y23    Y     0.09122   0.28977   0.57954   0.01267  Uiso   1.00
Y24    Y     0.50000   0.25460   0.74540   0.01267  Uiso   1.00
Y25    Y     0.09122   0.71023   0.42046   0.01267  Uiso   1.00
Y26    Y     0.90878   0.42045   0.71022   0.01267  Uiso   1.00
Y27    Y     0.50000   0.50920   0.25460   0.01267  Uiso   1.00
Y28    Y     0.50000   0.25460   0.50920   0.01267  Uiso   1.00
Y29    Y     0.74210   0.33333   0.66666   0.01267  Uiso   1.00
Y30    Y     0.50000   0.92116   0.84232   0.01267  Uiso   1.00
Y31    Y     0.59130   0.62326   0.37674   0.01267  Uiso   1.00
Y32    Y     0.40870   0.62326   0.24652   0.01267  Uiso   1.00
Y33    Y     0.25790   0.66667   0.33334   0.01267  Uiso   1.00
Y34    Y     0.50000   0.92116   0.07884   0.01267  Uiso   1.00
Y35    Y     0.00000   0.58796   0.41204   0.01267  Uiso   1.00
Y36    Y     0.09122   0.71023   0.28978   0.01267  Uiso   1.00
Y37    Y     0.50000   0.84232   0.92116   0.01267  Uiso   1.00
Y38    Y     0.59130   0.37674   0.62326   0.01267  Uiso   1.00
Y39    Y     0.50000   0.07884   0.15768   0.01267  Uiso   1.00
Y40    Y     0.50000   0.74540   0.49080   0.01267  Uiso   1.00
Y41    Y     0.09122   0.42045   0.71022   0.01267  Uiso   1.00
Y42    Y     0.90878   0.71023   0.42046   0.01267  Uiso   1.00
Y43    Y     0.59130   0.62326   0.24652   0.01267  Uiso   1.00
Y44    Y     0.59130   0.24652   0.62326   0.01267  Uiso   1.00
Y45    Y     0.09122   0.28977   0.71022   0.01267  Uiso   1.00
Y46    Y     0.09122   0.57955   0.28978   0.01267  Uiso   1.00
H1     H     0.76950   0.27600   0.05370   0.01267  Uiso   1.00
H2     H     0.19950   0.73040   0.17150   0.01267  Uiso   1.00
H3     H     0.64860   0.32710   0.03690   0.01267  Uiso   1.00
H4     H     0.39210   0.72980   0.77770   0.01267  Uiso   1.00
H5     H     0.24670   0.89290   0.25440   0.01267  Uiso   1.00
H6     H     0.75330   0.74560   0.10710   0.01267  Uiso   1.00
H7     H     0.22160   0.34790   0.24050   0.01267  Uiso   1.00
H8     H     0.20720   0.20870   0.25830   0.01267  Uiso   1.00
H9     H     0.71420   0.63700   0.64870   0.01267  Uiso   1.00
H10    H     0.77840   0.10740   0.34790   0.01267  Uiso   1.00
H11    H     0.08160   0.44210   0.05640   0.01267  Uiso   1.00
H12    H     0.71420   0.01170   0.36300   0.01267  Uiso   1.00
H13    H     0.10300   0.39370   0.94190   0.01267  Uiso   1.00
H14    H     0.26710   0.42270   0.98240   0.01267  Uiso   1.00
H15    H     0.60790   0.27020   0.22230   0.01267  Uiso   1.00
H16    H     0.35140   0.67290   0.70980   0.01267  Uiso   1.00
H17    H     0.08160   0.94360   0.38570   0.01267  Uiso   1.00
H18    H     0.64860   0.32710   0.29020   0.01267  Uiso   1.00
H19    H     0.39820   0.88520   0.27710   0.01267  Uiso   1.00
H20    H     0.71420   0.36300   0.01170   0.01267  Uiso   1.00
H21    H     0.29940   0.84000   0.78680   0.01267  Uiso   1.00
H22    H     0.35140   0.32710   0.03690   0.01267  Uiso   1.00
H23    H     0.89700   0.39370   0.45180   0.01267  Uiso   1.00
H24    H     0.79280   0.25830   0.04960   0.01267  Uiso   1.00
H25    H     0.60790   0.77770   0.72980   0.01267  Uiso   1.00
H26    H     0.17630   0.74170   0.57160   0.01267  Uiso   1.00
H27    H     0.31390   0.09550   0.59040   0.01267  Uiso   1.00
H28    H     0.82370   0.25830   0.42840   0.01267  Uiso   1.00
H29    H     0.65440   0.70510   0.04450   0.01267  Uiso   1.00
H30    H     0.68170   0.04910   0.33060   0.01267  Uiso   1.00
H31    H     0.70060   0.84000   0.05320   0.01267  Uiso   1.00
H32    H     0.79280   0.20870   0.95040   0.01267  Uiso   1.00
H33    H     0.19950   0.55890   0.73040   0.01267  Uiso   1.00
H34    H     0.91840   0.44210   0.38570   0.01267  Uiso   1.00
H35    H     0.31830   0.95090   0.28150   0.01267  Uiso   1.00
H36    H     0.58970   0.72100   0.77450   0.01267  Uiso   1.00
H37    H     0.71420   0.01170   0.64870   0.01267  Uiso   1.00
H38    H     0.60790   0.72980   0.95210   0.01267  Uiso   1.00
H39    H     0.41030   0.77450   0.05350   0.01267  Uiso   1.00
H40    H     0.17630   0.42840   0.17010   0.01267  Uiso   1.00
H41    H     0.60790   0.04790   0.77770   0.01267  Uiso   1.00
H42    H     0.76950   0.27600   0.22230   0.01267  Uiso   1.00
H43    H     0.41030   0.72100   0.77450   0.01267  Uiso   1.00
H44    H     0.10300   0.94190   0.54820   0.01267  Uiso   1.00
H45    H     0.22160   0.65210   0.75950   0.01267  Uiso   1.00
H46    H     0.82370   0.82990   0.57160   0.01267  Uiso   1.00
H47    H     0.34560   0.04450   0.70510   0.01267  Uiso   1.00
H48    H     0.39820   0.27710   0.39190   0.01267  Uiso   1.00
H49    H     0.89700   0.05810   0.45180   0.01267  Uiso   1.00
H50    H     0.26710   0.44030   0.42270   0.01267  Uiso   1.00
H51    H     0.29940   0.78680   0.84000   0.01267  Uiso   1.00
H52    H     0.60180   0.39190   0.11480   0.01267  Uiso   1.00
H53    H     0.39820   0.60810   0.88520   0.01267  Uiso   1.00
H54    H     0.70060   0.94680   0.78680   0.01267  Uiso   1.00
H55    H     0.70060   0.78680   0.94680   0.01267  Uiso   1.00
H56    H     0.60180   0.60810   0.72290   0.01267  Uiso   1.00
H57    H     0.22160   0.89260   0.65210   0.01267  Uiso   1.00
H58    H     0.39210   0.77770   0.72980   0.01267  Uiso   1.00
H59    H     0.64860   0.03690   0.70980   0.01267  Uiso   1.00
H60    H     0.80050   0.17150   0.44110   0.01267  Uiso   1.00
H61    H     0.22160   0.89260   0.24050   0.01267  Uiso   1.00
H62    H     0.31390   0.90450   0.40960   0.01267  Uiso   1.00
H63    H     0.70060   0.05320   0.21320   0.01267  Uiso   1.00
H64    H     0.77840   0.24050   0.34790   0.01267  Uiso   1.00
H65    H     0.31390   0.50510   0.09550   0.01267  Uiso   1.00
H66    H     0.31830   0.95090   0.66940   0.01267  Uiso   1.00
H67    H     0.68610   0.50510   0.40960   0.01267  Uiso   1.00
H68    H     0.89700   0.05810   0.60630   0.01267  Uiso   1.00
H69    H     0.35140   0.67290   0.96310   0.01267  Uiso   1.00
H70    H     0.23050   0.94630   0.72400   0.01267  Uiso   1.00
H71    H     0.77840   0.24050   0.89260   0.01267  Uiso   1.00
H72    H     0.28580   0.01170   0.36300   0.01267  Uiso   1.00
H73    H     0.10300   0.60630   0.54820   0.01267  Uiso   1.00
H74    H     0.79280   0.20870   0.25830   0.01267  Uiso   1.00
H75    H     0.19950   0.82850   0.55890   0.01267  Uiso   1.00
H76    H     0.60180   0.11480   0.39190   0.01267  Uiso   1.00
H77    H     0.41030   0.27900   0.22550   0.01267  Uiso   1.00
H78    H     0.08160   0.05640   0.61430   0.01267  Uiso   1.00
H79    H     0.29940   0.21320   0.05320   0.01267  Uiso   1.00
H80    H     0.23050   0.77770   0.72400   0.01267  Uiso   1.00
H81    H     0.08160   0.05640   0.44210   0.01267  Uiso   1.00
H82    H     0.28580   0.64870   0.01170   0.01267  Uiso   1.00
H83    H     0.70060   0.94680   0.16000   0.01267  Uiso   1.00
H84    H     0.79280   0.04960   0.79130   0.01267  Uiso   1.00
H85    H     0.17630   0.25830   0.82990   0.01267  Uiso   1.00
H86    H     0.17630   0.82990   0.57160   0.01267  Uiso   1.00
H87    H     0.41030   0.22550   0.94650   0.01267  Uiso   1.00
H88    H     0.68610   0.49490   0.59040   0.01267  Uiso   1.00
H89    H     0.10300   0.54820   0.94190   0.01267  Uiso   1.00
H90    H     0.82370   0.74170   0.57160   0.01267  Uiso   1.00
H91    H     0.24670   0.74560   0.63850   0.01267  Uiso   1.00
H92    H     0.35140   0.29020   0.32710   0.01267  Uiso   1.00
H93    H     0.41030   0.77450   0.72100   0.01267  Uiso   1.00
H94    H     0.68170   0.28150   0.95090   0.01267  Uiso   1.00
H95    H     0.82370   0.42840   0.17010   0.01267  Uiso   1.00
H96    H     0.39210   0.22230   0.95210   0.01267  Uiso   1.00
H97    H     0.64860   0.67290   0.96310   0.01267  Uiso   1.00
H98    H     0.58970   0.27900   0.05350   0.01267  Uiso   1.00
H99    H     0.76950   0.05370   0.27600   0.01267  Uiso   1.00
H100   H     0.34560   0.95550   0.29490   0.01267  Uiso   1.00
H101   H     0.27770   0.80380   0.85000   0.01267  Uiso   1.00
H102   H     0.72230   0.04620   0.85000   0.01267  Uiso   1.00
H103   H     0.10300   0.45180   0.39370   0.01267  Uiso   1.00
H104   H     0.23050   0.72400   0.77770   0.01267  Uiso   1.00
H105   H     0.17630   0.25830   0.42840   0.01267  Uiso   1.00
H106   H     0.70060   0.16000   0.21320   0.01267  Uiso   1.00
H107   H     0.75330   0.74560   0.63850   0.01267  Uiso   1.00
H108   H     0.64860   0.29020   0.96310   0.01267  Uiso   1.00
H109   H     0.41030   0.27900   0.05350   0.01267  Uiso   1.00
H110   H     0.29940   0.16000   0.21320   0.01267  Uiso   1.00
H111   H     0.60180   0.88520   0.27710   0.01267  Uiso   1.00
H112   H     0.20720   0.79130   0.04960   0.01267  Uiso   1.00
H113   H     0.17630   0.57160   0.82990   0.01267  Uiso   1.00
H114   H     0.31390   0.50510   0.40960   0.01267  Uiso   1.00
H115   H     0.77840   0.34790   0.10740   0.01267  Uiso   1.00
H116   H     0.29940   0.84000   0.05320   0.01267  Uiso   1.00
H117   H     0.60180   0.27710   0.39190   0.01267  Uiso   1.00
H118   H     0.34560   0.04450   0.33940   0.01267  Uiso   1.00
H119   H     0.71420   0.64870   0.01170   0.01267  Uiso   1.00
H120   H     0.35140   0.29020   0.96310   0.01267  Uiso   1.00
H121   H     0.80050   0.17150   0.73040   0.01267  Uiso   1.00
H122   H     0.58970   0.05350   0.77450   0.01267  Uiso   1.00
H123   H     0.39820   0.60810   0.72290   0.01267  Uiso   1.00
H124   H     0.08160   0.55790   0.61430   0.01267  Uiso   1.00
H125   H     0.64860   0.70980   0.67290   0.01267  Uiso   1.00
H126   H     0.70060   0.16000   0.94680   0.01267  Uiso   1.00
H127   H     0.68610   0.49490   0.90450   0.01267  Uiso   1.00
H128   H     0.29940   0.05320   0.84000   0.01267  Uiso   1.00
H129   H     0.10300   0.60630   0.05810   0.01267  Uiso   1.00
H130   H     0.89700   0.94190   0.54820   0.01267  Uiso   1.00
H131   H     0.89700   0.45180   0.39370   0.01267  Uiso   1.00
H132   H     0.89700   0.45180   0.05810   0.01267  Uiso   1.00
H133   H     0.68170   0.33060   0.04910   0.01267  Uiso   1.00
H134   H     0.23050   0.22230   0.27600   0.01267  Uiso   1.00
H135   H     0.76950   0.77770   0.72400   0.01267  Uiso   1.00
H136   H     0.28580   0.63700   0.98830   0.01267  Uiso   1.00
H137   H     0.72230   0.95380   0.80380   0.01267  Uiso   1.00
H138   H     0.72230   0.15000   0.19620   0.01267  Uiso   1.00
H139   H     0.89700   0.94190   0.39370   0.01267  Uiso   1.00
H140   H     0.31830   0.71850   0.04910   0.01267  Uiso   1.00
H141   H     0.68170   0.95090   0.28150   0.01267  Uiso   1.00
H142   H     0.28580   0.64870   0.63700   0.01267  Uiso   1.00
H143   H     0.39210   0.72980   0.95210   0.01267  Uiso   1.00
H144   H     0.60180   0.11480   0.72290   0.01267  Uiso   1.00
H145   H     0.26710   0.57730   0.55970   0.01267  Uiso   1.00
H146   H     0.82370   0.25830   0.82990   0.01267  Uiso   1.00
H147   H     0.19950   0.55890   0.82850   0.01267  Uiso   1.00
H148   H     0.10300   0.54820   0.60630   0.01267  Uiso   1.00
H149   H     0.75330   0.25440   0.36150   0.01267  Uiso   1.00
H150   H     0.26710   0.98240   0.55970   0.01267  Uiso   1.00
H151   H     0.39210   0.95210   0.22230   0.01267  Uiso   1.00
H152   H     0.91840   0.55790   0.94360   0.01267  Uiso   1.00
H153   H     0.29940   0.05320   0.21320   0.01267  Uiso   1.00
H154   H     0.10300   0.39370   0.45180   0.01267  Uiso   1.00
H155   H     0.65440   0.66060   0.95550   0.01267  Uiso   1.00
H156   H     0.20720   0.04960   0.25830   0.01267  Uiso   1.00
H157   H     0.24670   0.63850   0.89290   0.01267  Uiso   1.00
H158   H     0.10300   0.05810   0.45180   0.01267  Uiso   1.00
H159   H     0.60790   0.95210   0.72980   0.01267  Uiso   1.00
H160   H     0.91840   0.61430   0.55790   0.01267  Uiso   1.00
H161   H     0.24670   0.74560   0.10710   0.01267  Uiso   1.00
H162   H     0.24670   0.10710   0.74560   0.01267  Uiso   1.00
H163   H     0.23050   0.94630   0.22230   0.01267  Uiso   1.00
H164   H     0.60180   0.39190   0.27710   0.01267  Uiso   1.00
H165   H     0.89700   0.39370   0.94190   0.01267  Uiso   1.00
H166   H     0.60790   0.22230   0.95210   0.01267  Uiso   1.00
H167   H     0.79280   0.95040   0.20870   0.01267  Uiso   1.00
H168   H     0.82370   0.57160   0.82990   0.01267  Uiso   1.00
H169   H     0.64860   0.29020   0.32710   0.01267  Uiso   1.00
H170   H     0.71420   0.63700   0.98830   0.01267  Uiso   1.00
H171   H     0.68610   0.50510   0.09550   0.01267  Uiso   1.00
H172   H     0.29940   0.94680   0.16000   0.01267  Uiso   1.00
H173   H     0.23050   0.05370   0.77770   0.01267  Uiso   1.00
H174   H     0.77840   0.75950   0.65210   0.01267  Uiso   1.00
H175   H     0.26710   0.42270   0.44030   0.01267  Uiso   1.00
H176   H     0.29940   0.94680   0.78680   0.01267  Uiso   1.00
H177   H     0.60790   0.72980   0.77770   0.01267  Uiso   1.00
H178   H     0.26710   0.57730   0.01760   0.01267  Uiso   1.00
H179   H     0.08160   0.61430   0.55790   0.01267  Uiso   1.00
H180   H     0.77840   0.89260   0.65210   0.01267  Uiso   1.00
H181   H     0.75330   0.89290   0.25440   0.01267  Uiso   1.00
H182   H     0.22160   0.24050   0.89260   0.01267  Uiso   1.00
H183   H     0.20720   0.95040   0.74170   0.01267  Uiso   1.00
H184   H     0.79280   0.74170   0.95040   0.01267  Uiso   1.00
H185   H     0.23050   0.72400   0.94630   0.01267  Uiso   1.00
H186   H     0.24670   0.25440   0.36150   0.01267  Uiso   1.00
H187   H     0.75330   0.36150   0.25440   0.01267  Uiso   1.00
H188   H     0.22160   0.24050   0.34790   0.01267  Uiso   1.00
H189   H     0.68610   0.40960   0.50510   0.01267  Uiso   1.00
H190   H     0.39820   0.11480   0.39190   0.01267  Uiso   1.00
H191   H     0.58970   0.77450   0.05350   0.01267  Uiso   1.00
H192   H     0.73290   0.01760   0.44030   0.01267  Uiso   1.00
H193   H     0.27770   0.95380   0.80380   0.01267  Uiso   1.00
H194   H     0.64860   0.96310   0.29020   0.01267  Uiso   1.00
H195   H     0.23050   0.05370   0.27600   0.01267  Uiso   1.00
H196   H     0.22160   0.75950   0.10740   0.01267  Uiso   1.00
H197   H     0.31390   0.49490   0.90450   0.01267  Uiso   1.00
H198   H     0.08160   0.61430   0.05640   0.01267  Uiso   1.00
H199   H     0.31390   0.49490   0.59040   0.01267  Uiso   1.00
H200   H     0.31390   0.40960   0.50510   0.01267  Uiso   1.00
H201   H     0.17630   0.74170   0.17010   0.01267  Uiso   1.00
H202   H     0.80050   0.55890   0.73040   0.01267  Uiso   1.00
H203   H     0.31390   0.40960   0.90450   0.01267  Uiso   1.00
H204   H     0.79280   0.25830   0.20870   0.01267  Uiso   1.00
H205   H     0.68170   0.33060   0.28150   0.01267  Uiso   1.00
H206   H     0.60180   0.72290   0.11480   0.01267  Uiso   1.00
H207   H     0.27770   0.15000   0.95380   0.01267  Uiso   1.00
H208   H     0.73290   0.57730   0.01760   0.01267  Uiso   1.00
H209   H     0.29940   0.16000   0.94680   0.01267  Uiso   1.00
H210   H     0.76950   0.94630   0.22230   0.01267  Uiso   1.00
H211   H     0.91840   0.44210   0.05640   0.01267  Uiso   1.00
H212   H     0.65440   0.66060   0.70510   0.01267  Uiso   1.00
H213   H     0.31830   0.66940   0.71850   0.01267  Uiso   1.00
H214   H     0.22160   0.75950   0.65210   0.01267  Uiso   1.00
H215   H     0.39820   0.39190   0.27710   0.01267  Uiso   1.00
H216   H     0.24670   0.25440   0.89290   0.01267  Uiso   1.00
H217   H     0.10300   0.94190   0.39370   0.01267  Uiso   1.00
H218   H     0.31830   0.33060   0.04910   0.01267  Uiso   1.00
H219   H     0.41030   0.94650   0.72100   0.01267  Uiso   1.00
H220   H     0.26710   0.98240   0.42270   0.01267  Uiso   1.00
H221   H     0.39210   0.95210   0.72980   0.01267  Uiso   1.00
H222   H     0.68610   0.40960   0.90450   0.01267  Uiso   1.00
H223   H     0.20720   0.25830   0.04960   0.01267  Uiso   1.00
H224   H     0.71420   0.36300   0.35130   0.01267  Uiso   1.00
H225   H     0.68610   0.59040   0.49490   0.01267  Uiso   1.00
H226   H     0.72230   0.19620   0.15000   0.01267  Uiso   1.00
H227   H     0.35140   0.96310   0.67290   0.01267  Uiso   1.00
H228   H     0.28580   0.01170   0.64870   0.01267  Uiso   1.00
H229   H     0.31830   0.04910   0.33060   0.01267  Uiso   1.00
H230   H     0.20720   0.95040   0.20870   0.01267  Uiso   1.00
H231   H     0.80050   0.73040   0.17150   0.01267  Uiso   1.00
H232   H     0.65440   0.29490   0.95550   0.01267  Uiso   1.00
H233   H     0.75330   0.10710   0.36150   0.01267  Uiso   1.00
H234   H     0.31830   0.28150   0.33060   0.01267  Uiso   1.00
H235   H     0.08160   0.94360   0.55790   0.01267  Uiso   1.00
H236   H     0.77840   0.65210   0.89260   0.01267  Uiso   1.00
H237   H     0.75330   0.25440   0.89290   0.01267  Uiso   1.00
H238   H     0.19950   0.17150   0.44110   0.01267  Uiso   1.00
H239   H     0.31830   0.66940   0.95090   0.01267  Uiso   1.00
H240   H     0.31830   0.28150   0.95090   0.01267  Uiso   1.00
H241   H     0.17630   0.17010   0.42840   0.01267  Uiso   1.00
H242   H     0.79280   0.95040   0.74170   0.01267  Uiso   1.00
H243   H     0.64860   0.70980   0.03690   0.01267  Uiso   1.00
H244   H     0.08160   0.38570   0.44210   0.01267  Uiso   1.00
H245   H     0.60790   0.95210   0.22230   0.01267  Uiso   1.00
H246   H     0.75330   0.63850   0.89290   0.01267  Uiso   1.00
H247   H     0.77840   0.10740   0.75950   0.01267  Uiso   1.00
H248   H     0.24670   0.36150   0.10710   0.01267  Uiso   1.00
H249   H     0.39210   0.04790   0.77770   0.01267  Uiso   1.00
H250   H     0.82370   0.82990   0.25830   0.01267  Uiso   1.00
H251   H     0.72230   0.15000   0.95380   0.01267  Uiso   1.00
H252   H     0.65440   0.04450   0.70510   0.01267  Uiso   1.00
H253   H     0.35140   0.03690   0.70980   0.01267  Uiso   1.00
H254   H     0.64860   0.96310   0.67290   0.01267  Uiso   1.00
H255   H     0.68610   0.09550   0.50510   0.01267  Uiso   1.00
H256   H     0.27770   0.95380   0.15000   0.01267  Uiso   1.00
H257   H     0.34560   0.70510   0.04450   0.01267  Uiso   1.00
H258   H     0.75330   0.10710   0.74560   0.01267  Uiso   1.00
H259   H     0.75330   0.36150   0.10710   0.01267  Uiso   1.00
H260   H     0.39820   0.72290   0.60810   0.01267  Uiso   1.00
H261   H     0.60790   0.77770   0.04790   0.01267  Uiso   1.00
H262   H     0.80050   0.55890   0.82850   0.01267  Uiso   1.00
H263   H     0.41030   0.94650   0.22550   0.01267  Uiso   1.00
H264   H     0.31830   0.04910   0.71850   0.01267  Uiso   1.00
H265   H     0.82370   0.42840   0.25830   0.01267  Uiso   1.00
H266   H     0.72230   0.80380   0.85000   0.01267  Uiso   1.00
H267   H     0.58970   0.72100   0.94650   0.01267  Uiso   1.00
H268   H     0.89700   0.54820   0.60630   0.01267  Uiso   1.00
H269   H     0.91840   0.55790   0.61430   0.01267  Uiso   1.00
H270   H     0.41030   0.72100   0.94650   0.01267  Uiso   1.00
H271   H     0.20720   0.74170   0.95040   0.01267  Uiso   1.00
H272   H     0.65440   0.70510   0.66060   0.01267  Uiso   1.00
H273   H     0.75330   0.63850   0.74560   0.01267  Uiso   1.00
H274   H     0.28580   0.98830   0.63700   0.01267  Uiso   1.00
H275   H     0.80050   0.82850   0.26960   0.01267  Uiso   1.00
H276   H     0.73290   0.42270   0.44030   0.01267  Uiso   1.00
H277   H     0.82370   0.74170   0.17010   0.01267  Uiso   1.00
H278   H     0.39820   0.11480   0.72290   0.01267  Uiso   1.00
H279   H     0.68170   0.95090   0.66940   0.01267  Uiso   1.00
H280   H     0.73290   0.42270   0.98240   0.01267  Uiso   1.00
H281   H     0.28580   0.35130   0.98830   0.01267  Uiso   1.00
H282   H     0.31390   0.09550   0.50510   0.01267  Uiso   1.00
H283   H     0.91840   0.38570   0.94360   0.01267  Uiso   1.00
H284   H     0.72230   0.04620   0.19620   0.01267  Uiso   1.00
H285   H     0.77840   0.65210   0.75950   0.01267  Uiso   1.00
H286   H     0.58970   0.27900   0.22550   0.01267  Uiso   1.00
H287   H     0.60790   0.27020   0.04790   0.01267  Uiso   1.00
H288   H     0.73290   0.55970   0.98240   0.01267  Uiso   1.00
H289   H     0.19950   0.17150   0.73040   0.01267  Uiso   1.00
H290   H     0.39820   0.72290   0.11480   0.01267  Uiso   1.00
H291   H     0.68170   0.71850   0.66940   0.01267  Uiso   1.00
H292   H     0.68170   0.04910   0.71850   0.01267  Uiso   1.00
H293   H     0.28580   0.36300   0.35130   0.01267  Uiso   1.00
H294   H     0.23050   0.77770   0.05370   0.01267  Uiso   1.00
H295   H     0.79280   0.79130   0.74170   0.01267  Uiso   1.00
H296   H     0.91840   0.38570   0.44210   0.01267  Uiso   1.00
H297   H     0.60790   0.22230   0.27020   0.01267  Uiso   1.00
H298   H     0.73290   0.55970   0.57730   0.01267  Uiso   1.00
H299   H     0.77840   0.34790   0.24050   0.01267  Uiso   1.00
H300   H     0.80050   0.26960   0.44110   0.01267  Uiso   1.00
H301   H     0.08160   0.44210   0.38570   0.01267  Uiso   1.00
H302   H     0.39820   0.88520   0.60810   0.01267  Uiso   1.00
H303   H     0.28580   0.98830   0.35130   0.01267  Uiso   1.00
H304   H     0.68610   0.90450   0.49490   0.01267  Uiso   1.00
H305   H     0.72230   0.85000   0.04620   0.01267  Uiso   1.00
H306   H     0.79280   0.79130   0.04960   0.01267  Uiso   1.00
H307   H     0.82370   0.17010   0.42840   0.01267  Uiso   1.00
H308   H     0.76950   0.77770   0.05370   0.01267  Uiso   1.00
H309   H     0.70060   0.84000   0.78680   0.01267  Uiso   1.00
H310   H     0.73290   0.57730   0.55970   0.01267  Uiso   1.00
H311   H     0.39210   0.27020   0.22230   0.01267  Uiso   1.00
H312   H     0.41030   0.05350   0.77450   0.01267  Uiso   1.00
H313   H     0.68170   0.66940   0.95090   0.01267  Uiso   1.00
H314   H     0.27770   0.19620   0.04620   0.01267  Uiso   1.00
H315   H     0.35140   0.32710   0.29020   0.01267  Uiso   1.00
H316   H     0.22160   0.10740   0.34790   0.01267  Uiso   1.00
H317   H     0.73290   0.44030   0.01760   0.01267  Uiso   1.00
H318   H     0.72230   0.80380   0.95380   0.01267  Uiso   1.00
H319   H     0.34560   0.29490   0.95550   0.01267  Uiso   1.00
H320   H     0.35140   0.96310   0.29020   0.01267  Uiso   1.00
H321   H     0.35140   0.03690   0.32710   0.01267  Uiso   1.00
H322   H     0.71420   0.35130   0.98830   0.01267  Uiso   1.00
H323   H     0.89700   0.60630   0.54820   0.01267  Uiso   1.00
H324   H     0.28580   0.36300   0.01170   0.01267  Uiso   1.00
H325   H     0.68610   0.59040   0.09550   0.01267  Uiso   1.00
H326   H     0.23050   0.27600   0.22230   0.01267  Uiso   1.00
H327   H     0.64860   0.03690   0.32710   0.01267  Uiso   1.00
H328   H     0.73290   0.98240   0.42270   0.01267  Uiso   1.00
H329   H     0.27770   0.04620   0.19620   0.01267  Uiso   1.00
H330   H     0.73290   0.44030   0.42270   0.01267  Uiso   1.00
H331   H     0.17630   0.42840   0.25830   0.01267  Uiso   1.00
H332   H     0.89700   0.60630   0.05810   0.01267  Uiso   1.00
H333   H     0.23050   0.27600   0.05370   0.01267  Uiso   1.00
H334   H     0.82370   0.17010   0.74170   0.01267  Uiso   1.00
H335   H     0.58970   0.77450   0.72100   0.01267  Uiso   1.00
H336   H     0.26710   0.55970   0.57730   0.01267  Uiso   1.00
H337   H     0.65440   0.33940   0.04450   0.01267  Uiso   1.00
H338   H     0.80050   0.82850   0.55890   0.01267  Uiso   1.00
H339   H     0.34560   0.95550   0.66060   0.01267  Uiso   1.00
H340   H     0.70060   0.21320   0.05320   0.01267  Uiso   1.00
H341   H     0.19950   0.82850   0.26960   0.01267  Uiso   1.00
H342   H     0.24670   0.63850   0.74560   0.01267  Uiso   1.00
H343   H     0.65440   0.29490   0.33940   0.01267  Uiso   1.00
H344   H     0.76950   0.94630   0.72400   0.01267  Uiso   1.00
H345   H     0.20720   0.04960   0.79130   0.01267  Uiso   1.00
H346   H     0.39210   0.04790   0.27020   0.01267  Uiso   1.00
H347   H     0.31390   0.59040   0.09550   0.01267  Uiso   1.00
H348   H     0.10300   0.05810   0.60630   0.01267  Uiso   1.00
H349   H     0.17630   0.57160   0.74170   0.01267  Uiso   1.00
H350   H     0.60180   0.72290   0.60810   0.01267  Uiso   1.00
H351   H     0.91840   0.94360   0.38570   0.01267  Uiso   1.00
H352   H     0.41030   0.22550   0.27900   0.01267  Uiso   1.00
H353   H     0.76950   0.72400   0.94630   0.01267  Uiso   1.00
H354   H     0.58970   0.94650   0.72100   0.01267  Uiso   1.00
H355   H     0.89700   0.54820   0.94190   0.01267  Uiso   1.00
H356   H     0.20720   0.25830   0.20870   0.01267  Uiso   1.00
H357   H     0.26710   0.55970   0.98240   0.01267  Uiso   1.00
H358   H     0.39210   0.77770   0.04790   0.01267  Uiso   1.00
H359   H     0.19950   0.44110   0.17150   0.01267  Uiso   1.00
H360   H     0.70060   0.21320   0.16000   0.01267  Uiso   1.00
H361   H     0.39210   0.27020   0.04790   0.01267  Uiso   1.00
H362   H     0.76950   0.05370   0.77770   0.01267  Uiso   1.00
H363   H     0.80050   0.73040   0.55890   0.01267  Uiso   1.00
H364   H     0.91840   0.94360   0.55790   0.01267  Uiso   1.00
H365   H     0.77840   0.75950   0.10740   0.01267  Uiso   1.00
H366   H     0.27770   0.85000   0.80380   0.01267  Uiso   1.00
H367   H     0.72230   0.95380   0.15000   0.01267  Uiso   1.00
H368   H     0.31830   0.33060   0.28150   0.01267  Uiso   1.00
H369   H     0.08160   0.55790   0.94360   0.01267  Uiso   1.00
H370   H     0.70060   0.05320   0.84000   0.01267  Uiso   1.00
H371   H     0.71420   0.98830   0.35130   0.01267  Uiso   1.00
H372   H     0.34560   0.70510   0.66060   0.01267  Uiso   1.00
H373   H     0.80050   0.44110   0.17150   0.01267  Uiso   1.00
H374   H     0.23050   0.22230   0.94630   0.01267  Uiso   1.00
H375   H     0.17630   0.17010   0.74170   0.01267  Uiso   1.00
H376   H     0.72230   0.19620   0.04620   0.01267  Uiso   1.00
H377   H     0.39820   0.27710   0.88520   0.01267  Uiso   1.00
H378   H     0.20720   0.74170   0.79130   0.01267  Uiso   1.00
H379   H     0.20720   0.20870   0.95040   0.01267  Uiso   1.00
H380   H     0.91840   0.05640   0.61430   0.01267  Uiso   1.00
H381   H     0.35140   0.70980   0.03690   0.01267  Uiso   1.00
H382   H     0.65440   0.04450   0.33940   0.01267  Uiso   1.00
H383   H     0.77840   0.89260   0.24050   0.01267  Uiso   1.00
H384   H     0.26710   0.01760   0.44030   0.01267  Uiso   1.00
H385   H     0.58970   0.22550   0.27900   0.01267  Uiso   1.00
H386   H     0.72230   0.85000   0.80380   0.01267  Uiso   1.00
H387   H     0.71420   0.35130   0.36300   0.01267  Uiso   1.00
H388   H     0.58970   0.94650   0.22550   0.01267  Uiso   1.00
H389   H     0.34560   0.66060   0.95550   0.01267  Uiso   1.00
H390   H     0.08160   0.38570   0.94360   0.01267  Uiso   1.00
H391   H     0.35140   0.70980   0.67290   0.01267  Uiso   1.00
H392   H     0.19950   0.73040   0.55890   0.01267  Uiso   1.00
H393   H     0.31830   0.71850   0.66940   0.01267  Uiso   1.00
H394   H     0.68610   0.90450   0.40960   0.01267  Uiso   1.00
H395   H     0.22160   0.65210   0.89260   0.01267  Uiso   1.00
H396   H     0.39820   0.39190   0.11480   0.01267  Uiso   1.00
H397   H     0.76950   0.22230   0.27600   0.01267  Uiso   1.00
H398   H     0.71420   0.64870   0.63700   0.01267  Uiso   1.00
H399   H     0.79280   0.74170   0.79130   0.01267  Uiso   1.00
H400   H     0.27770   0.15000   0.19620   0.01267  Uiso   1.00
H401   H     0.65440   0.33940   0.29490   0.01267  Uiso   1.00
H402   H     0.19950   0.44110   0.26960   0.01267  Uiso   1.00
H403   H     0.70060   0.78680   0.84000   0.01267  Uiso   1.00
H404   H     0.24670   0.10710   0.36150   0.01267  Uiso   1.00
H405   H     0.22160   0.34790   0.10740   0.01267  Uiso   1.00
H406   H     0.64860   0.67290   0.70980   0.01267  Uiso   1.00
H407   H     0.29940   0.21320   0.16000   0.01267  Uiso   1.00
H408   H     0.19950   0.26960   0.44110   0.01267  Uiso   1.00
H409   H     0.20720   0.79130   0.74170   0.01267  Uiso   1.00
H410   H     0.19950   0.26960   0.82850   0.01267  Uiso   1.00
H411   H     0.27770   0.19620   0.15000   0.01267  Uiso   1.00
H412   H     0.34560   0.33940   0.04450   0.01267  Uiso   1.00
H413   H     0.65440   0.95550   0.66060   0.01267  Uiso   1.00
H414   H     0.31390   0.90450   0.49490   0.01267  Uiso   1.00
H415   H     0.27770   0.80380   0.95380   0.01267  Uiso   1.00
H416   H     0.80050   0.26960   0.82850   0.01267  Uiso   1.00
H417   H     0.34560   0.29490   0.33940   0.01267  Uiso   1.00
H418   H     0.73290   0.01760   0.57730   0.01267  Uiso   1.00
H419   H     0.58970   0.05350   0.27900   0.01267  Uiso   1.00
H420   H     0.76950   0.22230   0.94630   0.01267  Uiso   1.00
H421   H     0.26710   0.01760   0.57730   0.01267  Uiso   1.00
H422   H     0.76950   0.72400   0.77770   0.01267  Uiso   1.00
H423   H     0.41030   0.05350   0.27900   0.01267  Uiso   1.00
H424   H     0.60180   0.88520   0.60810   0.01267  Uiso   1.00
H425   H     0.39210   0.22230   0.27020   0.01267  Uiso   1.00
H426   H     0.34560   0.66060   0.70510   0.01267  Uiso   1.00
H427   H     0.29940   0.78680   0.94680   0.01267  Uiso   1.00
H428   H     0.91840   0.05640   0.44210   0.01267  Uiso   1.00
H429   H     0.60180   0.27710   0.88520   0.01267  Uiso   1.00
H430   H     0.79280   0.04960   0.25830   0.01267  Uiso   1.00
H431   H     0.68170   0.71850   0.04910   0.01267  Uiso   1.00
H432   H     0.28580   0.63700   0.64870   0.01267  Uiso   1.00
H433   H     0.60180   0.60810   0.88520   0.01267  Uiso   1.00
H434   H     0.68610   0.09550   0.59040   0.01267  Uiso   1.00
H435   H     0.27770   0.04620   0.85000   0.01267  Uiso   1.00
H436   H     0.17630   0.82990   0.25830   0.01267  Uiso   1.00
H437   H     0.34560   0.33940   0.29490   0.01267  Uiso   1.00
H438   H     0.71420   0.98830   0.63700   0.01267  Uiso   1.00
H439   H     0.73290   0.98240   0.55970   0.01267  Uiso   1.00
H440   H     0.27770   0.85000   0.04620   0.01267  Uiso   1.00
H441   H     0.75330   0.89290   0.63850   0.01267  Uiso   1.00
H442   H     0.26710   0.44030   0.01760   0.01267  Uiso   1.00
H443   H     0.24670   0.36150   0.25440   0.01267  Uiso   1.00
H444   H     0.24670   0.89290   0.63850   0.01267  Uiso   1.00
H445   H     0.22160   0.10740   0.75950   0.01267  Uiso   1.00
H446   H     0.68170   0.28150   0.33060   0.01267  Uiso   1.00
H447   H     0.82370   0.57160   0.74170   0.01267  Uiso   1.00
H448   H     0.58970   0.22550   0.94650   0.01267  Uiso   1.00
H449   H     0.91840   0.61430   0.05640   0.01267  Uiso   1.00
H450   H     0.10300   0.45180   0.05810   0.01267  Uiso   1.00
H451   H     0.28580   0.35130   0.36300   0.01267  Uiso   1.00
H452   H     0.65440   0.95550   0.29490   0.01267  Uiso   1.00
H453   H     0.31390   0.59040   0.49490   0.01267  Uiso   1.00
H454   H     0.68170   0.66940   0.71850   0.01267  Uiso   1.00
H455   H     0.60790   0.04790   0.27020   0.01267  Uiso   1.00
H456   H     0.80050   0.44110   0.26960   0.01267  Uiso   1.00
C1     C     0.17040   0.02920   0.63540   0.01267  Uiso   1.00
C2     C     0.14590   0.38070   0.35180   0.01267  Uiso   1.00
C3     C     0.66500   0.30310   0.02660   0.01267  Uiso   1.00
C4     C     0.85180   0.87960   0.33360   0.01267  Uiso   1.00
C5     C     0.71930   0.00310   0.28970   0.01267  Uiso   1.00
C6     C     0.68980   0.29390   0.26420   0.01267  Uiso   1.00
C7     C     0.67800   0.46900   0.38540   0.01267  Uiso   1.00
C8     C     0.38310   0.83520   0.83760   0.01267  Uiso   1.00
C9     C     0.87320   0.11940   0.44370   0.01267  Uiso   1.00
C10    C     0.34030   0.20190   0.20470   0.01267  Uiso   1.00
C11    C     0.66500   0.27650   0.97340   0.01267  Uiso   1.00
C12    C     0.32200   0.46900   0.08360   0.01267  Uiso   1.00
C13    C     0.85410   0.02890   0.64820   0.01267  Uiso   1.00
C14    C     0.21100   0.36660   0.32200   0.01267  Uiso   1.00
C15    C     0.19070   0.86470   0.57220   0.01267  Uiso   1.00
C16    C     0.81520   0.04470   0.69250   0.01267  Uiso   1.00
C17    C     0.11180   0.33840   0.50020   0.01267  Uiso   1.00
C18    C     0.31020   0.70610   0.73580   0.01267  Uiso   1.00
C19    C     0.30760   0.77140   0.80340   0.01267  Uiso   1.00
C20    C     0.29400   0.96210   0.56900   0.01267  Uiso   1.00
C21    C     0.18480   0.30750   0.95530   0.01267  Uiso   1.00
C22    C     0.25550   0.27450   0.00080   0.01267  Uiso   1.00
C23    C     0.17040   0.02920   0.39380   0.01267  Uiso   1.00
C24    C     0.74450   0.27370   0.99920   0.01267  Uiso   1.00
C25    C     0.14820   0.33360   0.87960   0.01267  Uiso   1.00
C26    C     0.69240   0.22860   0.19660   0.01267  Uiso   1.00
C27    C     0.65970   0.20470   0.00280   0.01267  Uiso   1.00
C28    C     0.60700   0.50800   0.67100   0.01267  Uiso   1.00
C29    C     0.19070   0.13530   0.42780   0.01267  Uiso   1.00
C30    C     0.29400   0.39310   0.43100   0.01267  Uiso   1.00
C31    C     0.31020   0.73580   0.02970   0.01267  Uiso   1.00
C32    C     0.40180   0.17580   0.00300   0.01267  Uiso   1.00
C33    C     0.37160   0.30670   0.90500   0.01267  Uiso   1.00
C34    C     0.19620   0.63210   0.90290   0.01267  Uiso   1.00
C35    C     0.18480   0.64780   0.69250   0.01267  Uiso   1.00
C36    C     0.75590   0.22130   0.97160   0.01267  Uiso   1.00
C37    C     0.68980   0.26420   0.97030   0.01267  Uiso   1.00
C38    C     0.78900   0.63340   0.67800   0.01267  Uiso   1.00
C39    C     0.71930   0.71030   0.99690   0.01267  Uiso   1.00
C40    C     0.14590   0.38070   0.02890   0.01267  Uiso   1.00
C41    C     0.82960   0.39380   0.36460   0.01267  Uiso   1.00
C42    C     0.11180   0.50020   0.16180   0.01267  Uiso   1.00
C43    C     0.11240   0.42530   0.06650   0.01267  Uiso   1.00
C44    C     0.16770   0.71880   0.13380   0.01267  Uiso   1.00
C45    C     0.21100   0.36660   0.04460   0.01267  Uiso   1.00
C46    C     0.70600   0.39310   0.43100   0.01267  Uiso   1.00
C47    C     0.73250   0.96730   0.23360   0.01267  Uiso   1.00
C48    C     0.66500   0.72350   0.69690   0.01267  Uiso   1.00
C49    C     0.75590   0.97160   0.75030   0.01267  Uiso   1.00
C50    C     0.35320   0.22850   0.97050   0.01267  Uiso   1.00
C51    C     0.75590   0.75030   0.77870   0.01267  Uiso   1.00
C52    C     0.59820   0.82720   0.82420   0.01267  Uiso   1.00
C53    C     0.40180   0.82720   0.00300   0.01267  Uiso   1.00
C54    C     0.83230   0.86620   0.58500   0.01267  Uiso   1.00
C55    C     0.71930   0.71340   0.71030   0.01267  Uiso   1.00
C56    C     0.32200   0.91640   0.38540   0.01267  Uiso   1.00
C57    C     0.22080   0.61840   0.71570   0.01267  Uiso   1.00
C58    C     0.63950   0.54540   0.65790   0.01267  Uiso   1.00
C59    C     0.31020   0.02970   0.73580   0.01267  Uiso   1.00
C60    C     0.31020   0.02970   0.29390   0.01267  Uiso   1.00
C61    C     0.67800   0.53100   0.61460   0.01267  Uiso   1.00
C62    C     0.21100   0.32200   0.36660   0.01267  Uiso   1.00
C63    C     0.13530   0.93220   0.36800   0.01267  Uiso   1.00
C64    C     0.69240   0.19660   0.22860   0.01267  Uiso   1.00
C65    C     0.80380   0.72920   0.09710   0.01267  Uiso   1.00
C66    C     0.78900   0.36660   0.32200   0.01267  Uiso   1.00
C67    C     0.11240   0.93350   0.57470   0.01267  Uiso   1.00
C68    C     0.09580   0.66800   0.50670   0.01267  Uiso   1.00
C69    C     0.70600   0.03790   0.43100   0.01267  Uiso   1.00
C70    C     0.28610   0.18670   0.21350   0.01267  Uiso   1.00
C71    C     0.30500   0.35800   0.37800   0.01267  Uiso   1.00
C72    C     0.70600   0.39310   0.96210   0.01267  Uiso   1.00
C73    C     0.85180   0.66640   0.12040   0.01267  Uiso   1.00
C74    C     0.32200   0.53100   0.91640   0.01267  Uiso   1.00
C75    C     0.86470   0.56420   0.63200   0.01267  Uiso   1.00
C76    C     0.30500   0.37800   0.02000   0.01267  Uiso   1.00
C77    C     0.36050   0.88750   0.54540   0.01267  Uiso   1.00
C78    C     0.82960   0.63540   0.02920   0.01267  Uiso   1.00
C79    C     0.64680   0.97050   0.22850   0.01267  Uiso   1.00
C80    C     0.26750   0.76640   0.73370   0.01267  Uiso   1.00
C81    C     0.70600   0.56900   0.96210   0.01267  Uiso   1.00
C82    C     0.19620   0.27080   0.90290   0.01267  Uiso   1.00
C83    C     0.67800   0.38540   0.91640   0.01267  Uiso   1.00
C84    C     0.83230   0.28120   0.41500   0.01267  Uiso   1.00
C85    C     0.69240   0.80340   0.77140   0.01267  Uiso   1.00
C86    C     0.68980   0.02970   0.29390   0.01267  Uiso   1.00
C87    C     0.62840   0.30670   0.90500   0.01267  Uiso   1.00
C88    C     0.82960   0.97080   0.60620   0.01267  Uiso   1.00
C89    C     0.34400   0.36330   0.04930   0.01267  Uiso   1.00
C90    C     0.12680   0.11940   0.67570   0.01267  Uiso   1.00
C91    C     0.78900   0.32200   0.36660   0.01267  Uiso   1.00
C92    C     0.67800   0.61460   0.08360   0.01267  Uiso   1.00
C93    C     0.21100   0.63340   0.67800   0.01267  Uiso   1.00
C94    C     0.17040   0.36460   0.97080   0.01267  Uiso   1.00
C95    C     0.28610   0.21350   0.02680   0.01267  Uiso   1.00
C96    C     0.24410   0.75030   0.77870   0.01267  Uiso   1.00
C97    C     0.83230   0.13380   0.71880   0.01267  Uiso   1.00
C98    C     0.35320   0.74200   0.77150   0.01267  Uiso   1.00
C99    C     0.65600   0.04930   0.68600   0.01267  Uiso   1.00
C100   C     0.78900   0.95540   0.63340   0.01267  Uiso   1.00
C101   C     0.65970   0.20470   0.20190   0.01267  Uiso   1.00
C102   C     0.11180   0.66160   0.49980   0.01267  Uiso   1.00
C103   C     0.65600   0.31400   0.95070   0.01267  Uiso   1.00
C104   C     0.30760   0.22860   0.19660   0.01267  Uiso   1.00
C105   C     0.61690   0.99760   0.16240   0.01267  Uiso   1.00
C106   C     0.31020   0.97030   0.70610   0.01267  Uiso   1.00
C107   C     0.69500   0.37800   0.35800   0.01267  Uiso   1.00
C108   C     0.65970   0.00280   0.79810   0.01267  Uiso   1.00
C109   C     0.14820   0.33360   0.45400   0.01267  Uiso   1.00
C110   C     0.74450   0.72630   0.72550   0.01267  Uiso   1.00
C111   C     0.78900   0.67800   0.04460   0.01267  Uiso   1.00
C112   C     0.69500   0.98000   0.35800   0.01267  Uiso   1.00
C113   C     0.65970   0.20190   0.99720   0.01267  Uiso   1.00
C114   C     0.33500   0.30310   0.27650   0.01267  Uiso   1.00
C115   C     0.78900   0.95540   0.32200   0.01267  Uiso   1.00
C116   C     0.80930   0.86470   0.29250   0.01267  Uiso   1.00
C117   C     0.66500   0.69690   0.72350   0.01267  Uiso   1.00
C118   C     0.61690   0.00240   0.83760   0.01267  Uiso   1.00
C119   C     0.60700   0.49200   0.16300   0.01267  Uiso   1.00
C120   C     0.11180   0.16180   0.66160   0.01267  Uiso   1.00
C121   C     0.22080   0.09730   0.38160   0.01267  Uiso   1.00
C122   C     0.39300   0.83700   0.32900   0.01267  Uiso   1.00
C123   C     0.65970   0.99720   0.20190   0.01267  Uiso   1.00
C124   C     0.64680   0.97050   0.74200   0.01267  Uiso   1.00
C125   C     0.86470   0.43580   0.06780   0.01267  Uiso   1.00
C126   C     0.90420   0.33200   0.49330   0.01267  Uiso   1.00
C127   C     0.85410   0.02890   0.38070   0.01267  Uiso   1.00
C128   C     0.71390   0.21350   0.18670   0.01267  Uiso   1.00
C129   C     0.09580   0.16130   0.49330   0.01267  Uiso   1.00
C130   C     0.36050   0.88750   0.34210   0.01267  Uiso   1.00
C131   C     0.64680   0.74200   0.97050   0.01267  Uiso   1.00
C132   C     0.74450   0.72550   0.99920   0.01267  Uiso   1.00
C133   C     0.61690   0.83520   0.99760   0.01267  Uiso   1.00
C134   C     0.65600   0.95070   0.63670   0.01267  Uiso   1.00
C135   C     0.26750   0.76640   0.03270   0.01267  Uiso   1.00
C136   C     0.35320   0.25800   0.22850   0.01267  Uiso   1.00
C137   C     0.19620   0.27080   0.36790   0.01267  Uiso   1.00
C138   C     0.62540   0.26750   0.03070   0.01267  Uiso   1.00
C139   C     0.18480   0.30750   0.35220   0.01267  Uiso   1.00
C140   C     0.36050   0.54540   0.88750   0.01267  Uiso   1.00
C141   C     0.26750   0.23360   0.96730   0.01267  Uiso   1.00
C142   C     0.90420   0.50670   0.66800   0.01267  Uiso   1.00
C143   C     0.24410   0.02840   0.24970   0.01267  Uiso   1.00
C144   C     0.65970   0.99720   0.79530   0.01267  Uiso   1.00
C145   C     0.11180   0.83820   0.33840   0.01267  Uiso   1.00
C146   C     0.36050   0.34210   0.45460   0.01267  Uiso   1.00
C147   C     0.67800   0.08360   0.46900   0.01267  Uiso   1.00
C148   C     0.21100   0.95540   0.32200   0.01267  Uiso   1.00
C149   C     0.75590   0.24970   0.02840   0.01267  Uiso   1.00
C150   C     0.37160   0.09500   0.40170   0.01267  Uiso   1.00
C151   C     0.11180   0.49980   0.66160   0.01267  Uiso   1.00
C152   C     0.81520   0.64780   0.69250   0.01267  Uiso   1.00
C153   C     0.73250   0.26630   0.03270   0.01267  Uiso   1.00
C154   C     0.85180   0.54600   0.66640   0.01267  Uiso   1.00
C155   C     0.60700   0.16300   0.49200   0.01267  Uiso   1.00
C156   C     0.83230   0.58500   0.71880   0.01267  Uiso   1.00
C157   C     0.68980   0.29390   0.02970   0.01267  Uiso   1.00
C158   C     0.75590   0.77870   0.02840   0.01267  Uiso   1.00
C159   C     0.85180   0.12040   0.45400   0.01267  Uiso   1.00
C160   C     0.62540   0.73250   0.76320   0.01267  Uiso   1.00
C161   C     0.65600   0.63670   0.95070   0.01267  Uiso   1.00
C162   C     0.24410   0.75030   0.97160   0.01267  Uiso   1.00
C163   C     0.34030   0.99720   0.79530   0.01267  Uiso   1.00
C164   C     0.22080   0.71570   0.61840   0.01267  Uiso   1.00
C165   C     0.85180   0.54600   0.87960   0.01267  Uiso   1.00
C166   C     0.62840   0.09500   0.40170   0.01267  Uiso   1.00
C167   C     0.35320   0.77150   0.02950   0.01267  Uiso   1.00
C168   C     0.30760   0.77140   0.96800   0.01267  Uiso   1.00
C169   C     0.63950   0.11250   0.65790   0.01267  Uiso   1.00
C170   C     0.71390   0.02680   0.21350   0.01267  Uiso   1.00
C171   C     0.33500   0.69690   0.72350   0.01267  Uiso   1.00
C172   C     0.61690   0.16240   0.16480   0.01267  Uiso   1.00
C173   C     0.28610   0.97320   0.18670   0.01267  Uiso   1.00
C174   C     0.83230   0.13380   0.41500   0.01267  Uiso   1.00
C175   C     0.69240   0.77140   0.80340   0.01267  Uiso   1.00
C176   C     0.87320   0.55630   0.88060   0.01267  Uiso   1.00
C177   C     0.12680   0.44370   0.11940   0.01267  Uiso   1.00
C178   C     0.77920   0.09730   0.38160   0.01267  Uiso   1.00
C179   C     0.86470   0.93220   0.56420   0.01267  Uiso   1.00
C180   C     0.59820   0.82420   0.99700   0.01267  Uiso   1.00
C181   C     0.17040   0.60620   0.97080   0.01267  Uiso   1.00
C182   C     0.35320   0.22850   0.25800   0.01267  Uiso   1.00
C183   C     0.60700   0.32900   0.49200   0.01267  Uiso   1.00
C184   C     0.59820   0.00300   0.17580   0.01267  Uiso   1.00
C185   C     0.85410   0.38070   0.35180   0.01267  Uiso   1.00
C186   C     0.83230   0.41500   0.28120   0.01267  Uiso   1.00
C187   C     0.64680   0.25800   0.22850   0.01267  Uiso   1.00
C188   C     0.75590   0.02840   0.24970   0.01267  Uiso   1.00
C189   C     0.71930   0.00310   0.71340   0.01267  Uiso   1.00
C190   C     0.14820   0.45400   0.12040   0.01267  Uiso   1.00
C191   C     0.39300   0.50800   0.67100   0.01267  Uiso   1.00
C192   C     0.59820   0.17580   0.00300   0.01267  Uiso   1.00
C193   C     0.37460   0.26750   0.23680   0.01267  Uiso   1.00
C194   C     0.24410   0.24970   0.02840   0.01267  Uiso   1.00
C195   C     0.16770   0.86620   0.28120   0.01267  Uiso   1.00
C196   C     0.32200   0.08360   0.61460   0.01267  Uiso   1.00
C197   C     0.77920   0.61840   0.71570   0.01267  Uiso   1.00
C198   C     0.71390   0.97320   0.78650   0.01267  Uiso   1.00
C199   C     0.18480   0.04470   0.69250   0.01267  Uiso   1.00
C200   C     0.19620   0.72920   0.63210   0.01267  Uiso   1.00
C201   C     0.69240   0.03200   0.80340   0.01267  Uiso   1.00
C202   C     0.82960   0.60620   0.63540   0.01267  Uiso   1.00
C203   C     0.19070   0.70750   0.57220   0.01267  Uiso   1.00
C204   C     0.35320   0.97050   0.74200   0.01267  Uiso   1.00
C205   C     0.24410   0.02840   0.77870   0.01267  Uiso   1.00
C206   C     0.90420   0.16130   0.66800   0.01267  Uiso   1.00
C207   C     0.40180   0.82420   0.99700   0.01267  Uiso   1.00
C208   C     0.16770   0.71880   0.58500   0.01267  Uiso   1.00
C209   C     0.86470   0.93220   0.36800   0.01267  Uiso   1.00
C210   C     0.39300   0.16300   0.49200   0.01267  Uiso   1.00
C211   C     0.60700   0.67100   0.50800   0.01267  Uiso   1.00
C212   C     0.88820   0.50020   0.33840   0.01267  Uiso   1.00
C213   C     0.86470   0.56420   0.93220   0.01267  Uiso   1.00
C214   C     0.75590   0.75030   0.97160   0.01267  Uiso   1.00
C215   C     0.66500   0.69690   0.97340   0.01267  Uiso   1.00
C216   C     0.69240   0.22860   0.03200   0.01267  Uiso   1.00
C217   C     0.85180   0.66640   0.54600   0.01267  Uiso   1.00
C218   C     0.36050   0.65790   0.54540   0.01267  Uiso   1.00
C219   C     0.73250   0.76640   0.73370   0.01267  Uiso   1.00
C220   C     0.33500   0.72350   0.69690   0.01267  Uiso   1.00
C221   C     0.37460   0.03070   0.26750   0.01267  Uiso   1.00
C222   C     0.18480   0.95530   0.30750   0.01267  Uiso   1.00
C223   C     0.11240   0.35880   0.42530   0.01267  Uiso   1.00
C224   C     0.66500   0.97340   0.27650   0.01267  Uiso   1.00
C225   C     0.37160   0.30670   0.40170   0.01267  Uiso   1.00
C226   C     0.36050   0.65790   0.11250   0.01267  Uiso   1.00
C227   C     0.26750   0.26630   0.23360   0.01267  Uiso   1.00
C228   C     0.13530   0.06780   0.43580   0.01267  Uiso   1.00
C229   C     0.82960   0.63540   0.60620   0.01267  Uiso   1.00
C230   C     0.80380   0.63210   0.72920   0.01267  Uiso   1.00
C231   C     0.17040   0.36460   0.39380   0.01267  Uiso   1.00
C232   C     0.62840   0.90500   0.30670   0.01267  Uiso   1.00
C233   C     0.19620   0.90290   0.63210   0.01267  Uiso   1.00
C234   C     0.77920   0.61840   0.90270   0.01267  Uiso   1.00
C235   C     0.68980   0.70610   0.73580   0.01267  Uiso   1.00
C236   C     0.88760   0.06650   0.42530   0.01267  Uiso   1.00
C237   C     0.39300   0.32900   0.49200   0.01267  Uiso   1.00
C238   C     0.80930   0.42780   0.13530   0.01267  Uiso   1.00
C239   C     0.69240   0.96800   0.19660   0.01267  Uiso   1.00
C240   C     0.87320   0.88060   0.32430   0.01267  Uiso   1.00
C241   C     0.21100   0.63340   0.95540   0.01267  Uiso   1.00
C242   C     0.34400   0.68600   0.04930   0.01267  Uiso   1.00
C243   C     0.64680   0.02950   0.77150   0.01267  Uiso   1.00
C244   C     0.60700   0.16300   0.67100   0.01267  Uiso   1.00
C245   C     0.39300   0.49200   0.16300   0.01267  Uiso   1.00
C246   C     0.38310   0.16240   0.99760   0.01267  Uiso   1.00
C247   C     0.62540   0.23680   0.96930   0.01267  Uiso   1.00
C248   C     0.90420   0.66800   0.16130   0.01267  Uiso   1.00
C249   C     0.90420   0.33200   0.83870   0.01267  Uiso   1.00
C250   C     0.66500   0.02660   0.72350   0.01267  Uiso   1.00
C251   C     0.18480   0.69250   0.04470   0.01267  Uiso   1.00
C252   C     0.34400   0.68600   0.63670   0.01267  Uiso   1.00
C253   C     0.21100   0.67800   0.04460   0.01267  Uiso   1.00
C254   C     0.38310   0.16480   0.00240   0.01267  Uiso   1.00
C255   C     0.28070   0.28970   0.28660   0.01267  Uiso   1.00
C256   C     0.75590   0.24970   0.22130   0.01267  Uiso   1.00
C257   C     0.70600   0.43100   0.39310   0.01267  Uiso   1.00
C258   C     0.65600   0.36330   0.31400   0.01267  Uiso   1.00
C259   C     0.19070   0.13530   0.70750   0.01267  Uiso   1.00
C260   C     0.90420   0.50670   0.83870   0.01267  Uiso   1.00
C261   C     0.75590   0.02840   0.77870   0.01267  Uiso   1.00
C262   C     0.61690   0.99760   0.83520   0.01267  Uiso   1.00
C263   C     0.28610   0.81330   0.02680   0.01267  Uiso   1.00
C264   C     0.69240   0.96800   0.77140   0.01267  Uiso   1.00
C265   C     0.09580   0.83870   0.50670   0.01267  Uiso   1.00
C266   C     0.11180   0.66160   0.16180   0.01267  Uiso   1.00
C267   C     0.13530   0.56420   0.93220   0.01267  Uiso   1.00
C268   C     0.38310   0.00240   0.16480   0.01267  Uiso   1.00
C269   C     0.36050   0.11250   0.65790   0.01267  Uiso   1.00
C270   C     0.19620   0.90290   0.27080   0.01267  Uiso   1.00
C271   C     0.71930   0.71340   0.00310   0.01267  Uiso   1.00
C272   C     0.22080   0.90270   0.28430   0.01267  Uiso   1.00
C273   C     0.33500   0.69690   0.97340   0.01267  Uiso   1.00
C274   C     0.85410   0.35180   0.97110   0.01267  Uiso   1.00
C275   C     0.70600   0.56900   0.60690   0.01267  Uiso   1.00
C276   C     0.38310   0.99760   0.16240   0.01267  Uiso   1.00
C277   C     0.19070   0.70750   0.13530   0.01267  Uiso   1.00
C278   C     0.36050   0.34210   0.88750   0.01267  Uiso   1.00
C279   C     0.34400   0.31400   0.36330   0.01267  Uiso   1.00
C280   C     0.19070   0.29250   0.86470   0.01267  Uiso   1.00
C281   C     0.61690   0.16240   0.99760   0.01267  Uiso   1.00
C282   C     0.30760   0.03200   0.22860   0.01267  Uiso   1.00
C283   C     0.88760   0.93350   0.57470   0.01267  Uiso   1.00
C284   C     0.39300   0.83700   0.50800   0.01267  Uiso   1.00
C285   C     0.70600   0.60690   0.56900   0.01267  Uiso   1.00
C286   C     0.62840   0.59830   0.90500   0.01267  Uiso   1.00
C287   C     0.22080   0.28430   0.90270   0.01267  Uiso   1.00
C288   C     0.73250   0.23360   0.26630   0.01267  Uiso   1.00
C289   C     0.39300   0.16300   0.67100   0.01267  Uiso   1.00
C290   C     0.64010   0.78540   0.78540   0.01267  Uiso   1.00
C291   C     0.11240   0.42530   0.35880   0.01267  Uiso   1.00
C292   C     0.36050   0.11250   0.45460   0.01267  Uiso   1.00
C293   C     0.37160   0.69330   0.59830   0.01267  Uiso   1.00
C294   C     0.88760   0.64120   0.06650   0.01267  Uiso   1.00
C295   C     0.90420   0.83870   0.33200   0.01267  Uiso   1.00
C296   C     0.29400   0.43100   0.03790   0.01267  Uiso   1.00
C297   C     0.87320   0.11940   0.67570   0.01267  Uiso   1.00
C298   C     0.28610   0.78650   0.81330   0.01267  Uiso   1.00
C299   C     0.28610   0.78650   0.97320   0.01267  Uiso   1.00
C300   C     0.24410   0.24970   0.22130   0.01267  Uiso   1.00
C301   C     0.80930   0.13530   0.42780   0.01267  Uiso   1.00
C302   C     0.73250   0.73370   0.76640   0.01267  Uiso   1.00
C303   C     0.62840   0.69330   0.59830   0.01267  Uiso   1.00
C304   C     0.86470   0.06780   0.43580   0.01267  Uiso   1.00
C305   C     0.60700   0.83700   0.32900   0.01267  Uiso   1.00
C306   C     0.39300   0.50800   0.83700   0.01267  Uiso   1.00
C307   C     0.65600   0.63670   0.68600   0.01267  Uiso   1.00
C308   C     0.59820   0.00300   0.82720   0.01267  Uiso   1.00
C309   C     0.13530   0.36800   0.93220   0.01267  Uiso   1.00
C310   C     0.85180   0.12040   0.66640   0.01267  Uiso   1.00
C311   C     0.34030   0.79530   0.79810   0.01267  Uiso   1.00
C312   C     0.38310   0.16480   0.16240   0.01267  Uiso   1.00
C313   C     0.85180   0.45400   0.33360   0.01267  Uiso   1.00
C314   C     0.71930   0.28970   0.28660   0.01267  Uiso   1.00
C315   C     0.30500   0.02000   0.37800   0.01267  Uiso   1.00
C316   C     0.22080   0.38160   0.09730   0.01267  Uiso   1.00
C317   C     0.78900   0.32200   0.95540   0.01267  Uiso   1.00
C318   C     0.59820   0.17280   0.17580   0.01267  Uiso   1.00
C319   C     0.59820   0.17280   0.99700   0.01267  Uiso   1.00
C320   C     0.90420   0.49330   0.33200   0.01267  Uiso   1.00
C321   C     0.78900   0.04460   0.67800   0.01267  Uiso   1.00
C322   C     0.77920   0.90270   0.28430   0.01267  Uiso   1.00
C323   C     0.28610   0.97320   0.78650   0.01267  Uiso   1.00
C324   C     0.25550   0.27450   0.27370   0.01267  Uiso   1.00
C325   C     0.35320   0.74200   0.97050   0.01267  Uiso   1.00
C326   C     0.09580   0.33200   0.83870   0.01267  Uiso   1.00
C327   C     0.63950   0.45460   0.34210   0.01267  Uiso   1.00
C328   C     0.70600   0.96210   0.39310   0.01267  Uiso   1.00
C329   C     0.40180   0.82720   0.82420   0.01267  Uiso   1.00
C330   C     0.26750   0.26630   0.03270   0.01267  Uiso   1.00
C331   C     0.77920   0.09730   0.71570   0.01267  Uiso   1.00
C332   C     0.36050   0.45460   0.11250   0.01267  Uiso   1.00
C333   C     0.37460   0.73250   0.76320   0.01267  Uiso   1.00
C334   C     0.86470   0.36800   0.43580   0.01267  Uiso   1.00
C335   C     0.35990  -0.00000   0.21460   0.01267  Uiso   1.00
C336   C     0.66500   0.30310   0.27650   0.01267  Uiso   1.00
C337   C     0.80930   0.70750   0.57220   0.01267  Uiso   1.00
C338   C     0.12680   0.67570   0.55630   0.01267  Uiso   1.00
C339   C     0.64680   0.77150   0.02950   0.01267  Uiso   1.00
C340   C     0.37160   0.59830   0.90500   0.01267  Uiso   1.00
C341   C     0.30760   0.19660   0.96800   0.01267  Uiso   1.00
C342   C     0.38310   0.16240   0.16480   0.01267  Uiso   1.00
C343   C     0.11180   0.16180   0.50020   0.01267  Uiso   1.00
C344   C     0.62540   0.76320   0.03070   0.01267  Uiso   1.00
C345   C     0.68980   0.26420   0.29390   0.01267  Uiso   1.00
C346   C     0.81520   0.30750   0.35220   0.01267  Uiso   1.00
C347   C     0.63950   0.88750   0.54540   0.01267  Uiso   1.00
C348   C     0.82960   0.97080   0.36460   0.01267  Uiso   1.00
C349   C     0.28610   0.21350   0.18670   0.01267  Uiso   1.00
C350   C     0.26750   0.73370   0.76640   0.01267  Uiso   1.00
C351   C     0.19620   0.09710   0.36790   0.01267  Uiso   1.00
C352   C     0.33500   0.72350   0.02660   0.01267  Uiso   1.00
C353   C     0.90420   0.83870   0.50670   0.01267  Uiso   1.00
C354   C     0.71390   0.81330   0.02680   0.01267  Uiso   1.00
C355   C     0.29400   0.60690   0.03790   0.01267  Uiso   1.00
C356   C     0.68980   0.97030   0.26420   0.01267  Uiso   1.00
C357   C     0.16770   0.86620   0.58500   0.01267  Uiso   1.00
C358   C     0.30500   0.64200   0.62200   0.01267  Uiso   1.00
C359   C     0.77920   0.28430   0.38160   0.01267  Uiso   1.00
C360   C     0.21100   0.04460   0.36660   0.01267  Uiso   1.00
C361   C     0.30500   0.98000   0.35800   0.01267  Uiso   1.00
C362   C     0.26750   0.96730   0.23360   0.01267  Uiso   1.00
C363   C     0.17040   0.39380   0.36460   0.01267  Uiso   1.00
C364   C     0.62840   0.69330   0.09500   0.01267  Uiso   1.00
C365   C     0.37460   0.73250   0.96930   0.01267  Uiso   1.00
C366   C     0.82960   0.39380   0.02920   0.01267  Uiso   1.00
C367   C     0.63950   0.34210   0.45460   0.01267  Uiso   1.00
C368   C     0.29400   0.56900   0.96210   0.01267  Uiso   1.00
C369   C     0.80930   0.29250   0.42780   0.01267  Uiso   1.00
C370   C     0.35320   0.25800   0.02950   0.01267  Uiso   1.00
C371   C     0.62840   0.09500   0.69330   0.01267  Uiso   1.00
C372   C     0.21100   0.32200   0.95540   0.01267  Uiso   1.00
C373   C     0.09580   0.66800   0.16130   0.01267  Uiso   1.00
C374   C     0.25550   0.00080   0.27450   0.01267  Uiso   1.00
C375   C     0.16770   0.28120   0.86620   0.01267  Uiso   1.00
C376   C     0.34400   0.95070   0.31400   0.01267  Uiso   1.00
C377   C     0.21100   0.04460   0.67800   0.01267  Uiso   1.00
C378   C     0.86470   0.36800   0.93220   0.01267  Uiso   1.00
C379   C     0.32200   0.61460   0.08360   0.01267  Uiso   1.00
C380   C     0.69500   0.64200   0.62200   0.01267  Uiso   1.00
C381   C     0.69240   0.77140   0.96800   0.01267  Uiso   1.00
C382   C     0.33500   0.27650   0.97340   0.01267  Uiso   1.00
C383   C     0.86470   0.63200   0.06780   0.01267  Uiso   1.00
C384   C     0.29400   0.03790   0.43100   0.01267  Uiso   1.00
C385   C     0.75590   0.77870   0.75030   0.01267  Uiso   1.00
C386   C     0.69240   0.80340   0.03200   0.01267  Uiso   1.00
C387   C     0.63950   0.45460   0.11250   0.01267  Uiso   1.00
C388   C     0.28070   0.28970   0.00310   0.01267  Uiso   1.00
C389   C     0.71930   0.99690   0.71030   0.01267  Uiso   1.00
C390   C     0.12680   0.44370   0.32430   0.01267  Uiso   1.00
C391   C     0.33500   0.02660   0.30310   0.01267  Uiso   1.00
C392   C     0.60700   0.49200   0.32900   0.01267  Uiso   1.00
C393   C     0.16770   0.13380   0.71880   0.01267  Uiso   1.00
C394   C     0.13530   0.06780   0.63200   0.01267  Uiso   1.00
C395   C     0.77920   0.28430   0.90270   0.01267  Uiso   1.00
C396   C     0.12680   0.11940   0.44370   0.01267  Uiso   1.00
C397   C     0.35990   0.78540  -0.00000   0.01267  Uiso   1.00
C398   C     0.11240   0.57470   0.93350   0.01267  Uiso   1.00
C399   C     0.09580   0.83870   0.33200   0.01267  Uiso   1.00
C400   C     0.19620   0.36790   0.27080   0.01267  Uiso   1.00
C401   C     0.80930   0.57220   0.86470   0.01267  Uiso   1.00
C402   C     0.34400   0.63670   0.95070   0.01267  Uiso   1.00
C403   C     0.37160   0.90500   0.30670   0.01267  Uiso   1.00
C404   C     0.14820   0.12040   0.45400   0.01267  Uiso   1.00
C405   C     0.26750   0.03270   0.76640   0.01267  Uiso   1.00
C406   C     0.88820   0.66160   0.49980   0.01267  Uiso   1.00
C407   C     0.35320   0.02950   0.77150   0.01267  Uiso   1.00
C408   C     0.30500   0.64200   0.02000   0.01267  Uiso   1.00
C409   C     0.21100   0.67800   0.63340   0.01267  Uiso   1.00
C410   C     0.64010  -0.00000   0.78540   0.01267  Uiso   1.00
C411   C     0.11180   0.49980   0.83820   0.01267  Uiso   1.00
C412   C     0.69240   0.19660   0.96800   0.01267  Uiso   1.00
C413   C     0.62540   0.26750   0.23680   0.01267  Uiso   1.00
C414   C     0.32200   0.08360   0.46900   0.01267  Uiso   1.00
C415   C     0.35990   0.78540   0.78540   0.01267  Uiso   1.00
C416   C     0.30760   0.96800   0.19660   0.01267  Uiso   1.00
C417   C     0.85180   0.45400   0.12040   0.01267  Uiso   1.00
C418   C     0.37460   0.96930   0.73250   0.01267  Uiso   1.00
C419   C     0.59820   0.99700   0.82420   0.01267  Uiso   1.00
C420   C     0.60700   0.67100   0.16300   0.01267  Uiso   1.00
C421   C     0.37160   0.40170   0.30670   0.01267  Uiso   1.00
C422   C     0.30760   0.19660   0.22860   0.01267  Uiso   1.00
C423   C     0.77920   0.90270   0.61840   0.01267  Uiso   1.00
C424   C     0.80930   0.70750   0.13530   0.01267  Uiso   1.00
C425   C     0.35990   0.21460  -0.00000   0.01267  Uiso   1.00
C426   C     0.33500   0.97340   0.69690   0.01267  Uiso   1.00
C427   C     0.11240   0.06650   0.64120   0.01267  Uiso   1.00
C428   C     0.32200   0.38540   0.91640   0.01267  Uiso   1.00
C429   C     0.61690   0.83760   0.83520   0.01267  Uiso   1.00
C430   C     0.34400   0.04930   0.68600   0.01267  Uiso   1.00
C431   C     0.31020   0.26420   0.29390   0.01267  Uiso   1.00
C432   C     0.38310   0.99760   0.83520   0.01267  Uiso   1.00
C433   C     0.78900   0.67800   0.63340   0.01267  Uiso   1.00
C434   C     0.69500   0.98000   0.62200   0.01267  Uiso   1.00
C435   C     0.88820   0.50020   0.16180   0.01267  Uiso   1.00
C436   C     0.62540   0.23680   0.26750   0.01267  Uiso   1.00
C437   C     0.30500   0.37800   0.35800   0.01267  Uiso   1.00
C438   C     0.78900   0.63340   0.95540   0.01267  Uiso   1.00
C439   C     0.39300   0.67100   0.50800   0.01267  Uiso   1.00
C440   C     0.37460   0.96930   0.23680   0.01267  Uiso   1.00
C441   C     0.09580   0.33200   0.49330   0.01267  Uiso   1.00
C442   C     0.40180   0.00300   0.17580   0.01267  Uiso   1.00
C443   C     0.14820   0.66640   0.54600   0.01267  Uiso   1.00
C444   C     0.12680   0.67570   0.11940   0.01267  Uiso   1.00
C445   C     0.62540   0.96930   0.73250   0.01267  Uiso   1.00
C446   C     0.13530   0.43580   0.06780   0.01267  Uiso   1.00
C447   C     0.13530   0.36800   0.43580   0.01267  Uiso   1.00
C448   C     0.88760   0.42530   0.35880   0.01267  Uiso   1.00
C449   C     0.40180   0.17580   0.17280   0.01267  Uiso   1.00
C450   C     0.71390   0.02680   0.81330   0.01267  Uiso   1.00
C451   C     0.28610   0.02680   0.81330   0.01267  Uiso   1.00
C452   C     0.59820   0.17580   0.17280   0.01267  Uiso   1.00
C453   C     0.85410   0.64820   0.02890   0.01267  Uiso   1.00
C454   C     0.13530   0.63200   0.56420   0.01267  Uiso   1.00
C455   C     0.69240   0.03200   0.22860   0.01267  Uiso   1.00
C456   C     0.24410   0.77870   0.75030   0.01267  Uiso   1.00
C457   C     0.83230   0.58500   0.86620   0.01267  Uiso   1.00
C458   C     0.86470   0.06780   0.63200   0.01267  Uiso   1.00
C459   C     0.19620   0.72920   0.09710   0.01267  Uiso   1.00
C460   C     0.73250   0.03270   0.76640   0.01267  Uiso   1.00
C461   C     0.73250   0.96730   0.73370   0.01267  Uiso   1.00
C462   C     0.59820   0.82420   0.82720   0.01267  Uiso   1.00
C463   C     0.64680   0.22850   0.97050   0.01267  Uiso   1.00
C464   C     0.25550   0.99920   0.72550   0.01267  Uiso   1.00
C465   C     0.88760   0.42530   0.06650   0.01267  Uiso   1.00
C466   C     0.73250   0.03270   0.26630   0.01267  Uiso   1.00
C467   C     0.81520   0.69250   0.04470   0.01267  Uiso   1.00
C468   C     0.81520   0.64780   0.95530   0.01267  Uiso   1.00
C469   C     0.70600   0.60690   0.03790   0.01267  Uiso   1.00
C470   C     0.29400   0.39310   0.96210   0.01267  Uiso   1.00
C471   C     0.22080   0.61840   0.90270   0.01267  Uiso   1.00
C472   C     0.59820   0.82720   0.00300   0.01267  Uiso   1.00
C473   C     0.80380   0.27080   0.36790   0.01267  Uiso   1.00
C474   C     0.34400   0.95070   0.63670   0.01267  Uiso   1.00
C475   C     0.77920   0.71570   0.09730   0.01267  Uiso   1.00
C476   C     0.30500   0.02000   0.64200   0.01267  Uiso   1.00
C477   C     0.61690   0.83520   0.83760   0.01267  Uiso   1.00
C478   C     0.90420   0.16130   0.49330   0.01267  Uiso   1.00
C479   C     0.14820   0.66640   0.12040   0.01267  Uiso   1.00
C480   C     0.87320   0.55630   0.67570   0.01267  Uiso   1.00
C481   C     0.37160   0.59830   0.69330   0.01267  Uiso   1.00
C482   C     0.14590   0.64820   0.02890   0.01267  Uiso   1.00
C483   C     0.65600   0.04930   0.36330   0.01267  Uiso   1.00
C484   C     0.38310   0.83520   0.99760   0.01267  Uiso   1.00
C485   C     0.34030   0.20470   0.00280   0.01267  Uiso   1.00
C486   C     0.35990   0.21460   0.21460   0.01267  Uiso   1.00
C487   C     0.28070   0.99690   0.28660   0.01267  Uiso   1.00
C488   C     0.65600   0.36330   0.04930   0.01267  Uiso   1.00
C489   C     0.28070   0.71340   0.71030   0.01267  Uiso   1.00
C490   C     0.28070   0.28660   0.99690   0.01267  Uiso   1.00
C491   C     0.40180   0.17280   0.99700   0.01267  Uiso   1.00
C492   C     0.78900   0.04460   0.36660   0.01267  Uiso   1.00
C493   C     0.19070   0.42780   0.13530   0.01267  Uiso   1.00
C494   C     0.87320   0.67570   0.55630   0.01267  Uiso   1.00
C495   C     0.85410   0.64820   0.61930   0.01267  Uiso   1.00
C496   C     0.82960   0.60620   0.97080   0.01267  Uiso   1.00
C497   C     0.25550   0.72550   0.99920   0.01267  Uiso   1.00
C498   C     0.63950   0.11250   0.45460   0.01267  Uiso   1.00
C499   C     0.71930   0.99690   0.28660   0.01267  Uiso   1.00
C500   C     0.13530   0.93220   0.56420   0.01267  Uiso   1.00
C501   C     0.28610   0.02680   0.21350   0.01267  Uiso   1.00
C502   C     0.30500   0.62200   0.98000   0.01267  Uiso   1.00
C503   C     0.62840   0.59830   0.69330   0.01267  Uiso   1.00
C504   C     0.88760   0.64120   0.57470   0.01267  Uiso   1.00
C505   C     0.67800   0.38540   0.46900   0.01267  Uiso   1.00
C506   C     0.83230   0.71880   0.58500   0.01267  Uiso   1.00
C507   C     0.88820   0.49980   0.83820   0.01267  Uiso   1.00
C508   C     0.80930   0.86470   0.57220   0.01267  Uiso   1.00
C509   C     0.69500   0.35800   0.37800   0.01267  Uiso   1.00
C510   C     0.34030   0.00280   0.79810   0.01267  Uiso   1.00
C511   C     0.24410   0.22130   0.97160   0.01267  Uiso   1.00
C512   C     0.69500   0.62200   0.98000   0.01267  Uiso   1.00
C513   C     0.66500   0.02660   0.30310   0.01267  Uiso   1.00
C514   C     0.34030   0.79810   0.79530   0.01267  Uiso   1.00
C515   C     0.17040   0.60620   0.63540   0.01267  Uiso   1.00
C516   C     0.09580   0.49330   0.16130   0.01267  Uiso   1.00
C517   C     0.14590   0.61930   0.64820   0.01267  Uiso   1.00
C518   C     0.26750   0.73370   0.96730   0.01267  Uiso   1.00
C519   C     0.65970   0.79810   0.00280   0.01267  Uiso   1.00
C520   C     0.64680   0.74200   0.77150   0.01267  Uiso   1.00
C521   C     0.87320   0.32430   0.44370   0.01267  Uiso   1.00
C522   C     0.40180   0.00300   0.82720   0.01267  Uiso   1.00
C523   C     0.34400   0.04930   0.36330   0.01267  Uiso   1.00
C524   C     0.81520   0.69250   0.64780   0.01267  Uiso   1.00
C525   C     0.88820   0.83820   0.49980   0.01267  Uiso   1.00
C526   C     0.40180   0.99700   0.82420   0.01267  Uiso   1.00
C527   C     0.85410   0.35180   0.38070   0.01267  Uiso   1.00
C528   C     0.60700   0.50800   0.83700   0.01267  Uiso   1.00
C529   C     0.36050   0.45460   0.34210   0.01267  Uiso   1.00
C530   C     0.22080   0.38160   0.28430   0.01267  Uiso   1.00
C531   C     0.74450   0.99920   0.27370   0.01267  Uiso   1.00
C532   C     0.09580   0.50670   0.66800   0.01267  Uiso   1.00
C533   C     0.34030   0.20190   0.99720   0.01267  Uiso   1.00
C534   C     0.88820   0.16180   0.66160   0.01267  Uiso   1.00
C535   C     0.30500   0.35800   0.98000   0.01267  Uiso   1.00
C536   C     0.37460   0.76320   0.73250   0.01267  Uiso   1.00
C537   C     0.34030   0.79810   0.00280   0.01267  Uiso   1.00
C538   C     0.82960   0.02920   0.63540   0.01267  Uiso   1.00
C539   C     0.65600   0.68600   0.63670   0.01267  Uiso   1.00
C540   C     0.39300   0.49200   0.32900   0.01267  Uiso   1.00
C541   C     0.39300   0.67100   0.16300   0.01267  Uiso   1.00
C542   C     0.88760   0.93350   0.35880   0.01267  Uiso   1.00
C543   C     0.14590   0.64820   0.61930   0.01267  Uiso   1.00
C544   C     0.65970   0.20190   0.20470   0.01267  Uiso   1.00
C545   C     0.82960   0.36460   0.39380   0.01267  Uiso   1.00
C546   C     0.62540   0.03070   0.76320   0.01267  Uiso   1.00
C547   C     0.69500   0.62200   0.64200   0.01267  Uiso   1.00
C548   C     0.71390   0.18670   0.21350   0.01267  Uiso   1.00
C549   C     0.65970   0.79530   0.99720   0.01267  Uiso   1.00
C550   C     0.62540   0.76320   0.73250   0.01267  Uiso   1.00
C551   C     0.19070   0.42780   0.29250   0.01267  Uiso   1.00
C552   C     0.19070   0.57220   0.86470   0.01267  Uiso   1.00
C553   C     0.30760   0.22860   0.03200   0.01267  Uiso   1.00
C554   C     0.71390   0.78650   0.81330   0.01267  Uiso   1.00
C555   C     0.88760   0.57470   0.93350   0.01267  Uiso   1.00
C556   C     0.11240   0.35880   0.93350   0.01267  Uiso   1.00
C557   C     0.09580   0.16130   0.66800   0.01267  Uiso   1.00
C558   C     0.14590   0.35180   0.97110   0.01267  Uiso   1.00
C559   C     0.82960   0.02920   0.39380   0.01267  Uiso   1.00
C560   C     0.77920   0.71570   0.61840   0.01267  Uiso   1.00
C561   C     0.31020   0.70610   0.97030   0.01267  Uiso   1.00
C562   C     0.26750   0.96730   0.73370   0.01267  Uiso   1.00
C563   C     0.28070   0.28660   0.28970   0.01267  Uiso   1.00
C564   C     0.14820   0.45400   0.33360   0.01267  Uiso   1.00
C565   C     0.29400   0.43100   0.39310   0.01267  Uiso   1.00
C566   C     0.90420   0.49330   0.16130   0.01267  Uiso   1.00
C567   C     0.34030   0.79530   0.99720   0.01267  Uiso   1.00
C568   C     0.64010   0.21460  -0.00000   0.01267  Uiso   1.00
C569   C     0.34400   0.31400   0.95070   0.01267  Uiso   1.00
C570   C     0.30500   0.98000   0.62200   0.01267  Uiso   1.00
C571   C     0.80380   0.90290   0.63210   0.01267  Uiso   1.00
C572   C     0.19620   0.36790   0.09710   0.01267  Uiso   1.00
C573   C     0.16770   0.28120   0.41500   0.01267  Uiso   1.00
C574   C     0.28070   0.00310   0.28970   0.01267  Uiso   1.00
C575   C     0.81520   0.04470   0.35220   0.01267  Uiso   1.00
C576   C     0.90420   0.66800   0.50670   0.01267  Uiso   1.00
C577   C     0.63950   0.34210   0.88750   0.01267  Uiso   1.00
C578   C     0.34030   0.99720   0.20190   0.01267  Uiso   1.00
C579   C     0.31020   0.73580   0.70610   0.01267  Uiso   1.00
C580   C     0.17040   0.63540   0.02920   0.01267  Uiso   1.00
C581   C     0.19070   0.86470   0.29250   0.01267  Uiso   1.00
C582   C     0.29400   0.96210   0.39310   0.01267  Uiso   1.00
C583   C     0.18480   0.64780   0.95530   0.01267  Uiso   1.00
C584   C     0.88820   0.16180   0.50020   0.01267  Uiso   1.00
C585   C     0.73250   0.23360   0.96730   0.01267  Uiso   1.00
C586   C     0.39300   0.32900   0.83700   0.01267  Uiso   1.00
C587   C     0.80380   0.90290   0.27080   0.01267  Uiso   1.00
C588   C     0.28070   0.71030   0.99690   0.01267  Uiso   1.00
C589   C     0.71390   0.21350   0.02680   0.01267  Uiso   1.00
C590   C     0.40180   0.17280   0.17580   0.01267  Uiso   1.00
C591   C     0.28610   0.18670   0.97320   0.01267  Uiso   1.00
C592   C     0.80380   0.63210   0.90290   0.01267  Uiso   1.00
C593   C     0.29400   0.03790   0.60690   0.01267  Uiso   1.00
C594   C     0.62840   0.40170   0.09500   0.01267  Uiso   1.00
C595   C     0.34400   0.63670   0.68600   0.01267  Uiso   1.00
C596   C     0.87320   0.67570   0.11940   0.01267  Uiso   1.00
C597   C     0.11180   0.83820   0.49980   0.01267  Uiso   1.00
C598   C     0.11240   0.06650   0.42530   0.01267  Uiso   1.00
C599   C     0.13530   0.56420   0.63200   0.01267  Uiso   1.00
C600   C     0.62540   0.73250   0.96930   0.01267  Uiso   1.00
C601   C     0.65600   0.68600   0.04930   0.01267  Uiso   1.00
C602   C     0.61690   0.83760   0.00240   0.01267  Uiso   1.00
C603   C     0.86470   0.63200   0.56420   0.01267  Uiso   1.00
C604   C     0.75590   0.22130   0.24970   0.01267  Uiso   1.00
C605   C     0.67800   0.91640   0.38540   0.01267  Uiso   1.00
C606   C     0.80380   0.09710   0.72920   0.01267  Uiso   1.00
C607   C     0.80380   0.72920   0.63210   0.01267  Uiso   1.00
C608   C     0.64680   0.22850   0.25800   0.01267  Uiso   1.00
C609   C     0.85180   0.33360   0.87960   0.01267  Uiso   1.00
C610   C     0.19620   0.63210   0.72920   0.01267  Uiso   1.00
C611   C     0.65970   0.79810   0.79530   0.01267  Uiso   1.00
C612   C     0.38310   0.83760   0.00240   0.01267  Uiso   1.00
C613   C     0.71390   0.81330   0.78650   0.01267  Uiso   1.00
C614   C     0.70600   0.96210   0.56900   0.01267  Uiso   1.00
C615   C     0.17040   0.97080   0.60620   0.01267  Uiso   1.00
C616   C     0.14590   0.97110   0.35180   0.01267  Uiso   1.00
C617   C     0.77920   0.38160   0.28430   0.01267  Uiso   1.00
C618   C     0.35320   0.97050   0.22850   0.01267  Uiso   1.00
C619   C     0.14590   0.97110   0.61930   0.01267  Uiso   1.00
C620   C     0.69500   0.02000   0.64200   0.01267  Uiso   1.00
C621   C     0.82960   0.36460   0.97080   0.01267  Uiso   1.00
C622   C     0.12680   0.55630   0.88060   0.01267  Uiso   1.00
C623   C     0.88820   0.49980   0.66160   0.01267  Uiso   1.00
C624   C     0.83230   0.28120   0.86620   0.01267  Uiso   1.00
C625   C     0.32200   0.46900   0.38540   0.01267  Uiso   1.00
C626   C     0.37460   0.23680   0.96930   0.01267  Uiso   1.00
C627   C     0.14820   0.87960   0.54600   0.01267  Uiso   1.00
C628   C     0.16770   0.41500   0.28120   0.01267  Uiso   1.00
C629   C     0.88760   0.35880   0.42530   0.01267  Uiso   1.00
C630   C     0.80930   0.29250   0.86470   0.01267  Uiso   1.00
C631   C     0.81520   0.95530   0.64780   0.01267  Uiso   1.00
C632   C     0.87320   0.44370   0.11940   0.01267  Uiso   1.00
C633   C     0.67800   0.61460   0.53100   0.01267  Uiso   1.00
C634   C     0.80930   0.13530   0.70750   0.01267  Uiso   1.00
C635   C     0.22080   0.71570   0.09730   0.01267  Uiso   1.00
C636   C     0.29400   0.56900   0.60690   0.01267  Uiso   1.00
C637   C     0.62840   0.30670   0.40170   0.01267  Uiso   1.00
C638   C     0.61690   0.16480   0.00240   0.01267  Uiso   1.00
C639   C     0.71390   0.78650   0.97320   0.01267  Uiso   1.00
C640   C     0.71930   0.28660   0.28970   0.01267  Uiso   1.00
C641   C     0.14590   0.61930   0.97110   0.01267  Uiso   1.00
C642   C     0.11180   0.33840   0.83820   0.01267  Uiso   1.00
C643   C     0.87320   0.44370   0.32430   0.01267  Uiso   1.00
C644   C     0.28610   0.81330   0.78650   0.01267  Uiso   1.00
C645   C     0.12680   0.32430   0.88060   0.01267  Uiso   1.00
C646   C     0.37160   0.40170   0.09500   0.01267  Uiso   1.00
C647   C     0.11180   0.50020   0.33840   0.01267  Uiso   1.00
C648   C     0.64010   0.78540  -0.00000   0.01267  Uiso   1.00
C649   C     0.17040   0.97080   0.36460   0.01267  Uiso   1.00
C650   C     0.69500   0.35800   0.98000   0.01267  Uiso   1.00
C651   C     0.37160   0.90500   0.59830   0.01267  Uiso   1.00
C652   C     0.65600   0.95070   0.31400   0.01267  Uiso   1.00
C653   C     0.63950   0.54540   0.88750   0.01267  Uiso   1.00
C654   C     0.62540   0.03070   0.26750   0.01267  Uiso   1.00
C655   C     0.74450   0.00080   0.72630   0.01267  Uiso   1.00
C656   C     0.64010  -0.00000   0.21460   0.01267  Uiso   1.00
C657   C     0.85180   0.87960   0.54600   0.01267  Uiso   1.00
C658   C     0.28070   0.00310   0.71340   0.01267  Uiso   1.00
C659   C     0.11240   0.64120   0.57470   0.01267  Uiso   1.00
C660   C     0.66500   0.72350   0.02660   0.01267  Uiso   1.00
C661   C     0.12680   0.88060   0.55630   0.01267  Uiso   1.00
C662   C     0.17040   0.63540   0.60620   0.01267  Uiso   1.00
C663   C     0.30500   0.62200   0.64200   0.01267  Uiso   1.00
C664   C     0.88820   0.66160   0.16180   0.01267  Uiso   1.00
C665   C     0.30760   0.03200   0.80340   0.01267  Uiso   1.00
C666   C     0.17040   0.39380   0.02920   0.01267  Uiso   1.00
C667   C     0.37160   0.09500   0.69330   0.01267  Uiso   1.00
C668   C     0.73250   0.73370   0.96730   0.01267  Uiso   1.00
C669   C     0.83230   0.41500   0.13380   0.01267  Uiso   1.00
C670   C     0.63950   0.88750   0.34210   0.01267  Uiso   1.00
C671   C     0.70600   0.43100   0.03790   0.01267  Uiso   1.00
C672   C     0.18480   0.95530   0.64780   0.01267  Uiso   1.00
C673   C     0.81520   0.35220   0.04470   0.01267  Uiso   1.00
C674   C     0.62540   0.96930   0.23680   0.01267  Uiso   1.00
C675   C     0.24410   0.77870   0.02840   0.01267  Uiso   1.00
C676   C     0.71930   0.28660   0.99690   0.01267  Uiso   1.00
C677   C     0.32200   0.61460   0.53100   0.01267  Uiso   1.00
C678   C     0.37160   0.69330   0.09500   0.01267  Uiso   1.00
C679   C     0.14820   0.54600   0.87960   0.01267  Uiso   1.00
C680   C     0.09580   0.50670   0.83870   0.01267  Uiso   1.00
C681   C     0.31020   0.29390   0.02970   0.01267  Uiso   1.00
C682   C     0.67800   0.08360   0.61460   0.01267  Uiso   1.00
C683   C     0.80930   0.57220   0.70750   0.01267  Uiso   1.00
C684   C     0.14820   0.87960   0.33360   0.01267  Uiso   1.00
C685   C     0.71930   0.71030   0.71340   0.01267  Uiso   1.00
C686   C     0.69500   0.64200   0.02000   0.01267  Uiso   1.00
C687   C     0.70600   0.03790   0.60690   0.01267  Uiso   1.00
C688   C     0.34030   0.20470   0.20190   0.01267  Uiso   1.00
C689   C     0.85410   0.61930   0.97110   0.01267  Uiso   1.00
C690   C     0.80930   0.42780   0.29250   0.01267  Uiso   1.00
C691   C     0.13530   0.43580   0.36800   0.01267  Uiso   1.00
C692   C     0.35320   0.77150   0.74200   0.01267  Uiso   1.00
C693   C     0.11240   0.64120   0.06650   0.01267  Uiso   1.00
C694   C     0.31020   0.26420   0.97030   0.01267  Uiso   1.00
C695   C     0.12680   0.32430   0.44370   0.01267  Uiso   1.00
C696   C     0.60700   0.32900   0.83700   0.01267  Uiso   1.00
C697   C     0.22080   0.90270   0.61840   0.01267  Uiso   1.00
C698   C     0.80380   0.09710   0.36790   0.01267  Uiso   1.00
C699   C     0.33500   0.30310   0.02660   0.01267  Uiso   1.00
C700   C     0.18480   0.69250   0.64780   0.01267  Uiso   1.00
C701   C     0.37460   0.23680   0.26750   0.01267  Uiso   1.00
C702   C     0.83230   0.71880   0.13380   0.01267  Uiso   1.00
C703   C     0.28070   0.71340   0.00310   0.01267  Uiso   1.00
C704   C     0.85410   0.97110   0.35180   0.01267  Uiso   1.00
C705   C     0.67800   0.46900   0.08360   0.01267  Uiso   1.00
C706   C     0.26750   0.03270   0.26630   0.01267  Uiso   1.00
C707   C     0.28070   0.71030   0.71340   0.01267  Uiso   1.00
C708   C     0.18480   0.35220   0.30750   0.01267  Uiso   1.00
C709   C     0.33500   0.02660   0.72350   0.01267  Uiso   1.00
C710   C     0.85410   0.61930   0.64820   0.01267  Uiso   1.00
C711   C     0.71390   0.18670   0.97320   0.01267  Uiso   1.00
C712   C     0.40180   0.82420   0.82720   0.01267  Uiso   1.00
C713   C     0.34400   0.36330   0.31400   0.01267  Uiso   1.00
C714   C     0.14590   0.35180   0.38070   0.01267  Uiso   1.00
C715   C     0.09580   0.49330   0.33200   0.01267  Uiso   1.00
C716   C     0.71390   0.97320   0.18670   0.01267  Uiso   1.00
C717   C     0.85410   0.97110   0.61930   0.01267  Uiso   1.00
C718   C     0.16770   0.58500   0.86620   0.01267  Uiso   1.00
C719   C     0.61690   0.16480   0.16240   0.01267  Uiso   1.00
C720   C     0.37460   0.76320   0.03070   0.01267  Uiso   1.00
C721   C     0.31020   0.97030   0.26420   0.01267  Uiso   1.00
C722   C     0.66500   0.27650   0.30310   0.01267  Uiso   1.00
C723   C     0.69500   0.37800   0.02000   0.01267  Uiso   1.00
C724   C     0.29400   0.60690   0.56900   0.01267  Uiso   1.00
C725   C     0.11240   0.93350   0.35880   0.01267  Uiso   1.00
C726   C     0.65600   0.31400   0.36330   0.01267  Uiso   1.00
C727   C     0.81520   0.35220   0.30750   0.01267  Uiso   1.00
C728   C     0.33500   0.97340   0.27650   0.01267  Uiso   1.00
C729   C     0.33500   0.27650   0.30310   0.01267  Uiso   1.00
C730   C     0.80380   0.36790   0.09710   0.01267  Uiso   1.00
C731   C     0.30760   0.80340   0.77140   0.01267  Uiso   1.00
C732   C     0.37460   0.26750   0.03070   0.01267  Uiso   1.00
C733   C     0.63950   0.65790   0.11250   0.01267  Uiso   1.00
C734   C     0.68980   0.70610   0.97030   0.01267  Uiso   1.00
C735   C     0.65970   0.79530   0.79810   0.01267  Uiso   1.00
C736   C     0.30760   0.96800   0.77140   0.01267  Uiso   1.00
C737   C     0.24410   0.97160   0.22130   0.01267  Uiso   1.00
C738   C     0.78900   0.36660   0.04460   0.01267  Uiso   1.00
C739   C     0.35320   0.02950   0.25800   0.01267  Uiso   1.00
C740   C     0.32200   0.38540   0.46900   0.01267  Uiso   1.00
C741   C     0.68980   0.97030   0.70610   0.01267  Uiso   1.00
C742   C     0.22080   0.28430   0.38160   0.01267  Uiso   1.00
C743   C     0.80380   0.27080   0.90290   0.01267  Uiso   1.00
C744   C     0.12680   0.55630   0.67570   0.01267  Uiso   1.00
C745   C     0.19070   0.57220   0.70750   0.01267  Uiso   1.00
C746   C     0.14820   0.12040   0.66640   0.01267  Uiso   1.00
C747   C     0.16770   0.41500   0.13380   0.01267  Uiso   1.00
C748   C     0.61690   0.00240   0.16480   0.01267  Uiso   1.00
C749   C     0.86470   0.43580   0.36800   0.01267  Uiso   1.00
C750   C     0.85410   0.38070   0.02890   0.01267  Uiso   1.00
C751   C     0.31020   0.29390   0.26420   0.01267  Uiso   1.00
C752   C     0.77920   0.38160   0.09730   0.01267  Uiso   1.00
C753   C     0.62840   0.90500   0.59830   0.01267  Uiso   1.00
C754   C     0.18480   0.35220   0.04470   0.01267  Uiso   1.00
C755   C     0.59820   0.99700   0.17280   0.01267  Uiso   1.00
C756   C     0.16770   0.13380   0.41500   0.01267  Uiso   1.00
C757   C     0.69500   0.02000   0.37800   0.01267  Uiso   1.00
C758   C     0.87320   0.32430   0.88060   0.01267  Uiso   1.00
C759   C     0.64680   0.25800   0.02950   0.01267  Uiso   1.00
C760   C     0.28070   0.99690   0.71030   0.01267  Uiso   1.00
C761   C     0.26750   0.23360   0.26630   0.01267  Uiso   1.00
C762   C     0.83230   0.86620   0.28120   0.01267  Uiso   1.00
C763   C     0.36050   0.54540   0.65790   0.01267  Uiso   1.00
C764   C     0.14590   0.02890   0.38070   0.01267  Uiso   1.00
C765   C     0.38310   0.83760   0.83520   0.01267  Uiso   1.00
C766   C     0.67800   0.91640   0.53100   0.01267  Uiso   1.00
C767   C     0.21100   0.95540   0.63340   0.01267  Uiso   1.00
C768   C     0.19620   0.09710   0.72920   0.01267  Uiso   1.00
C769   C     0.32200   0.91640   0.53100   0.01267  Uiso   1.00
C770   C     0.87320   0.88060   0.55630   0.01267  Uiso   1.00
C771   C     0.16770   0.58500   0.71880   0.01267  Uiso   1.00
C772   C     0.18480   0.04470   0.35220   0.01267  Uiso   1.00
C773   C     0.11240   0.57470   0.64120   0.01267  Uiso   1.00
C774   C     0.85180   0.33360   0.45400   0.01267  Uiso   1.00
C775   C     0.30760   0.80340   0.03200   0.01267  Uiso   1.00
C776   C     0.35990  -0.00000   0.78540   0.01267  Uiso   1.00
C777   C     0.34030   0.00280   0.20470   0.01267  Uiso   1.00
C778   C     0.88760   0.57470   0.64120   0.01267  Uiso   1.00
C779   C     0.68980   0.02970   0.73580   0.01267  Uiso   1.00
C780   C     0.22080   0.09730   0.71570   0.01267  Uiso   1.00
C781   C     0.88760   0.06650   0.64120   0.01267  Uiso   1.00
C782   C     0.68980   0.73580   0.02970   0.01267  Uiso   1.00
C783   C     0.62840   0.40170   0.30670   0.01267  Uiso   1.00
C784   C     0.12680   0.88060   0.32430   0.01267  Uiso   1.00
C785   C     0.14590   0.02890   0.64820   0.01267  Uiso   1.00
C786   C     0.66500   0.97340   0.69690   0.01267  Uiso   1.00
C787   C     0.68980   0.73580   0.70610   0.01267  Uiso   1.00
C788   C     0.13530   0.63200   0.06780   0.01267  Uiso   1.00
C789   C     0.71930   0.28970   0.00310   0.01267  Uiso   1.00
C790   C     0.88760   0.35880   0.93350   0.01267  Uiso   1.00
C791   C     0.67800   0.53100   0.91640   0.01267  Uiso   1.00
C792   C     0.40180   0.99700   0.17280   0.01267  Uiso   1.00
C793   C     0.19070   0.29250   0.42780   0.01267  Uiso   1.00
C794   C     0.14820   0.54600   0.66640   0.01267  Uiso   1.00
C795   C     0.75590   0.97160   0.22130   0.01267  Uiso   1.00
C796   C     0.88820   0.83820   0.33840   0.01267  Uiso   1.00
C797   C     0.80380   0.36790   0.27080   0.01267  Uiso   1.00
C798   C     0.38310   0.00240   0.83760   0.01267  Uiso   1.00
C799   C     0.74450   0.27370   0.27450   0.01267  Uiso   1.00
C800   C     0.81520   0.95530   0.30750   0.01267  Uiso   1.00
C801   C     0.81520   0.30750   0.95530   0.01267  Uiso   1.00
C802   C     0.64680   0.02950   0.25800   0.01267  Uiso   1.00
C803   C     0.37460   0.03070   0.76320   0.01267  Uiso   1.00
C804   C     0.32200   0.53100   0.61460   0.01267  Uiso   1.00
C805   C     0.64680   0.77150   0.74200   0.01267  Uiso   1.00
C806   C     0.25550   0.72550   0.72630   0.01267  Uiso   1.00
C807   C     0.63950   0.65790   0.54540   0.01267  Uiso   1.00
C808   C     0.24410   0.97160   0.75030   0.01267  Uiso   1.00
C809   C     0.64010   0.21460   0.21460   0.01267  Uiso   1.00
C810   C     0.73250   0.76640   0.03270   0.01267  Uiso   1.00
C811   C     0.65970   0.00280   0.20470   0.01267  Uiso   1.00
C812   C     0.24410   0.22130   0.24970   0.01267  Uiso   1.00
C813   C     0.73250   0.26630   0.23360   0.01267  Uiso   1.00
C814   C     0.60700   0.83700   0.50800   0.01267  Uiso   1.00
C815   C     0.88820   0.33840   0.83820   0.01267  Uiso   1.00
C816   C     0.88820   0.33840   0.50020   0.01267  Uiso   1.00
N1     N     0.78850   0.69110  -0.00000   0.01267  Uiso   1.00
N2     N     0.78850   0.30890   0.30890   0.01267  Uiso   1.00
N3     N     0.76000   0.67550  -0.00000   0.01267  Uiso   1.00
N4     N     0.24000  -0.00000   0.67550   0.01267  Uiso   1.00
N5     N     0.21150   0.30890   0.30890   0.01267  Uiso   1.00
N6     N     0.76000   0.67550   0.67550   0.01267  Uiso   1.00
N7     N     0.24000   0.67550   0.67550   0.01267  Uiso   1.00
N8     N     0.76000   0.32450  -0.00000   0.01267  Uiso   1.00
N9     N     0.78850  -0.00000   0.69110   0.01267  Uiso   1.00
N10    N     0.21150   0.69110  -0.00000   0.01267  Uiso   1.00
N11    N     0.76000   0.32450   0.32450   0.01267  Uiso   1.00
N12    N     0.21150   0.30890  -0.00000   0.01267  Uiso   1.00
N13    N     0.76000   0.00000   0.67550   0.01267  Uiso   1.00
N14    N     0.78850   0.69110   0.69110   0.01267  Uiso   1.00
N15    N     0.24000   0.67550  -0.00000   0.01267  Uiso   1.00
N16    N     0.24000  -0.00000   0.32450   0.01267  Uiso   1.00
N17    N     0.78850   0.30890  -0.00000   0.01267  Uiso   1.00
N18    N     0.24000   0.32450  -0.00000   0.01267  Uiso   1.00
N19    N     0.24000   0.32450   0.32450   0.01267  Uiso   1.00
N20    N     0.21150   0.69110   0.69110   0.01267  Uiso   1.00
N21    N     0.78850  -0.00000   0.30890   0.01267  Uiso   1.00
N22    N     0.21150  -0.00000   0.69110   0.01267  Uiso   1.00
N23    N     0.76000   0.00000   0.32450   0.01267  Uiso   1.00
N24    N     0.21150   0.00000   0.30890   0.01267  Uiso   1.00
O1     O     0.50000   0.66090   0.42340   0.01267  Uiso   1.00
O2     O     0.57280   0.81290   0.29290   0.01267  Uiso   1.00
O3     O     0.29900   0.73000   0.36500   0.01267  Uiso   1.00
O4     O     0.93490   0.33333   0.66666   0.01267  Uiso   1.00
O5     O     0.39160   0.84040   0.87400   0.01267  Uiso   1.00
O6     O     0.63000   0.85310   0.97070   0.01267  Uiso   1.00
O7     O     0.92970   0.47900   0.85440   0.01267  Uiso   1.00
O8     O     0.50000   0.00650   0.91120   0.01267  Uiso   1.00
O9     O     0.00000   0.42950   0.67330   0.01267  Uiso   1.00
O10    O     0.50000   0.09530   0.00650   0.01267  Uiso   1.00
O11    O     0.41940   0.81850   0.85960   0.01267  Uiso   1.00
O12    O     0.70100   0.73000   0.36500   0.01267  Uiso   1.00
O13    O     0.92970   0.85440   0.37540   0.01267  Uiso   1.00
O14    O     0.19420   0.70015   0.40030   0.01267  Uiso   1.00
O15    O     0.57280   0.52000   0.70710   0.01267  Uiso   1.00
O16    O     0.07030   0.52100   0.14560   0.01267  Uiso   1.00
O17    O     0.60840   0.03360   0.87400   0.01267  Uiso   1.00
O18    O     0.19420   0.29985   0.70015   0.01267  Uiso   1.00
O19    O     0.19420   0.59970   0.29985   0.01267  Uiso   1.00
O20    O     0.88300   0.48930   0.69800   0.01267  Uiso   1.00
O21    O     0.39160   0.12600   0.96640   0.01267  Uiso   1.00
O22    O     0.09750   0.61941   0.23882   0.01267  Uiso   1.00
O23    O     0.50000   0.23750   0.57660   0.01267  Uiso   1.00
O24    O     0.19420   0.70015   0.29985   0.01267  Uiso   1.00
O25    O     0.60500   0.71300   0.28700   0.01267  Uiso   1.00
O26    O     0.29900   0.63500   0.27000   0.01267  Uiso   1.00
O27    O     0.60500   0.57400   0.28700   0.01267  Uiso   1.00
O28    O     0.00000   0.32670   0.75620   0.01267  Uiso   1.00
O29    O     0.37000   0.14690   0.02930   0.01267  Uiso   1.00
O30    O     0.90250   0.76118   0.38059   0.01267  Uiso   1.00
O31    O     0.42720   0.81290   0.52000   0.01267  Uiso   1.00
O32    O     0.63000   0.88240   0.85310   0.01267  Uiso   1.00
O33    O     0.39160   0.96640   0.84040   0.01267  Uiso   1.00
O34    O     0.00000   0.75620   0.42950   0.01267  Uiso   1.00
O35    O     0.42720   0.29290   0.81290   0.01267  Uiso   1.00
O36    O     0.42720   0.81290   0.29290   0.01267  Uiso   1.00
O37    O     0.37000   0.88240   0.85310   0.01267  Uiso   1.00
O38    O     0.61900   0.17910   0.54290   0.01267  Uiso   1.00
O39    O     0.39160   0.15960   0.03360   0.01267  Uiso   1.00
O40    O     0.60840   0.12600   0.15960   0.01267  Uiso   1.00
O41    O     0.11700   0.69800   0.48930   0.01267  Uiso   1.00
O42    O     0.43900   0.66667   0.33334   0.01267  Uiso   1.00
O43    O     0.09750   0.38059   0.76118   0.01267  Uiso   1.00
O44    O     0.11700   0.20870   0.69800   0.01267  Uiso   1.00
O45    O     0.50000   0.76250   0.42340   0.01267  Uiso   1.00
O46    O     0.29900   0.63500   0.36500   0.01267  Uiso   1.00
O47    O     0.43900   0.33333   0.66666   0.01267  Uiso   1.00
O48    O     0.60500   0.28700   0.57400   0.01267  Uiso   1.00
O49    O     0.39160   0.03360   0.87400   0.01267  Uiso   1.00
O50    O     0.50000   0.33910   0.76250   0.01267  Uiso   1.00
O51    O     0.90250   0.61941   0.38059   0.01267  Uiso   1.00
O52    O     0.11700   0.20870   0.51070   0.01267  Uiso   1.00
O53    O     0.06510   0.33333   0.66666   0.01267  Uiso   1.00
O54    O     0.41940   0.81850   0.95890   0.01267  Uiso   1.00
O55    O     0.38100   0.63620   0.45710   0.01267  Uiso   1.00
O56    O     0.39160   0.15960   0.12600   0.01267  Uiso   1.00
O57    O     0.50000   0.76250   0.33910   0.01267  Uiso   1.00
O58    O     0.37000   0.14690   0.11760   0.01267  Uiso   1.00
O59    O     0.57280   0.81290   0.52000   0.01267  Uiso   1.00
O60    O     0.41940   0.04110   0.18150   0.01267  Uiso   1.00
O61    O     0.58060   0.85960   0.81850   0.01267  Uiso   1.00
O62    O     0.92970   0.52100   0.37540   0.01267  Uiso   1.00
O63    O     0.63000   0.11760   0.14690   0.01267  Uiso   1.00
O64    O     0.58060   0.85960   0.04110   0.01267  Uiso   1.00
O65    O     0.70100   0.27000   0.63500   0.01267  Uiso   1.00
O66    O     0.43750   0.85000   0.80950   0.01267  Uiso   1.00
O67    O     0.58060   0.81850   0.95890   0.01267  Uiso   1.00
O68    O     0.50000   0.57660   0.33910   0.01267  Uiso   1.00
O69    O     0.60840   0.15960   0.12600   0.01267  Uiso   1.00
O70    O     0.41940   0.95890   0.81850   0.01267  Uiso   1.00
O71    O     0.61900   0.17910   0.63620   0.01267  Uiso   1.00
O72    O     0.92970   0.62460   0.14560   0.01267  Uiso   1.00
O73    O     0.60500   0.28700   0.71300   0.01267  Uiso   1.00
O74    O     0.39500   0.42600   0.71300   0.01267  Uiso   1.00
O75    O     0.58060   0.95890   0.14040   0.01267  Uiso   1.00
O76    O     0.50000   0.42340   0.76250   0.01267  Uiso   1.00
O77    O     0.42720   0.29290   0.48000   0.01267  Uiso   1.00
O78    O     0.50000   0.91120   0.00650   0.01267  Uiso   1.00
O79    O     0.07030   0.14560   0.52100   0.01267  Uiso   1.00
O80    O     0.60840   0.87400   0.84040   0.01267  Uiso   1.00
O81    O     0.09750   0.61941   0.38059   0.01267  Uiso   1.00
O82    O     0.60840   0.96640   0.12600   0.01267  Uiso   1.00
O83    O     0.92970   0.62460   0.47900   0.01267  Uiso   1.00
O84    O     0.50000   0.57660   0.23750   0.01267  Uiso   1.00
O85    O     0.38100   0.82090   0.36380   0.01267  Uiso   1.00
O86    O     0.07030   0.47900   0.85440   0.01267  Uiso   1.00
O87    O     0.61900   0.82090   0.45710   0.01267  Uiso   1.00
O88    O     0.39160   0.03360   0.15960   0.01267  Uiso   1.00
O89    O     0.80580   0.29985   0.59970   0.01267  Uiso   1.00
O90    O     0.88300   0.20870   0.51070   0.01267  Uiso   1.00
O91    O     0.43750   0.80950   0.95950   0.01267  Uiso   1.00
O92    O     0.88300   0.20870   0.69800   0.01267  Uiso   1.00
O93    O     0.43750   0.85000   0.04050   0.01267  Uiso   1.00
O94    O     0.70100   0.63500   0.36500   0.01267  Uiso   1.00
O95    O     0.37000   0.11760   0.14690   0.01267  Uiso   1.00
O96    O     0.42720   0.48000   0.29290   0.01267  Uiso   1.00
O97    O     0.90250   0.23882   0.61941   0.01267  Uiso   1.00
O98    O     0.92970   0.37540   0.52100   0.01267  Uiso   1.00
O99    O     0.39160   0.84040   0.96640   0.01267  Uiso   1.00
O100   O     0.41940   0.85960   0.81850   0.01267  Uiso   1.00
O101   O     0.38100   0.54290   0.17910   0.01267  Uiso   1.00
O102   O     0.61900   0.36380   0.82090   0.01267  Uiso   1.00
O103   O     0.39500   0.71300   0.28700   0.01267  Uiso   1.00
O104   O     0.56250   0.15000   0.95950   0.01267  Uiso   1.00
O105   O     0.61900   0.82090   0.36380   0.01267  Uiso   1.00
O106   O     0.00000   0.24380   0.67330   0.01267  Uiso   1.00
O107   O     0.39500   0.28700   0.71300   0.01267  Uiso   1.00
O108   O     0.57280   0.18710   0.70710   0.01267  Uiso   1.00
O109   O     0.38100   0.63620   0.17910   0.01267  Uiso   1.00
O110   O     0.41940   0.95890   0.14040   0.01267  Uiso   1.00
O111   O     0.38100   0.36380   0.54290   0.01267  Uiso   1.00
O112   O     0.07030   0.37540   0.85440   0.01267  Uiso   1.00
O113   O     0.37000   0.97070   0.11760   0.01267  Uiso   1.00
O114   O     0.43750   0.80950   0.85000   0.01267  Uiso   1.00
O115   O     0.19420   0.40030   0.70015   0.01267  Uiso   1.00
O116   O     0.07030   0.47900   0.62460   0.01267  Uiso   1.00
O117   O     0.43750   0.95950   0.15000   0.01267  Uiso   1.00
O118   O     0.37000   0.11760   0.97070   0.01267  Uiso   1.00
O119   O     0.57280   0.29290   0.81290   0.01267  Uiso   1.00
O120   O     0.39500   0.57400   0.28700   0.01267  Uiso   1.00
O121   O     0.58060   0.04110   0.18150   0.01267  Uiso   1.00
O122   O     0.56100   0.33333   0.66666   0.01267  Uiso   1.00
O123   O     0.50000   0.09530   0.08880   0.01267  Uiso   1.00
O124   O     0.93490   0.66667   0.33334   0.01267  Uiso   1.00
O125   O     0.63000   0.02930   0.88240   0.01267  Uiso   1.00
O126   O     0.19420   0.29985   0.59970   0.01267  Uiso   1.00
O127   O     0.00000   0.42950   0.75620   0.01267  Uiso   1.00
O128   O     0.92970   0.14560   0.62460   0.01267  Uiso   1.00
O129   O     0.56250   0.19050   0.04050   0.01267  Uiso   1.00
O130   O     0.43750   0.15000   0.19050   0.01267  Uiso   1.00
O131   O     0.58060   0.18150   0.04110   0.01267  Uiso   1.00
O132   O     0.42720   0.70710   0.18710   0.01267  Uiso   1.00
O133   O     0.70100   0.36500   0.73000   0.01267  Uiso   1.00
O134   O     0.60840   0.12600   0.96640   0.01267  Uiso   1.00
O135   O     0.58060   0.04110   0.85960   0.01267  Uiso   1.00
O136   O     0.38100   0.17910   0.63620   0.01267  Uiso   1.00
O137   O     0.60500   0.42600   0.71300   0.01267  Uiso   1.00
O138   O     0.56250   0.95950   0.80950   0.01267  Uiso   1.00
O139   O     0.39160   0.96640   0.12600   0.01267  Uiso   1.00
O140   O     0.39160   0.87400   0.03360   0.01267  Uiso   1.00
O141   O     0.39500   0.71300   0.42600   0.01267  Uiso   1.00
O142   O     0.42720   0.18710   0.48000   0.01267  Uiso   1.00
O143   O     0.61900   0.63620   0.45710   0.01267  Uiso   1.00
O144   O     0.57280   0.48000   0.18710   0.01267  Uiso   1.00
O145   O     0.38100   0.82090   0.45710   0.01267  Uiso   1.00
O146   O     0.00000   0.67330   0.24380   0.01267  Uiso   1.00
O147   O     0.39500   0.28700   0.57400   0.01267  Uiso   1.00
O148   O     0.63000   0.88240   0.02930   0.01267  Uiso   1.00
O149   O     0.50000   0.08880   0.09530   0.01267  Uiso   1.00
O150   O     0.50000   0.00650   0.09530   0.01267  Uiso   1.00
O151   O     0.56250   0.80950   0.85000   0.01267  Uiso   1.00
O152   O     0.43750   0.04050   0.19050   0.01267  Uiso   1.00
O153   O     0.00000   0.57050   0.24380   0.01267  Uiso   1.00
O154   O     0.56250   0.95950   0.15000   0.01267  Uiso   1.00
O155   O     0.58060   0.95890   0.81850   0.01267  Uiso   1.00
O156   O     0.50000   0.23750   0.66090   0.01267  Uiso   1.00
O157   O     0.39160   0.12600   0.15960   0.01267  Uiso   1.00
O158   O     0.60840   0.15960   0.03360   0.01267  Uiso   1.00
O159   O     0.43750   0.95950   0.80950   0.01267  Uiso   1.00
O160   O     0.90250   0.61941   0.23882   0.01267  Uiso   1.00
O161   O     0.38100   0.45710   0.63620   0.01267  Uiso   1.00
O162   O     0.07030   0.52100   0.37540   0.01267  Uiso   1.00
O163   O     0.50000   0.99350   0.90470   0.01267  Uiso   1.00
O164   O     0.00000   0.75620   0.32670   0.01267  Uiso   1.00
O165   O     0.57280   0.29290   0.48000   0.01267  Uiso   1.00
O166   O     0.88300   0.30200   0.79130   0.01267  Uiso   1.00
O167   O     0.56100   0.66667   0.33334   0.01267  Uiso   1.00
O168   O     0.58060   0.81850   0.85960   0.01267  Uiso   1.00
O169   O     0.57280   0.18710   0.48000   0.01267  Uiso   1.00
O170   O     0.57280   0.52000   0.81290   0.01267  Uiso   1.00
O171   O     0.56250   0.19050   0.15000   0.01267  Uiso   1.00
O172   O     0.06510   0.66667   0.33334   0.01267  Uiso   1.00
O173   O     0.88300   0.79130   0.48930   0.01267  Uiso   1.00
O174   O     0.37000   0.97070   0.85310   0.01267  Uiso   1.00
O175   O     0.42720   0.52000   0.70710   0.01267  Uiso   1.00
O176   O     0.07030   0.62460   0.47900   0.01267  Uiso   1.00
O177   O     0.80580   0.40030   0.70015   0.01267  Uiso   1.00
O178   O     0.57280   0.48000   0.29290   0.01267  Uiso   1.00
O179   O     0.41940   0.85960   0.04110   0.01267  Uiso   1.00
O180   O     0.88300   0.69800   0.48930   0.01267  Uiso   1.00
O181   O     0.07030   0.85440   0.37540   0.01267  Uiso   1.00
O182   O     0.80580   0.59970   0.29985   0.01267  Uiso   1.00
O183   O     0.50000   0.99350   0.08880   0.01267  Uiso   1.00
O184   O     0.60840   0.84040   0.87400   0.01267  Uiso   1.00
O185   O     0.09750   0.76118   0.38059   0.01267  Uiso   1.00
O186   O     0.56250   0.04050   0.19050   0.01267  Uiso   1.00
O187   O     0.63000   0.97070   0.11760   0.01267  Uiso   1.00
O188   O     0.61900   0.45710   0.63620   0.01267  Uiso   1.00
O189   O     0.43750   0.15000   0.95950   0.01267  Uiso   1.00
O190   O     0.07030   0.62460   0.14560   0.01267  Uiso   1.00
O191   O     0.90250   0.38059   0.76118   0.01267  Uiso   1.00
O192   O     0.42720   0.48000   0.18710   0.01267  Uiso   1.00
O193   O     0.41940   0.14040   0.95890   0.01267  Uiso   1.00
O194   O     0.00000   0.32670   0.57050   0.01267  Uiso   1.00
O195   O     0.50000   0.08880   0.99350   0.01267  Uiso   1.00
O196   O     0.70100   0.36500   0.63500   0.01267  Uiso   1.00
O197   O     0.88300   0.51070   0.20870   0.01267  Uiso   1.00
O198   O     0.41940   0.18150   0.14040   0.01267  Uiso   1.00
O199   O     0.50000   0.90470   0.99350   0.01267  Uiso   1.00
O200   O     0.11700   0.48930   0.79130   0.01267  Uiso   1.00
O201   O     0.61900   0.54290   0.17910   0.01267  Uiso   1.00
O202   O     0.50000   0.66090   0.23750   0.01267  Uiso   1.00
O203   O     0.11700   0.48930   0.69800   0.01267  Uiso   1.00
O204   O     0.50000   0.33910   0.57660   0.01267  Uiso   1.00
O205   O     0.56250   0.85000   0.04050   0.01267  Uiso   1.00
O206   O     0.43750   0.19050   0.15000   0.01267  Uiso   1.00
O207   O     0.63000   0.14690   0.11760   0.01267  Uiso   1.00
O208   O     0.92970   0.47900   0.62460   0.01267  Uiso   1.00
O209   O     0.61900   0.63620   0.17910   0.01267  Uiso   1.00
O210   O     0.11700   0.30200   0.51070   0.01267  Uiso   1.00
O211   O     0.37000   0.88240   0.02930   0.01267  Uiso   1.00
O212   O     0.63000   0.02930   0.14690   0.01267  Uiso   1.00
O213   O     0.58060   0.14040   0.18150   0.01267  Uiso   1.00
O214   O     0.88300   0.69800   0.20870   0.01267  Uiso   1.00
O215   O     0.88300   0.79130   0.30200   0.01267  Uiso   1.00
O216   O     0.37000   0.02930   0.14690   0.01267  Uiso   1.00
O217   O     0.60840   0.96640   0.84040   0.01267  Uiso   1.00
O218   O     0.09750   0.23882   0.61941   0.01267  Uiso   1.00
O219   O     0.11700   0.51070   0.30200   0.01267  Uiso   1.00
O220   O     0.42720   0.18710   0.70710   0.01267  Uiso   1.00
O221   O     0.29900   0.36500   0.73000   0.01267  Uiso   1.00
O222   O     0.00000   0.24380   0.57050   0.01267  Uiso   1.00
O223   O     0.50000   0.90470   0.91120   0.01267  Uiso   1.00
O224   O     0.63000   0.11760   0.97070   0.01267  Uiso   1.00
O225   O     0.60500   0.71300   0.42600   0.01267  Uiso   1.00
O226   O     0.80580   0.70015   0.29985   0.01267  Uiso   1.00
O227   O     0.80580   0.29985   0.70015   0.01267  Uiso   1.00
O228   O     0.90250   0.38059   0.61941   0.01267  Uiso   1.00
O229   O     0.29900   0.27000   0.63500   0.01267  Uiso   1.00
O230   O     0.58060   0.14040   0.95890   0.01267  Uiso   1.00
O231   O     0.63000   0.85310   0.88240   0.01267  Uiso   1.00
O232   O     0.07030   0.37540   0.52100   0.01267  Uiso   1.00
O233   O     0.50000   0.42340   0.66090   0.01267  Uiso   1.00
O234   O     0.39160   0.87400   0.84040   0.01267  Uiso   1.00
O235   O     0.37000   0.85310   0.88240   0.01267  Uiso   1.00
O236   O     0.38100   0.54290   0.36380   0.01267  Uiso   1.00
O237   O     0.38100   0.36380   0.82090   0.01267  Uiso   1.00
O238   O     0.60840   0.03360   0.15960   0.01267  Uiso   1.00
O239   O     0.56250   0.85000   0.80950   0.01267  Uiso   1.00
O240   O     0.11700   0.79130   0.48930   0.01267  Uiso   1.00
O241   O     0.41940   0.14040   0.18150   0.01267  Uiso   1.00
O242   O     0.11700   0.30200   0.79130   0.01267  Uiso   1.00
O243   O     0.50000   0.91120   0.90470   0.01267  Uiso   1.00
O244   O     0.92970   0.52100   0.14560   0.01267  Uiso   1.00
O245   O     0.42720   0.70710   0.52000   0.01267  Uiso   1.00
O246   O     0.60840   0.84040   0.96640   0.01267  Uiso   1.00
O247   O     0.80580   0.70015   0.40030   0.01267  Uiso   1.00
O248   O     0.57280   0.70710   0.18710   0.01267  Uiso   1.00
O249   O     0.92970   0.37540   0.85440   0.01267  Uiso   1.00
O250   O     0.11700   0.69800   0.20870   0.01267  Uiso   1.00
O251   O     0.61900   0.54290   0.36380   0.01267  Uiso   1.00
O252   O     0.61900   0.45710   0.82090   0.01267  Uiso   1.00
O253   O     0.43750   0.19050   0.04050   0.01267  Uiso   1.00
O254   O     0.56250   0.80950   0.95950   0.01267  Uiso   1.00
O255   O     0.88300   0.30200   0.51070   0.01267  Uiso   1.00
O256   O     0.29900   0.36500   0.63500   0.01267  Uiso   1.00
O257   O     0.61900   0.36380   0.54290   0.01267  Uiso   1.00
O258   O     0.38100   0.17910   0.54290   0.01267  Uiso   1.00
O259   O     0.92970   0.14560   0.52100   0.01267  Uiso   1.00
O260   O     0.58060   0.18150   0.14040   0.01267  Uiso   1.00
O261   O     0.56250   0.15000   0.19050   0.01267  Uiso   1.00
O262   O     0.88300   0.51070   0.30200   0.01267  Uiso   1.00
O263   O     0.63000   0.97070   0.85310   0.01267  Uiso   1.00
O264   O     0.07030   0.85440   0.47900   0.01267  Uiso   1.00
O265   O     0.37000   0.02930   0.88240   0.01267  Uiso   1.00
O266   O     0.07030   0.14560   0.62460   0.01267  Uiso   1.00
O267   O     0.00000   0.67330   0.42950   0.01267  Uiso   1.00
O268   O     0.11700   0.79130   0.30200   0.01267  Uiso   1.00
O269   O     0.38100   0.45710   0.82090   0.01267  Uiso   1.00
O270   O     0.88300   0.48930   0.79130   0.01267  Uiso   1.00
O271   O     0.42720   0.52000   0.81290   0.01267  Uiso   1.00
O272   O     0.60840   0.87400   0.03360   0.01267  Uiso   1.00
O273   O     0.37000   0.85310   0.97070   0.01267  Uiso   1.00
O274   O     0.11700   0.51070   0.20870   0.01267  Uiso   1.00
O275   O     0.56250   0.04050   0.85000   0.01267  Uiso   1.00
O276   O     0.00000   0.57050   0.32670   0.01267  Uiso   1.00
O277   O     0.41940   0.04110   0.85960   0.01267  Uiso   1.00
O278   O     0.63000   0.14690   0.02930   0.01267  Uiso   1.00
O279   O     0.57280   0.70710   0.52000   0.01267  Uiso   1.00
O280   O     0.92970   0.85440   0.47900   0.01267  Uiso   1.00
O281   O     0.70100   0.63500   0.27000   0.01267  Uiso   1.00
O282   O     0.09750   0.38059   0.61941   0.01267  Uiso   1.00
O283   O     0.43750   0.04050   0.85000   0.01267  Uiso   1.00
O284   O     0.41940   0.18150   0.04110   0.01267  Uiso   1.00
F1     F     0.59300   0.73500   0.61200   0.01267  Uiso   1.00
F2     F     0.69000   0.41800   0.51920   0.01267  Uiso   1.00
F3     F     0.31000   0.51920   0.41800   0.01267  Uiso   1.00
F4     F     0.69000   0.10120   0.51920   0.01267  Uiso   1.00
F5     F     0.40700   0.26500   0.38800   0.01267  Uiso   1.00
F6     F     0.31000   0.51920   0.10120   0.01267  Uiso   1.00
F7     F     0.31000   0.48080   0.89880   0.01267  Uiso   1.00
F8     F     0.40700   0.38800   0.26500   0.01267  Uiso   1.00
F9     F     0.59300   0.87700   0.26500   0.01267  Uiso   1.00
F10    F     0.59300   0.73500   0.12300   0.01267  Uiso   1.00
F11    F     0.40700   0.26500   0.87700   0.01267  Uiso   1.00
F12    F     0.59300   0.12300   0.73500   0.01267  Uiso   1.00
F13    F     0.31000   0.58200   0.10120   0.01267  Uiso   1.00
F14    F     0.69000   0.10120   0.58200   0.01267  Uiso   1.00
F15    F     0.40700   0.12300   0.38800   0.01267  Uiso   1.00
F16    F     0.59300   0.26500   0.38800   0.01267  Uiso   1.00
F17    F     0.59300   0.87700   0.61200   0.01267  Uiso   1.00
F18    F     0.31000   0.89880   0.41800   0.01267  Uiso   1.00
F19    F     0.31000   0.41800   0.89880   0.01267  Uiso   1.00
F20    F     0.31000   0.89880   0.48080   0.01267  Uiso   1.00
F21    F     0.59300   0.38800   0.26500   0.01267  Uiso   1.00
F22    F     0.31000   0.48080   0.58200   0.01267  Uiso   1.00
F23    F     0.69000   0.58200   0.10120   0.01267  Uiso   1.00
F24    F     0.69000   0.58200   0.48080   0.01267  Uiso   1.00
F25    F     0.59300   0.26500   0.87700   0.01267  Uiso   1.00
F26    F     0.31000   0.41800   0.51920   0.01267  Uiso   1.00
F27    F     0.59300   0.61200   0.87700   0.01267  Uiso   1.00
F28    F     0.69000   0.89880   0.41800   0.01267  Uiso   1.00
F29    F     0.69000   0.51920   0.41800   0.01267  Uiso   1.00
F30    F     0.69000   0.51920   0.10120   0.01267  Uiso   1.00
F31    F     0.59300   0.38800   0.12300   0.01267  Uiso   1.00
F32    F     0.69000   0.48080   0.58200   0.01267  Uiso   1.00
F33    F     0.40700   0.73500   0.61200   0.01267  Uiso   1.00
F34    F     0.31000   0.10120   0.51920   0.01267  Uiso   1.00
F35    F     0.40700   0.61200   0.87700   0.01267  Uiso   1.00
F36    F     0.40700   0.87700   0.61200   0.01267  Uiso   1.00
F37    F     0.40700   0.61200   0.73500   0.01267  Uiso   1.00
F38    F     0.31000   0.10120   0.58200   0.01267  Uiso   1.00
F39    F     0.59300   0.12300   0.38800   0.01267  Uiso   1.00
F40    F     0.59300   0.61200   0.73500   0.01267  Uiso   1.00
F41    F     0.69000   0.48080   0.89880   0.01267  Uiso   1.00
F42    F     0.69000   0.89880   0.48080   0.01267  Uiso   1.00
F43    F     0.40700   0.87700   0.26500   0.01267  Uiso   1.00
F44    F     0.40700   0.38800   0.12300   0.01267  Uiso   1.00
F45    F     0.69000   0.41800   0.89880   0.01267  Uiso   1.00
F46    F     0.40700   0.12300   0.73500   0.01267  Uiso   1.00
F47    F     0.40700   0.73500   0.12300   0.01267  Uiso   1.00
F48    F     0.31000   0.58200   0.48080   0.01267  Uiso   1.00
