data_image0
_cell_length_a       36.664
_cell_length_b       34.101
_cell_length_c       46.617
_cell_angle_alpha    90
_cell_angle_beta     92.414
_cell_angle_gamma    90

_symmetry_space_group_name_H-M    "P 1"
_symmetry_int_tables_number       1

loop_
  _symmetry_equiv_pos_as_xyz
  'x, y, z'

loop_
  _atom_site_label
  _atom_site_occupancy
  _atom_site_fract_x
  _atom_site_fract_y
  _atom_site_fract_z
  _atom_site_thermal_displace_type
  _atom_site_B_iso_or_equiv
  _atom_site_type_symbol
  Ni1      1.0000 0.55686  0.65018  0.11273  Biso   1.000  Ni
  Ni2      1.0000 0.51097  0.68655  0.06027  Biso   1.000  Ni
  Ni3      1.0000 0.53070  0.77001  0.08408  Biso   1.000  Ni
  Ni4      1.0000 0.57392  0.73375  0.13757  Biso   1.000  Ni
  Ni5      1.0000 0.40400  0.46773  0.20216  Biso   1.000  Ni
  Ni6      1.0000 0.48648  0.49034  0.20580  Biso   1.000  Ni
  Ni7      1.0000 0.50399  0.49553  0.27848  Biso   1.000  Ni
  Ni8      1.0000 0.40280  0.46863  0.27853  Biso   1.000  Ni
  Ni9      1.0000 0.23175  0.57038  0.04493  Biso   1.000  Ni
  Ni10     1.0000 0.14356  0.56277  0.04935  Biso   1.000  Ni
  Ni11     1.0000 0.12659  0.63643  0.00874  Biso   1.000  Ni
  Ni12     1.0000 0.21514  0.65180  0.00343  Biso   1.000  Ni
  Ni13     1.0000 0.39393  0.92907  0.09612  Biso   1.000  Ni
  Ni14     1.0000 0.31518  0.92506  0.06361  Biso   1.000  Ni
  Ni15     1.0000 0.27586  0.96408  0.12879  Biso   1.000  Ni
  Ni16     1.0000 0.36945  0.96151  0.15798  Biso   1.000  Ni
  Ni17     1.0000 0.48732  0.86041  0.34013  Biso   1.000  Ni
  Ni18     1.0000 0.45352  0.87334  0.40202  Biso   1.000  Ni
  Ni19     1.0000 0.49557  0.79528  0.42554  Biso   1.000  Ni
  Ni20     1.0000 0.53272  0.77783  0.36447  Biso   1.000  Ni
  Cl1      1.0000 0.51592  0.70888  0.11176  Biso   1.000  Cl
  S1       1.0000 0.61151  0.60665  0.10119  Biso   1.000  S
  S2       1.0000 0.53290  0.67052  0.00999  Biso   1.000  S
  S3       1.0000 0.56586  0.81634  0.05240  Biso   1.000  S
  S4       1.0000 0.64050  0.75267  0.14514  Biso   1.000  S
  S5       1.0000 0.38723  0.40439  0.18046  Biso   1.000  S
  S6       1.0000 0.52996  0.44634  0.18245  Biso   1.000  S
  S7       1.0000 0.53869  0.44412  0.29978  Biso   1.000  S
  S8       1.0000 0.39252  0.40620  0.29864  Biso   1.000  S
  S9       1.0000 0.26052  0.51523  0.01992  Biso   1.000  S
  S10      1.0000 0.11435  0.50013  0.03488  Biso   1.000  S
  S11      1.0000 0.08980  0.62554  0.96432  Biso   1.000  S
  S12      1.0000 0.23626  0.64707  0.95404  Biso   1.000  S
  S13      1.0000 0.44202  0.96539  0.07247  Biso   1.000  S
  S14      1.0000 0.30546  0.96665  0.02190  Biso   1.000  S
  S15      1.0000 0.25373  0.02832  0.12228  Biso   1.000  S
  S16      1.0000 0.39294  0.02585  0.17176  Biso   1.000  S
  S17      1.0000 0.52737  0.91344  0.32369  Biso   1.000  S
  S18      1.0000 0.46889  0.93530  0.42782  Biso   1.000  S
  S19      1.0000 0.53708  0.80302  0.46801  Biso   1.000  S
  S20      1.0000 0.59968  0.78226  0.36501  Biso   1.000  S
  O1       1.0000 0.55795  0.66043  0.07063  Biso   1.000  O
  O2       1.0000 0.53696  0.73490  0.05207  Biso   1.000  O
  O3       1.0000 0.58118  0.76136  0.10036  Biso   1.000  O
  O4       1.0000 0.59613  0.68693  0.12152  Biso   1.000  O
  O5       1.0000 0.45416  0.44393  0.20127  Biso   1.000  O
  O6       1.0000 0.50986  0.46737  0.24212  Biso   1.000  O
  O7       1.0000 0.45782  0.45753  0.28733  Biso   1.000  O
  O8       1.0000 0.39659  0.43982  0.24010  Biso   1.000  O
  O9       1.0000 0.18668  0.54143  0.03044  Biso   1.000  O
  O10      1.0000 0.12446  0.57994  0.01114  Biso   1.000  O
  O11      1.0000 0.16905  0.63117  0.98367  Biso   1.000  O
  O12      1.0000 0.23923  0.59888  0.00761  Biso   1.000  O
  O13      1.0000 0.36093  0.95615  0.06757  Biso   1.000  O
  O14      1.0000 0.28803  0.96767  0.08585  Biso   1.000  O
  O15      1.0000 0.32195  0.99064  0.14671  Biso   1.000  O
  O16      1.0000 0.39088  0.97759  0.12056  Biso   1.000  O
  O17      1.0000 0.49207  0.89106  0.37643  Biso   1.000  O
  O18      1.0000 0.49221  0.85260  0.42827  Biso   1.000  O
  O19      1.0000 0.54135  0.80125  0.40401  Biso   1.000  O
  O20      1.0000 0.53536  0.83160  0.34629  Biso   1.000  O
  O21      1.0000 0.51696  0.61211  0.10628  Biso   1.000  O
  O22      1.0000 0.48165  0.63917  0.07030  Biso   1.000  O
  O23      1.0000 0.41101  0.49371  0.16333  Biso   1.000  O
  O24      1.0000 0.47048  0.51276  0.16727  Biso   1.000  O
  O25      1.0000 0.46298  0.71460  0.05306  Biso   1.000  O
  O26      1.0000 0.47811  0.77443  0.07009  Biso   1.000  O
  O27      1.0000 0.39778  0.88123  0.07197  Biso   1.000  O
  O28      1.0000 0.34529  0.88111  0.04271  Biso   1.000  O
  C1       1.0000 0.37440  0.86426  0.05680  Biso   1.000  C
  O29      1.0000 0.39552  0.88087  0.07179  Biso   1.000  O
  O30      1.0000 0.33838  0.87646  0.05328  Biso   1.000  O
  C2       1.0000 0.36939  0.86311  0.05975  Biso   1.000  C
  O31      1.0000 0.51964  0.80650  0.11562  Biso   1.000  O
  O32      1.0000 0.54807  0.77952  0.15472  Biso   1.000  O
  O33      1.0000 0.42903  0.90391  0.12469  Biso   1.000  O
  O34      1.0000 0.41674  0.92970  0.16709  Biso   1.000  O
  O35      1.0000 0.55136  0.64404  0.15539  Biso   1.000  O
  O36      1.0000 0.56314  0.70422  0.17334  Biso   1.000  O
  O37      1.0000 0.51304  0.54023  0.21324  Biso   1.000  O
  O38      1.0000 0.49777  0.54765  0.25958  Biso   1.000  O
  O39      1.0000 0.22285  0.54858  0.08423  Biso   1.000  O
  O40      1.0000 0.16220  0.54648  0.08871  Biso   1.000  O
  O41      1.0000 0.11273  0.49513  0.18087  Biso   1.000  O
  O42      1.0000 0.15225  0.48336  0.21693  Biso   1.000  O
  O43      1.0000 0.13003  0.69354  0.00912  Biso   1.000  O
  O44      1.0000 0.19026  0.70488  0.00537  Biso   1.000  O
  O45      1.0000 0.05413  0.79059  0.05815  Biso   1.000  O
  O46      1.0000 0.08231  0.84505  0.07532  Biso   1.000  O
  O47      1.0000 0.52481  0.72433  0.38262  Biso   1.000  O
  O48      1.0000 0.49643  0.73764  0.42351  Biso   1.000  O
  O49      1.0000 0.41188  0.64085  0.46236  Biso   1.000  O
  O50      1.0000 0.39837  0.59035  0.43325  Biso   1.000  O
  O51      1.0000 0.43743  0.88539  0.33332  Biso   1.000  O
  O52      1.0000 0.41263  0.89325  0.37604  Biso   1.000  O
  O53      1.0000 0.28011  0.94193  0.37549  Biso   1.000  O
  O54      1.0000 0.25315  0.95625  0.33375  Biso   1.000  O
  N1       1.0000 0.28254  0.58813  0.06196  Biso   1.000  N
  N2       1.0000 0.26217  0.68048  0.01985  Biso   1.000  N
  N3       1.0000 0.48153  0.83683  0.29861  Biso   1.000  N
  N4       1.0000 0.52741  0.74729  0.32539  Biso   1.000  N
  N5       1.0000 0.35124  0.49117  0.20032  Biso   1.000  N
  N6       1.0000 0.27001  0.89273  0.05535  Biso   1.000  N
  N7       1.0000 0.49813  0.52730  0.31467  Biso   1.000  N
  C3       1.0000 0.57546  0.63747  0.05346  Biso   1.000  C
  C4       1.0000 0.60266  0.61117  0.06341  Biso   1.000  C
  C5       1.0000 0.62069  0.58763  0.04449  Biso   1.000  C
  H1       1.0000 0.63860  0.57050  0.05160  Biso   1.000  H
  C6       1.0000 0.61286  0.58885  0.01558  Biso   1.000  C
  C7       1.0000 0.58652  0.61411  0.00547  Biso   1.000  C
  H2       1.0000 0.58110  0.61530  0.98580  Biso   1.000  H
  C8       1.0000 0.56727  0.63840  0.02385  Biso   1.000  C
  C9       1.0000 0.63317  0.56349  0.99483  Biso   1.000  C
  C10      1.0000 0.63440  0.52104  0.00429  Biso   1.000  C
  H3       1.0000 0.61010  0.51060  0.00400  Biso   1.000  H
  H4       1.0000 0.64890  0.50620  0.99150  Biso   1.000  H
  H5       1.0000 0.64510  0.51940  0.02340  Biso   1.000  H
  C11      1.0000 0.67270  0.57420  0.99669  Biso   1.000  C
  H6       1.0000 0.68160  0.57280  0.01630  Biso   1.000  H
  H7       1.0000 0.68620  0.55620  0.98530  Biso   1.000  H
  H8       1.0000 0.67570  0.60040  0.98960  Biso   1.000  H
  C12      1.0000 0.61916  0.56560  0.96416  Biso   1.000  C
  H9       1.0000 0.59370  0.55870  0.96300  Biso   1.000  H
  H10      1.0000 0.62210  0.59170  0.95700  Biso   1.000  H
  H11      1.0000 0.63260  0.54760  0.95280  Biso   1.000  H
  C13      1.0000 0.55513  0.74273  0.02885  Biso   1.000  C
  C14      1.0000 0.55745  0.71519  0.00696  Biso   1.000  C
  C15      1.0000 0.57681  0.72367  0.98314  Biso   1.000  C
  H12      1.0000 0.57820  0.70490  0.96870  Biso   1.000  H
  C16      1.0000 0.59450  0.75954  0.97991  Biso   1.000  C
  C17      1.0000 0.59149  0.78652  0.00166  Biso   1.000  C
  H13      1.0000 0.60270  0.81080  0.00000  Biso   1.000  H
  C18      1.0000 0.57252  0.77874  0.02566  Biso   1.000  C
  C19      1.0000 0.61705  0.76821  0.95389  Biso   1.000  C
  C20      1.0000 0.59014  0.78508  0.93232  Biso   1.000  C
  H14      1.0000 0.57010  0.76720  0.92930  Biso   1.000  H
  H15      1.0000 0.58120  0.80960  0.93930  Biso   1.000  H
  H16      1.0000 0.60180  0.78920  0.91450  Biso   1.000  H
  C21      1.0000 0.63179  0.73127  0.94030  Biso   1.000  C
  H17      1.0000 0.64930  0.71920  0.95340  Biso   1.000  H
  H18      1.0000 0.61210  0.71340  0.93610  Biso   1.000  H
  H19      1.0000 0.64330  0.73800  0.92280  Biso   1.000  H
  C22      1.0000 0.64970  0.79463  0.95990  Biso   1.000  C
  H20      1.0000 0.66600  0.78240  0.97380  Biso   1.000  H
  H21      1.0000 0.66210  0.79890  0.94250  Biso   1.000  H
  H22      1.0000 0.64160  0.81930  0.96720  Biso   1.000  H
  C23      1.0000 0.60753  0.78677  0.09760  Biso   1.000  C
  C24      1.0000 0.60566  0.81455  0.07486  Biso   1.000  C
  C25      1.0000 0.63368  0.84164  0.07290  Biso   1.000  C
  H23      1.0000 0.63220  0.86020  0.05830  Biso   1.000  H
  C26      1.0000 0.66434  0.84220  0.09220  Biso   1.000  C
  C27      1.0000 0.66608  0.81388  0.11382  Biso   1.000  C
  H24      1.0000 0.68600  0.81380  0.12680  Biso   1.000  H
  C28      1.0000 0.63939  0.78629  0.11652  Biso   1.000  C
  C29      1.0000 0.69373  0.87424  0.09074  Biso   1.000  C
  C30      1.0000 0.68477  0.90506  0.06787  Biso   1.000  C
  H25      1.0000 0.66220  0.91780  0.07200  Biso   1.000  H
  H26      1.0000 0.70400  0.92410  0.06780  Biso   1.000  H
  H27      1.0000 0.68240  0.89270  0.04940  Biso   1.000  H
  C31      1.0000 0.72957  0.85410  0.08409  Biso   1.000  C
  H28      1.0000 0.73530  0.83470  0.09850  Biso   1.000  H
  H29      1.0000 0.72720  0.84170  0.06560  Biso   1.000  H
  H30      1.0000 0.74880  0.87320  0.08400  Biso   1.000  H
  C32      1.0000 0.69907  0.89610  0.11960  Biso   1.000  C
  H31      1.0000 0.70480  0.87750  0.13460  Biso   1.000  H
  H32      1.0000 0.71870  0.91460  0.11840  Biso   1.000  H
  H33      1.0000 0.67700  0.90980  0.12370  Biso   1.000  H
  C33      1.0000 0.70220  0.87290  0.05889  Biso   1.000  C
  H34      1.0000 0.71290  0.84800  0.05450  Biso   1.000  H
  H35      1.0000 0.68000  0.87620  0.04750  Biso   1.000  H
  H36      1.0000 0.71890  0.89360  0.05470  Biso   1.000  H
  C34      1.0000 0.67640  0.91327  0.09910  Biso   1.000  C
  H37      1.0000 0.67160  0.91300  0.11910  Biso   1.000  H
  H38      1.0000 0.69290  0.93430  0.09520  Biso   1.000  H
  H39      1.0000 0.65400  0.91700  0.08800  Biso   1.000  H
  C35      1.0000 0.72850  0.86710  0.10967  Biso   1.000  C
  H40      1.0000 0.72260  0.86810  0.12950  Biso   1.000  H
  H41      1.0000 0.73840  0.84180  0.10540  Biso   1.000  H
  H42      1.0000 0.74620  0.88700  0.10590  Biso   1.000  H
  C36      1.0000 0.63156  0.68006  0.12039  Biso   1.000  C
  C37      1.0000 0.65701  0.70866  0.12991  Biso   1.000  C
  C38      1.0000 0.69399  0.70034  0.12889  Biso   1.000  C
  H43      1.0000 0.71080  0.71920  0.13510  Biso   1.000  H
  C39      1.0000 0.70694  0.66353  0.11863  Biso   1.000  C
  C40      1.0000 0.68072  0.63730  0.11002  Biso   1.000  C
  H44      1.0000 0.68850  0.61300  0.10350  Biso   1.000  H
  C41      1.0000 0.64446  0.64367  0.11019  Biso   1.000  C
  C42      1.0000 0.74806  0.65521  0.11806  Biso   1.000  C
  C43      1.0000 0.77104  0.68969  0.12847  Biso   1.000  C
  H45      1.0000 0.76390  0.71270  0.11780  Biso   1.000  H
  H46      1.0000 0.76750  0.69400  0.14850  Biso   1.000  H
  H47      1.0000 0.79630  0.68420  0.12570  Biso   1.000  H
  C44      1.0000 0.75700  0.64840  0.08658  Biso   1.000  C
  H48      1.0000 0.75300  0.67210  0.07590  Biso   1.000  H
  H49      1.0000 0.78210  0.64060  0.08560  Biso   1.000  H
  H50      1.0000 0.74160  0.62800  0.07860  Biso   1.000  H
  C45      1.0000 0.75540  0.61614  0.13239  Biso   1.000  C
  H51      1.0000 0.73930  0.59670  0.12400  Biso   1.000  H
  H52      1.0000 0.78030  0.60850  0.12970  Biso   1.000  H
  H53      1.0000 0.75140  0.61830  0.15250  Biso   1.000  H
  C46      1.0000 0.76740  0.68830  0.10297  Biso   1.000  C
  H54      1.0000 0.79300  0.68270  0.10280  Biso   1.000  H
  H55      1.0000 0.75760  0.69060  0.08360  Biso   1.000  H
  H56      1.0000 0.76360  0.71250  0.11300  Biso   1.000  H
  C47      1.0000 0.75650  0.61476  0.10524  Biso   1.000  C
  H57      1.0000 0.74380  0.59480  0.11540  Biso   1.000  H
  H58      1.0000 0.74870  0.61430  0.08530  Biso   1.000  H
  H59      1.0000 0.78230  0.60990  0.10700  Biso   1.000  H
  C48      1.0000 0.76150  0.65470  0.14983  Biso   1.000  C
  H60      1.0000 0.74950  0.63400  0.15970  Biso   1.000  H
  H61      1.0000 0.78740  0.65060  0.15100  Biso   1.000  H
  H62      1.0000 0.75590  0.67940  0.15860  Biso   1.000  H
  C49      1.0000 0.46081  0.41879  0.18132  Biso   1.000  C
  C50      1.0000 0.43202  0.39520  0.16925  Biso   1.000  C
  C51      1.0000 0.43909  0.36993  0.14740  Biso   1.000  C
  H63      1.0000 0.41940  0.35670  0.13870  Biso   1.000  H
  C52      1.0000 0.47368  0.36245  0.13720  Biso   1.000  C
  C53      1.0000 0.50111  0.38791  0.14861  Biso   1.000  C
  H64      1.0000 0.52410  0.38710  0.14090  Biso   1.000  H
  C54      1.0000 0.49547  0.41335  0.17030  Biso   1.000  C
  C55      1.0000 0.47831  0.33354  0.11170  Biso   1.000  C
  C56      1.0000 0.45610  0.35040  0.08575  Biso   1.000  C
  H65      1.0000 0.46660  0.37480  0.08010  Biso   1.000  H
  H66      1.0000 0.45660  0.33220  0.07000  Biso   1.000  H
  H67      1.0000 0.43130  0.35450  0.09090  Biso   1.000  H
  C57      1.0000 0.51891  0.32810  0.10480  Biso   1.000  C
  H68      1.0000 0.52830  0.35230  0.09750  Biso   1.000  H
  H69      1.0000 0.53260  0.32080  0.12190  Biso   1.000  H
  H70      1.0000 0.52100  0.30790  0.09060  Biso   1.000  H
  C58      1.0000 0.46480  0.29423  0.12317  Biso   1.000  C
  H71      1.0000 0.48020  0.28620  0.13920  Biso   1.000  H
  H72      1.0000 0.44020  0.29710  0.12920  Biso   1.000  H
  H73      1.0000 0.46540  0.27480  0.10830  Biso   1.000  H
  C59      1.0000 0.48624  0.33206  0.11510  Biso   1.000  C
  C60      1.0000 0.45598  0.30590  0.10180  Biso   1.000  C
  H74      1.0000 0.43730  0.32210  0.09290  Biso   1.000  H
  H75      1.0000 0.46600  0.28910  0.08770  Biso   1.000  H
  H76      1.0000 0.44570  0.29030  0.11660  Biso   1.000  H
  C61      1.0000 0.50170  0.35920  0.09209  Biso   1.000  C
  H77      1.0000 0.52060  0.37540  0.10070  Biso   1.000  H
  H78      1.0000 0.51160  0.34360  0.07720  Biso   1.000  H
  H79      1.0000 0.48260  0.37560  0.08410  Biso   1.000  H
  C62      1.0000 0.51590  0.30560  0.12920  Biso   1.000  C
  H80      1.0000 0.53500  0.32150  0.13760  Biso   1.000  H
  H81      1.0000 0.50540  0.28990  0.14380  Biso   1.000  H
  H82      1.0000 0.52570  0.28870  0.11490  Biso   1.000  H
  C63      1.0000 0.53430  0.44001  0.24133  Biso   1.000  C
  C64      1.0000 0.54699  0.42456  0.21532  Biso   1.000  C
  C65      1.0000 0.57365  0.39664  0.21437  Biso   1.000  C
  H83      1.0000 0.58120  0.38810  0.19660  Biso   1.000  H
  C66      1.0000 0.58978  0.38072  0.23917  Biso   1.000  C
  C67      1.0000 0.57722  0.39423  0.26478  Biso   1.000  C
  H84      1.0000 0.58650  0.38320  0.28180  Biso   1.000  H
  C68      1.0000 0.55112  0.42375  0.26623  Biso   1.000  C
  C69      1.0000 0.61960  0.34864  0.23849  Biso   1.000  C
  C70      1.0000 0.60610  0.31487  0.25673  Biso   1.000  C
  H85      1.0000 0.58510  0.30310  0.24730  Biso   1.000  H
  H86      1.0000 0.62510  0.29560  0.25920  Biso   1.000  H
  H87      1.0000 0.59970  0.32460  0.27520  Biso   1.000  H
  C71      1.0000 0.65303  0.37040  0.25071  Biso   1.000  C
  H88      1.0000 0.65940  0.39090  0.23780  Biso   1.000  H
  H89      1.0000 0.64770  0.38140  0.26900  Biso   1.000  H
  H90      1.0000 0.67310  0.35240  0.25300  Biso   1.000  H
  C72      1.0000 0.62990  0.33450  0.20836  Biso   1.000  C
  H91      1.0000 0.60970  0.32050  0.19950  Biso   1.000  H
  H92      1.0000 0.63560  0.35680  0.19680  Biso   1.000  H
  H93      1.0000 0.65070  0.31760  0.21010  Biso   1.000  H
  C73      1.0000 0.62038  0.35068  0.23384  Biso   1.000  C
  C74      1.0000 0.63620  0.33620  0.26258  Biso   1.000  C
  H94      1.0000 0.61760  0.32300  0.27270  Biso   1.000  H
  H95      1.0000 0.65600  0.31840  0.25940  Biso   1.000  H
  H96      1.0000 0.64520  0.35810  0.27370  Biso   1.000  H
  C75      1.0000 0.65004  0.37200  0.21744  Biso   1.000  C
  H97      1.0000 0.63990  0.38100  0.19930  Biso   1.000  H
  H98      1.0000 0.65900  0.39390  0.22850  Biso   1.000  H
  H99      1.0000 0.66980  0.35420  0.21420  Biso   1.000  H
  C76      1.0000 0.60550  0.31499  0.21642  Biso   1.000  C
  H100     1.0000 0.59540  0.32370  0.19820  Biso   1.000  H
  H101     1.0000 0.62510  0.29690  0.21340  Biso   1.000  H
  H102     1.0000 0.58690  0.30220  0.22680  Biso   1.000  H
  C77      1.0000 0.46540  0.42458  0.30090  Biso   1.000  C
  C78      1.0000 0.50239  0.41372  0.30912  Biso   1.000  C
  C79      1.0000 0.50915  0.38082  0.32502  Biso   1.000  C
  H103     1.0000 0.53330  0.37610  0.33090  Biso   1.000  H
  C80      1.0000 0.48277  0.35286  0.33360  Biso   1.000  C
  C81      1.0000 0.44776  0.36385  0.32415  Biso   1.000  C
  H104     1.0000 0.42860  0.34740  0.32860  Biso   1.000  H
  C82      1.0000 0.43903  0.39802  0.30830  Biso   1.000  C
  C83      1.0000 0.49463  0.31980  0.35480  Biso   1.000  C
  C84      1.0000 0.52098  0.29540  0.33762  Biso   1.000  C
  H105     1.0000 0.54260  0.31040  0.33460  Biso   1.000  H
  H106     1.0000 0.52740  0.27200  0.34810  Biso   1.000  H
  H107     1.0000 0.50950  0.28850  0.31940  Biso   1.000  H
  C85      1.0000 0.46051  0.29560  0.35940  Biso   1.000  C
  H108     1.0000 0.44370  0.31060  0.37020  Biso   1.000  H
  H109     1.0000 0.44920  0.28870  0.34120  Biso   1.000  H
  H110     1.0000 0.46710  0.27210  0.36980  Biso   1.000  H
  C86      1.0000 0.51170  0.33770  0.38238  Biso   1.000  C
  H111     1.0000 0.53300  0.35250  0.37790  Biso   1.000  H
  H112     1.0000 0.49430  0.35460  0.39090  Biso   1.000  H
  H113     1.0000 0.51850  0.31710  0.39560  Biso   1.000  H
  C87      1.0000 0.49088  0.31353  0.34905  Biso   1.000  C
  C88      1.0000 0.53056  0.30460  0.35820  Biso   1.000  C
  H114     1.0000 0.53940  0.32420  0.37150  Biso   1.000  H
  H115     1.0000 0.53200  0.27930  0.36720  Biso   1.000  H
  H116     1.0000 0.54520  0.30470  0.34160  Biso   1.000  H
  C89      1.0000 0.47560  0.28310  0.32781  Biso   1.000  C
  H117     1.0000 0.45080  0.28940  0.32250  Biso   1.000  H
  H118     1.0000 0.48990  0.28300  0.31100  Biso   1.000  H
  H119     1.0000 0.47660  0.25760  0.33660  Biso   1.000  H
  C90      1.0000 0.46850  0.31650  0.37602  Biso   1.000  C
  H120     1.0000 0.47910  0.33600  0.38870  Biso   1.000  H
  H121     1.0000 0.44390  0.32380  0.37060  Biso   1.000  H
  H122     1.0000 0.46850  0.29160  0.38560  Biso   1.000  H
  C91      1.0000 0.39025  0.40251  0.24003  Biso   1.000  C
  C92      1.0000 0.38780  0.38138  0.26527  Biso   1.000  C
  C93      1.0000 0.37978  0.34190  0.26587  Biso   1.000  C
  H123     1.0000 0.37700  0.33010  0.28360  Biso   1.000  H
  C94      1.0000 0.37558  0.31861  0.24115  Biso   1.000  C
  C95      1.0000 0.37887  0.34221  0.21463  Biso   1.000  C
  H124     1.0000 0.37660  0.32940  0.19700  Biso   1.000  H
  C96      1.0000 0.38506  0.38182  0.21469  Biso   1.000  C
  C97      1.0000 0.36706  0.27356  0.24014  Biso   1.000  C
  C98      1.0000 0.36970  0.25270  0.26956  Biso   1.000  C
  H125     1.0000 0.39420  0.25500  0.27760  Biso   1.000  H
  H126     1.0000 0.35310  0.26470  0.28230  Biso   1.000  H
  H127     1.0000 0.36360  0.22550  0.26710  Biso   1.000  H
  C99      1.0000 0.39354  0.25380  0.21963  Biso   1.000  C
  H128     1.0000 0.41810  0.25590  0.22750  Biso   1.000  H
  H129     1.0000 0.38720  0.22670  0.21730  Biso   1.000  H
  H130     1.0000 0.39180  0.26670  0.20130  Biso   1.000  H
  C100     1.0000 0.32805  0.27000  0.22720  Biso   1.000  C
  H131     1.0000 0.32640  0.28300  0.20900  Biso   1.000  H
  H132     1.0000 0.32190  0.24280  0.22480  Biso   1.000  H
  H133     1.0000 0.31140  0.28200  0.23990  Biso   1.000  H
  C101     1.0000 0.36590  0.27421  0.24391  Biso   1.000  C
  C102     1.0000 0.39461  0.25310  0.26362  Biso   1.000  C
  H134     1.0000 0.41800  0.25450  0.25520  Biso   1.000  H
  H135     1.0000 0.39590  0.26560  0.28210  Biso   1.000  H
  H136     1.0000 0.38770  0.22610  0.26580  Biso   1.000  H
  C103     1.0000 0.36290  0.25480  0.21416  Biso   1.000  C
  H137     1.0000 0.38620  0.25600  0.20540  Biso   1.000  H
  H138     1.0000 0.35580  0.22780  0.21620  Biso   1.000  H
  H139     1.0000 0.34500  0.26830  0.20230  Biso   1.000  H
  C104     1.0000 0.32858  0.27190  0.25743  Biso   1.000  C
  H140     1.0000 0.33000  0.28390  0.27610  Biso   1.000  H
  H141     1.0000 0.31070  0.28530  0.24540  Biso   1.000  H
  H142     1.0000 0.32160  0.24490  0.25930  Biso   1.000  H
  C105     1.0000 0.18741  0.50446  0.02421  Biso   1.000  C
  C106     1.0000 0.22067  0.48583  0.01818  Biso   1.000  C
  C107     1.0000 0.22179  0.44523  0.01215  Biso   1.000  C
  H143     1.0000 0.24420  0.43390  0.00850  Biso   1.000  H
  C108     1.0000 0.19148  0.42190  0.01146  Biso   1.000  C
  C109     1.0000 0.15812  0.44117  0.01782  Biso   1.000  C
  H144     1.0000 0.14150  0.43700  0.00140  Biso   1.000  H
  H145     1.0000 0.14810  0.42700  0.03370  Biso   1.000  H
  C110     1.0000 0.15609  0.48027  0.02452  Biso   1.000  C
  C111     1.0000 0.19134  0.37932  0.00163  Biso   1.000  C
  C112     1.0000 0.23027  0.36650  0.99555  Biso   1.000  C
  H146     1.0000 0.23870  0.38070  0.97940  Biso   1.000  H
  H147     1.0000 0.24600  0.37170  0.01210  Biso   1.000  H
  H148     1.0000 0.23050  0.33890  0.99140  Biso   1.000  H
  C113     1.0000 0.16843  0.37420  0.97340  Biso   1.000  C
  H149     1.0000 0.17940  0.38880  0.95840  Biso   1.000  H
  H150     1.0000 0.16750  0.34690  0.96830  Biso   1.000  H
  H151     1.0000 0.14410  0.38370  0.97590  Biso   1.000  H
  C114     1.0000 0.17680  0.35750  0.02716  Biso   1.000  C
  H152     1.0000 0.17570  0.32990  0.02300  Biso   1.000  H
  H153     1.0000 0.19270  0.36180  0.04370  Biso   1.000  H
  H154     1.0000 0.15280  0.36690  0.03090  Biso   1.000  H
  C115     1.0000 0.19449  0.37820  0.00487  Biso   1.000  C
  C116     1.0000 0.21080  0.37550  0.97496  Biso   1.000  C
  H155     1.0000 0.19310  0.38440  0.96060  Biso   1.000  H
  H156     1.0000 0.23220  0.39170  0.97450  Biso   1.000  H
  H157     1.0000 0.21730  0.34880  0.97110  Biso   1.000  H
  C117     1.0000 0.22200  0.36440  0.02812  Biso   1.000  C
  H158     1.0000 0.22600  0.33670  0.02600  Biso   1.000  H
  H159     1.0000 0.24460  0.37810  0.02630  Biso   1.000  H
  H160     1.0000 0.21260  0.36950  0.04670  Biso   1.000  H
  C118     1.0000 0.15836  0.35580  0.00550  Biso   1.000  C
  H161     1.0000 0.14190  0.36550  0.99050  Biso   1.000  H
  H162     1.0000 0.16270  0.32840  0.00250  Biso   1.000  H
  H163     1.0000 0.14770  0.35960  0.02380  Biso   1.000  H
  C119     1.0000 0.10119  0.55840  0.99529  Biso   1.000  C
  C120     1.0000 0.09473  0.51920  0.00255  Biso   1.000  C
  C121     1.0000 0.07126  0.49634  0.98490  Biso   1.000  C
  H164     1.0000 0.06700  0.47030  0.98980  Biso   1.000  H
  C122     1.0000 0.05401  0.51207  0.95993  Biso   1.000  C
  C123     1.0000 0.05989  0.55009  0.95394  Biso   1.000  C
  H165     1.0000 0.04790  0.56110  0.93790  Biso   1.000  H
  C124     1.0000 0.08399  0.57417  0.97139  Biso   1.000  C
  C125     1.0000 0.02800  0.48858  0.93908  Biso   1.000  C
  C126     1.0000 0.02000  0.51050  0.91091  Biso   1.000  C
  H166     1.0000 0.00840  0.53500  0.91480  Biso   1.000  H
  H167     1.0000 0.04240  0.51520  0.90160  Biso   1.000  H
  H168     1.0000 0.00400  0.49490  0.89860  Biso   1.000  H
  C127     1.0000 0.99236  0.48030  0.95415  Biso   1.000  C
  H169     1.0000 0.98030  0.50470  0.95790  Biso   1.000  H
  H170     1.0000 0.97670  0.46430  0.94200  Biso   1.000  H
  H171     1.0000 0.99780  0.46690  0.97190  Biso   1.000  H
  C128     1.0000 0.04640  0.44944  0.93340  Biso   1.000  C
  H172     1.0000 0.05130  0.43610  0.95130  Biso   1.000  H
  H173     1.0000 0.03060  0.43360  0.92120  Biso   1.000  H
  H174     1.0000 0.06890  0.45390  0.92420  Biso   1.000  H
  C129     1.0000 0.02163  0.48904  0.94603  Biso   1.000  C
  C130     1.0000 0.98769  0.51550  0.94220  Biso   1.000  C
  H175     1.0000 0.97850  0.52150  0.96070  Biso   1.000  H
  H176     1.0000 0.99420  0.53940  0.93280  Biso   1.000  H
  H177     1.0000 0.96920  0.50210  0.93080  Biso   1.000  H
  C131     1.0000 0.01130  0.45121  0.96165  Biso   1.000  C
  H178     1.0000 0.00280  0.45760  0.98030  Biso   1.000  H
  H179     1.0000 0.99230  0.43790  0.95070  Biso   1.000  H
  H180     1.0000 0.03230  0.43450  0.96370  Biso   1.000  H
  C132     1.0000 0.03530  0.48020  0.91635  Biso   1.000  C
  H181     1.0000 0.04150  0.50430  0.90710  Biso   1.000  H
  H182     1.0000 0.05640  0.46370  0.91810  Biso   1.000  H
  H183     1.0000 0.01650  0.46710  0.90510  Biso   1.000  H
  C133     1.0000 0.16328  0.63293  0.95589  Biso   1.000  C
  C134     1.0000 0.12897  0.62968  0.94278  Biso   1.000  C
  C135     1.0000 0.12421  0.63080  0.91309  Biso   1.000  C
  H184     1.0000 0.10070  0.62860  0.90490  Biso   1.000  H
  C136     1.0000 0.15339  0.63510  0.89496  Biso   1.000  C
  C137     1.0000 0.18797  0.64154  0.90819  Biso   1.000  C
  H185     1.0000 0.20790  0.64650  0.89700  Biso   1.000  H
  C138     1.0000 0.19264  0.64055  0.93775  Biso   1.000  C
  C139     1.0000 0.14980  0.63517  0.86160  Biso   1.000  C
  C140     1.0000 0.11116  0.62580  0.85020  Biso   1.000  C
  H186     1.0000 0.10480  0.59960  0.85570  Biso   1.000  H
  H187     1.0000 0.09430  0.64400  0.85810  Biso   1.000  H
  H188     1.0000 0.11000  0.62790  0.82960  Biso   1.000  H
  C141     1.0000 0.17676  0.60491  0.85033  Biso   1.000  C
  H189     1.0000 0.20100  0.61100  0.85760  Biso   1.000  H
  H190     1.0000 0.17010  0.57920  0.85660  Biso   1.000  H
  H191     1.0000 0.17600  0.60560  0.82970  Biso   1.000  H
  C142     1.0000 0.15850  0.67711  0.85230  Biso   1.000  C
  H192     1.0000 0.18270  0.68390  0.85920  Biso   1.000  H
  H193     1.0000 0.15700  0.67880  0.83170  Biso   1.000  H
  H194     1.0000 0.14130  0.69490  0.86020  Biso   1.000  H
  C143     1.0000 0.14619  0.63929  0.86205  Biso   1.000  C
  C144     1.0000 0.18161  0.64160  0.84574  Biso   1.000  C
  H195     1.0000 0.19600  0.61850  0.84960  Biso   1.000  H
  H196     1.0000 0.17580  0.64330  0.82550  Biso   1.000  H
  H197     1.0000 0.19520  0.66440  0.85190  Biso   1.000  H
  C145     1.0000 0.12290  0.67581  0.85610  Biso   1.000  C
  H198     1.0000 0.13670  0.69880  0.86170  Biso   1.000  H
  H199     1.0000 0.11620  0.67720  0.83600  Biso   1.000  H
  H200     1.0000 0.10130  0.67450  0.86700  Biso   1.000  H
  C146     1.0000 0.12590  0.60142  0.85370  Biso   1.000  C
  H201     1.0000 0.14140  0.57930  0.85770  Biso   1.000  H
  H202     1.0000 0.10420  0.59930  0.86450  Biso   1.000  H
  H203     1.0000 0.11920  0.60200  0.83350  Biso   1.000  H
  C147     1.0000 0.24958  0.57990  0.98433  Biso   1.000  C
  C148     1.0000 0.25066  0.59786  0.95785  Biso   1.000  C
  C149     1.0000 0.26220  0.57700  0.93374  Biso   1.000  C
  H204     1.0000 0.26260  0.58980  0.91610  Biso   1.000  H
  C150     1.0000 0.27286  0.53870  0.93537  Biso   1.000  C
  C151     1.0000 0.27128  0.52099  0.96129  Biso   1.000  C
  H205     1.0000 0.27810  0.49480  0.96280  Biso   1.000  H
  C152     1.0000 0.25980  0.54051  0.98609  Biso   1.000  C
  C153     1.0000 0.28613  0.51732  0.90920  Biso   1.000  C
  C154     1.0000 0.32742  0.52480  0.91070  Biso   1.000  C
  H206     1.0000 0.33790  0.51410  0.92820  Biso   1.000  H
  H207     1.0000 0.33830  0.51240  0.89470  Biso   1.000  H
  H208     1.0000 0.33190  0.55250  0.91010  Biso   1.000  H
  C155     1.0000 0.28050  0.47319  0.91110  Biso   1.000  C
  H209     1.0000 0.28800  0.46430  0.93000  Biso   1.000  H
  H210     1.0000 0.25510  0.46720  0.90750  Biso   1.000  H
  H211     1.0000 0.29480  0.46030  0.89720  Biso   1.000  H
  C156     1.0000 0.27560  0.53600  0.88067  Biso   1.000  C
  H212     1.0000 0.28500  0.52060  0.86540  Biso   1.000  H
  H213     1.0000 0.24940  0.53720  0.87840  Biso   1.000  H
  H214     1.0000 0.28550  0.56200  0.88000  Biso   1.000  H
  C157     1.0000 0.30790  0.48026  0.91500  Biso   1.000  C
  H215     1.0000 0.31490  0.46910  0.89720  Biso   1.000  H
  H216     1.0000 0.32940  0.48640  0.92670  Biso   1.000  H
  H217     1.0000 0.29330  0.46180  0.92500  Biso   1.000  H
  C158     1.0000 0.25152  0.50890  0.89105  Biso   1.000  C
  H218     1.0000 0.23830  0.53290  0.88770  Biso   1.000  H
  H219     1.0000 0.25790  0.49780  0.87300  Biso   1.000  H
  H220     1.0000 0.23650  0.49070  0.90100  Biso   1.000  H
  C159     1.0000 0.30910  0.54430  0.89098  Biso   1.000  C
  H221     1.0000 0.29590  0.56820  0.88690  Biso   1.000  H
  H222     1.0000 0.33170  0.55040  0.90130  Biso   1.000  H
  H223     1.0000 0.31420  0.53150  0.87330  Biso   1.000  H
  C160     1.0000 0.37426  0.97309  0.04484  Biso   1.000  C
  C161     1.0000 0.41167  0.98091  0.04351  Biso   1.000  C
  C162     1.0000 0.42518  0.99642  0.01848  Biso   1.000  C
  H224     1.0000 0.45000  0.00160  0.01790  Biso   1.000  H
  C163     1.0000 0.40310  0.00450  0.99440  Biso   1.000  C
  C164     1.0000 0.36581  0.99657  0.99624  Biso   1.000  C
  H225     1.0000 0.35010  0.00160  0.98050  Biso   1.000  H
  C165     1.0000 0.35190  0.98170  0.02067  Biso   1.000  C
  C166     1.0000 0.41876  0.02131  0.96657  Biso   1.000  C
  C167     1.0000 0.45988  0.01550  0.96520  Biso   1.000  C
  H226     1.0000 0.46570  0.98840  0.96840  Biso   1.000  H
  H227     1.0000 0.46760  0.02330  0.94660  Biso   1.000  H
  H228     1.0000 0.47220  0.03120  0.97970  Biso   1.000  H
  C168     1.0000 0.40520  0.06328  0.96184  Biso   1.000  C
  H229     1.0000 0.37910  0.06400  0.96310  Biso   1.000  H
  H230     1.0000 0.41620  0.08010  0.97630  Biso   1.000  H
  H231     1.0000 0.41170  0.07210  0.94320  Biso   1.000  H
  C169     1.0000 0.40400  0.99580  0.94155  Biso   1.000  C
  H232     1.0000 0.37780  0.99730  0.94040  Biso   1.000  H
  H233     1.0000 0.41350  0.00510  0.92390  Biso   1.000  H
  H234     1.0000 0.41130  0.96910  0.94470  Biso   1.000  H
  C170     1.0000 0.39105  0.02650  0.94121  Biso   1.000  C
  H235     1.0000 0.37200  0.04400  0.94660  Biso   1.000  H
  H236     1.0000 0.40310  0.03730  0.92510  Biso   1.000  H
  H237     1.0000 0.38070  0.00150  0.93600  Biso   1.000  H
  C171     1.0000 0.43520  0.06268  0.97270  Biso   1.000  C
  H238     1.0000 0.45280  0.06110  0.98850  Biso   1.000  H
  H239     1.0000 0.44690  0.07200  0.95600  Biso   1.000  H
  H240     1.0000 0.41610  0.08050  0.97750  Biso   1.000  H
  C172     1.0000 0.44965  0.99340  0.95850  Biso   1.000  C
  H241     1.0000 0.46670  0.99050  0.97460  Biso   1.000  H
  H242     1.0000 0.43960  0.96820  0.95340  Biso   1.000  H
  H243     1.0000 0.46200  0.00400  0.94250  Biso   1.000  H
  C173     1.0000 0.27764  0.99916  0.07131  Biso   1.000  C
  C174     1.0000 0.28341  0.00513  0.04168  Biso   1.000  C
  C175     1.0000 0.27150  0.03819  0.02711  Biso   1.000  C
  H244     1.0000 0.27610  0.04050  0.00770  Biso   1.000  H
  C176     1.0000 0.25363  0.06701  0.03968  Biso   1.000  C
  C177     1.0000 0.24879  0.06281  0.06938  Biso   1.000  C
  H245     1.0000 0.23720  0.08290  0.07900  Biso   1.000  H
  C178     1.0000 0.26029  0.03087  0.08464  Biso   1.000  C
  C179     1.0000 0.23715  0.10323  0.02474  Biso   1.000  C
  C180     1.0000 0.25270  0.14093  0.03801  Biso   1.000  C
  H246     1.0000 0.24840  0.14130  0.05820  Biso   1.000  H
  H247     1.0000 0.27850  0.14210  0.03530  Biso   1.000  H
  H248     1.0000 0.24100  0.16310  0.02890  Biso   1.000  H
  C181     1.0000 0.19579  0.10570  0.02625  Biso   1.000  C
  H249     1.0000 0.18930  0.10680  0.04600  Biso   1.000  H
  H250     1.0000 0.18710  0.12880  0.01640  Biso   1.000  H
  H251     1.0000 0.18490  0.08290  0.01730  Biso   1.000  H
  C182     1.0000 0.24340  0.10150  0.99279  Biso   1.000  C
  H252     1.0000 0.26910  0.09990  0.98980  Biso   1.000  H
  H253     1.0000 0.23150  0.07880  0.98460  Biso   1.000  H
  H254     1.0000 0.23370  0.12470  0.98370  Biso   1.000  H
  C183     1.0000 0.21230  0.12890  0.04301  Biso   1.000  C
  H255     1.0000 0.19250  0.11330  0.04960  Biso   1.000  H
  H256     1.0000 0.22630  0.13900  0.05930  Biso   1.000  H
  H257     1.0000 0.20280  0.15030  0.03160  Biso   1.000  H
  C184     1.0000 0.26881  0.12740  0.01410  Biso   1.000  C
  H258     1.0000 0.25950  0.15050  0.00460  Biso   1.000  H
  H259     1.0000 0.28460  0.13490  0.03020  Biso   1.000  H
  H260     1.0000 0.28230  0.11210  0.00090  Biso   1.000  H
  C185     1.0000 0.21390  0.08740  0.99915  Biso   1.000  C
  H261     1.0000 0.19410  0.07220  0.00610  Biso   1.000  H
  H262     1.0000 0.20440  0.10890  0.98790  Biso   1.000  H
  H263     1.0000 0.22880  0.07110  0.98750  Biso   1.000  H
  C186     1.0000 0.32307  0.02837  0.14734  Biso   1.000  C
  C187     1.0000 0.29327  0.05215  0.13730  Biso   1.000  C
  C188     1.0000 0.29403  0.09262  0.13827  Biso   1.000  C
  H264     1.0000 0.27360  0.10660  0.13170  Biso   1.000  H
  C189     1.0000 0.32520  0.11334  0.14907  Biso   1.000  C
  C190     1.0000 0.35447  0.09140  0.15894  Biso   1.000  C
  H265     1.0000 0.37540  0.10420  0.16600  Biso   1.000  H
  C191     1.0000 0.35391  0.05027  0.15869  Biso   1.000  C
  C192     1.0000 0.32640  0.15827  0.14953  Biso   1.000  C
  C193     1.0000 0.32680  0.16530  0.18208  Biso   1.000  C
  H266     1.0000 0.34690  0.15120  0.19110  Biso   1.000  H
  H267     1.0000 0.32960  0.19280  0.18590  Biso   1.000  H
  H268     1.0000 0.30430  0.15620  0.18950  Biso   1.000  H
  C194     1.0000 0.36357  0.17060  0.13870  Biso   1.000  C
  H269     1.0000 0.38270  0.15850  0.15030  Biso   1.000  H
  H270     1.0000 0.36540  0.16250  0.11910  Biso   1.000  H
  H271     1.0000 0.36590  0.19860  0.13990  Biso   1.000  H
  C195     1.0000 0.29670  0.17790  0.13060  Biso   1.000  C
  H272     1.0000 0.27310  0.17050  0.13710  Biso   1.000  H
  H273     1.0000 0.29930  0.20590  0.13190  Biso   1.000  H
  H274     1.0000 0.29880  0.16970  0.11110  Biso   1.000  H
  C196     1.0000 0.36308  0.17700  0.15870  Biso   1.000  C
  H275     1.0000 0.36980  0.16910  0.17800  Biso   1.000  H
  H276     1.0000 0.38150  0.16850  0.14600  Biso   1.000  H
  H277     1.0000 0.36090  0.20500  0.15790  Biso   1.000  H
  C197     1.0000 0.29823  0.17340  0.17045  Biso   1.000  C
  H278     1.0000 0.30410  0.16340  0.18930  Biso   1.000  H
  H279     1.0000 0.29880  0.20150  0.17090  Biso   1.000  H
  H280     1.0000 0.27430  0.16460  0.16420  Biso   1.000  H
  C198     1.0000 0.31900  0.17290  0.11897  Biso   1.000  C
  H281     1.0000 0.31960  0.20100  0.11880  Biso   1.000  H
  H282     1.0000 0.33740  0.16280  0.10680  Biso   1.000  H
  H283     1.0000 0.29540  0.16400  0.11210  Biso   1.000  H
  C199     1.0000 0.41739  0.00300  0.12073  Biso   1.000  C
  C200     1.0000 0.42241  0.03084  0.14263  Biso   1.000  C
  C201     1.0000 0.45088  0.05708  0.14313  Biso   1.000  C
  H284     1.0000 0.45360  0.07430  0.15850  Biso   1.000  H
  C202     1.0000 0.47568  0.05888  0.12161  Biso   1.000  C
  C203     1.0000 0.47087  0.03124  0.09971  Biso   1.000  C
  H285     1.0000 0.48700  0.03120  0.08490  Biso   1.000  H
  C204     1.0000 0.44294  0.00375  0.09924  Biso   1.000  C
  C205     1.0000 0.50561  0.08981  0.12204  Biso   1.000  C
  C206     1.0000 0.53173  0.08620  0.09801  Biso   1.000  C
  H286     1.0000 0.51880  0.09060  0.08000  Biso   1.000  H
  H287     1.0000 0.55080  0.10540  0.10060  Biso   1.000  H
  H288     1.0000 0.54220  0.06040  0.09820  Biso   1.000  H
  C207     1.0000 0.48930  0.13064  0.12310  Biso   1.000  C
  H289     1.0000 0.47470  0.13530  0.10580  Biso   1.000  H
  H290     1.0000 0.47420  0.13270  0.13930  Biso   1.000  H
  H291     1.0000 0.50850  0.14970  0.12470  Biso   1.000  H
  C208     1.0000 0.52840  0.08260  0.14919  Biso   1.000  C
  H292     1.0000 0.51330  0.08440  0.16540  Biso   1.000  H
  H293     1.0000 0.53900  0.05680  0.14850  Biso   1.000  H
  H294     1.0000 0.54750  0.10180  0.15090  Biso   1.000  H
  C209     1.0000 0.50753  0.08824  0.12427  Biso   1.000  C
  C210     1.0000 0.50230  0.11390  0.09740  Biso   1.000  C
  H295     1.0000 0.48050  0.12930  0.09880  Biso   1.000  H
  H296     1.0000 0.52290  0.13110  0.09590  Biso   1.000  H
  H297     1.0000 0.50020  0.09750  0.08070  Biso   1.000  H
  C211     1.0000 0.54203  0.06350  0.12270  Biso   1.000  C
  H298     1.0000 0.54490  0.04760  0.13960  Biso   1.000  H
  H299     1.0000 0.54010  0.04690  0.10610  Biso   1.000  H
  H300     1.0000 0.56280  0.08040  0.12130  Biso   1.000  H
  C212     1.0000 0.51040  0.11400  0.15124  Biso   1.000  C
  H301     1.0000 0.48880  0.12970  0.15230  Biso   1.000  H
  H302     1.0000 0.51300  0.09770  0.16800  Biso   1.000  H
  H303     1.0000 0.53130  0.13090  0.15030  Biso   1.000  H
  C213     1.0000 0.50183  0.92786  0.37633  Biso   1.000  C
  C214     1.0000 0.52046  0.94478  0.35431  Biso   1.000  C
  C215     1.0000 0.53208  0.98210  0.35349  Biso   1.000  C
  H304     1.0000 0.54460  0.99080  0.33770  Biso   1.000  H
  C216     1.0000 0.52569  0.00809  0.37599  Biso   1.000  C
  C217     1.0000 0.50592  0.99164  0.39874  Biso   1.000  C
  H305     1.0000 0.50020  0.00770  0.41410  Biso   1.000  H
  C218     1.0000 0.49501  0.95323  0.39903  Biso   1.000  C
  C219     1.0000 0.53990  0.05100  0.37667  Biso   1.000  C
  C220     1.0000 0.52750  0.07610  0.40153  Biso   1.000  C
  H306     1.0000 0.53750  0.06560  0.41930  Biso   1.000  H
  H307     1.0000 0.53580  0.10250  0.39920  Biso   1.000  H
  H308     1.0000 0.50130  0.07580  0.40170  Biso   1.000  H
  C221     1.0000 0.52200  0.07110  0.35051  Biso   1.000  C
  H309     1.0000 0.52830  0.05730  0.33340  Biso   1.000  H
  H310     1.0000 0.49600  0.07100  0.35210  Biso   1.000  H
  H311     1.0000 0.53050  0.09770  0.34950  Biso   1.000  H
  C222     1.0000 0.58158  0.05180  0.37510  Biso   1.000  C
  H312     1.0000 0.59250  0.03910  0.39170  Biso   1.000  H
  H313     1.0000 0.58860  0.03840  0.35810  Biso   1.000  H
  H314     1.0000 0.58980  0.07850  0.37450  Biso   1.000  H
  C223     1.0000 0.54007  0.05066  0.37820  Biso   1.000  C
  C224     1.0000 0.50723  0.07760  0.38000  Biso   1.000  C
  H315     1.0000 0.49360  0.07060  0.39630  Biso   1.000  H
  H316     1.0000 0.51540  0.10430  0.38190  Biso   1.000  H
  H317     1.0000 0.49200  0.07500  0.36280  Biso   1.000  H
  C225     1.0000 0.56490  0.05600  0.40508  Biso   1.000  C
  H318     1.0000 0.58570  0.03900  0.40400  Biso   1.000  H
  H319     1.0000 0.57300  0.08280  0.40630  Biso   1.000  H
  H320     1.0000 0.55160  0.04960  0.42180  Biso   1.000  H
  C226     1.0000 0.56100  0.06280  0.35204  Biso   1.000  C
  H321     1.0000 0.58190  0.04620  0.35040  Biso   1.000  H
  H322     1.0000 0.54540  0.06030  0.33510  Biso   1.000  H
  H323     1.0000 0.56880  0.08960  0.35420  Biso   1.000  H
  C227     1.0000 0.50869  0.87333  0.44883  Biso   1.000  C
  C228     1.0000 0.50267  0.91272  0.45141  Biso   1.000  C
  C229     1.0000 0.52124  0.93440  0.47266  Biso   1.000  C
  H324     1.0000 0.51650  0.96110  0.47400  Biso   1.000  H
  C230     1.0000 0.54633  0.91784  0.49170  Biso   1.000  C
  C231     1.0000 0.55121  0.87783  0.48951  Biso   1.000  C
  H325     1.0000 0.56740  0.86550  0.50250  Biso   1.000  H
  C232     1.0000 0.53289  0.85506  0.46873  Biso   1.000  C
  C233     1.0000 0.56641  0.94329  0.51405  Biso   1.000  C
  C234     1.0000 0.54481  0.94040  0.54097  Biso   1.000  C
  H326     1.0000 0.52060  0.95020  0.53710  Biso   1.000  H
  H327     1.0000 0.54360  0.91350  0.54690  Biso   1.000  H
  H328     1.0000 0.55660  0.95570  0.55600  Biso   1.000  H
  C235     1.0000 0.60508  0.92800  0.51921  Biso   1.000  C
  H329     1.0000 0.61810  0.93020  0.50180  Biso   1.000  H
  H330     1.0000 0.61730  0.94320  0.53410  Biso   1.000  H
  H331     1.0000 0.60430  0.90100  0.52500  Biso   1.000  H
  C236     1.0000 0.56680  0.98752  0.50568  Biso   1.000  C
  H332     1.0000 0.58020  0.99090  0.48860  Biso   1.000  H
  H333     1.0000 0.54210  0.99650  0.50220  Biso   1.000  H
  H334     1.0000 0.57810  0.00240  0.52110  Biso   1.000  H
  C237     1.0000 0.54480  0.97440  0.52880  Biso   1.000  C
  H335     1.0000 0.53240  0.99070  0.51470  Biso   1.000  H
  H336     1.0000 0.52720  0.96220  0.54060  Biso   1.000  H
  H337     1.0000 0.56100  0.99030  0.54070  Biso   1.000  H
  C238     1.0000 0.58600  0.91760  0.53617  Biso   1.000  C
  H338     1.0000 0.59970  0.89780  0.52660  Biso   1.000  H
  H339     1.0000 0.60230  0.93330  0.54800  Biso   1.000  H
  H340     1.0000 0.56840  0.90520  0.54790  Biso   1.000  H
  C239     1.0000 0.60059  0.95760  0.50010  Biso   1.000  C
  H341     1.0000 0.61250  0.93580  0.49130  Biso   1.000  H
  H342     1.0000 0.59410  0.97680  0.48580  Biso   1.000  H
  H343     1.0000 0.61690  0.96910  0.51440  Biso   1.000  H
  C240     1.0000 0.57328  0.79488  0.41838  Biso   1.000  C
  C241     1.0000 0.57675  0.79611  0.44796  Biso   1.000  C
  C242     1.0000 0.61036  0.78923  0.46185  Biso   1.000  C
  H344     1.0000 0.61210  0.78960  0.48180  Biso   1.000  H
  C243     1.0000 0.64122  0.78190  0.44692  Biso   1.000  C
  C244     1.0000 0.63772  0.78033  0.41738  Biso   1.000  C
  H345     1.0000 0.65810  0.77500  0.40690  Biso   1.000  H
  C245     1.0000 0.60422  0.78659  0.40304  Biso   1.000  C
  C246     1.0000 0.67780  0.77371  0.46164  Biso   1.000  C
  C247     1.0000 0.67683  0.77430  0.49386  Biso   1.000  C
  H346     1.0000 0.65970  0.75510  0.50000  Biso   1.000  H
  H347     1.0000 0.70070  0.76840  0.50200  Biso   1.000  H
  H348     1.0000 0.66950  0.79990  0.50010  Biso   1.000  H
  C248     1.0000 0.70517  0.80452  0.45482  Biso   1.000  C
  H349     1.0000 0.69650  0.82970  0.46080  Biso   1.000  H
  H350     1.0000 0.72800  0.79880  0.46480  Biso   1.000  H
  H351     1.0000 0.70850  0.80490  0.43450  Biso   1.000  H
  C249     1.0000 0.69355  0.73573  0.45158  Biso   1.000  C
  H352     1.0000 0.67710  0.71470  0.45540  Biso   1.000  H
  H353     1.0000 0.69710  0.73720  0.43130  Biso   1.000  H
  H354     1.0000 0.71660  0.73110  0.46160  Biso   1.000  H
  C250     1.0000 0.56755  0.85014  0.34468  Biso   1.000  C
  C251     1.0000 0.60038  0.83203  0.35271  Biso   1.000  C
  C252     1.0000 0.63324  0.85113  0.35001  Biso   1.000  C
  H355     1.0000 0.65490  0.83820  0.35510  Biso   1.000  H
  C253     1.0000 0.63438  0.88928  0.33988  Biso   1.000  C
  C254     1.0000 0.60217  0.90637  0.33180  Biso   1.000  C
  H356     1.0000 0.60250  0.93150  0.32410  Biso   1.000  H
  C255     1.0000 0.56908  0.88827  0.33453  Biso   1.000  C
  C256     1.0000 0.67062  0.91074  0.33606  Biso   1.000  C
  C257     1.0000 0.70356  0.88950  0.34966  Biso   1.000  C
  H357     1.0000 0.72530  0.90440  0.34650  Biso   1.000  H
  H358     1.0000 0.70050  0.88670  0.36990  Biso   1.000  H
  H359     1.0000 0.70570  0.86400  0.34110  Biso   1.000  H
  C258     1.0000 0.66700  0.95297  0.34775  Biso   1.000  C
  H360     1.0000 0.64600  0.96530  0.33870  Biso   1.000  H
  H361     1.0000 0.66430  0.95210  0.36810  Biso   1.000  H
  H362     1.0000 0.68850  0.96770  0.34370  Biso   1.000  H
  C259     1.0000 0.67490  0.91350  0.30342  Biso   1.000  C
  H363     1.0000 0.65420  0.92680  0.29480  Biso   1.000  H
  H364     1.0000 0.69670  0.92770  0.29960  Biso   1.000  H
  H365     1.0000 0.67640  0.88760  0.29550  Biso   1.000  H
  C260     1.0000 0.69550  0.88380  0.31990  Biso   1.000  C
  H366     1.0000 0.69760  0.85900  0.32960  Biso   1.000  H
  H367     1.0000 0.68550  0.87980  0.30070  Biso   1.000  H
  H368     1.0000 0.71920  0.89550  0.31900  Biso   1.000  H
  C261     1.0000 0.66710  0.94993  0.32090  Biso   1.000  C
  H369     1.0000 0.65130  0.96670  0.33130  Biso   1.000  H
  H370     1.0000 0.69070  0.96180  0.32010  Biso   1.000  H
  H371     1.0000 0.65700  0.94610  0.30180  Biso   1.000  H
  C262     1.0000 0.68740  0.91410  0.36673  Biso   1.000  C
  H372     1.0000 0.68900  0.88850  0.37530  Biso   1.000  H
  H373     1.0000 0.71130  0.92530  0.36610  Biso   1.000  H
  H374     1.0000 0.67220  0.93060  0.37800  Biso   1.000  H
  C263     1.0000 0.43240  0.54151  0.13072  Biso   1.000  C
  C264     1.0000 0.39804  0.54668  0.11841  Biso   1.000  C
  H375     1.0000 0.37860  0.53170  0.12450  Biso   1.000  H
  C265     1.0000 0.39244  0.57435  0.09684  Biso   1.000  C
  C266     1.0000 0.42204  0.59509  0.08666  Biso   1.000  C
  H376     1.0000 0.41870  0.61260  0.07150  Biso   1.000  H
  C267     1.0000 0.45638  0.58946  0.09927  Biso   1.000  C
  C268     1.0000 0.46124  0.56340  0.12142  Biso   1.000  C
  H377     1.0000 0.48430  0.56040  0.13030  Biso   1.000  H
  C269     1.0000 0.43874  0.51305  0.15595  Biso   1.000  C
  C270     1.0000 0.48752  0.61583  0.09047  Biso   1.000  C
  C271     1.0000 0.31135  0.58632  0.04518  Biso   1.000  C
  H378     1.0000 0.30680  0.58700  0.02540  Biso   1.000  H
  C272     1.0000 0.34738  0.58348  0.05512  Biso   1.000  C
  H379     1.0000 0.36620  0.58270  0.04230  Biso   1.000  H
  C273     1.0000 0.35499  0.58180  0.08468  Biso   1.000  C
  C274     1.0000 0.32565  0.58746  0.10220  Biso   1.000  C
  H380     1.0000 0.32970  0.58910  0.12200  Biso   1.000  H
  C275     1.0000 0.28980  0.59075  0.09029  Biso   1.000  C
  H381     1.0000 0.27070  0.59480  0.10240  Biso   1.000  H
  C276     1.0000 0.41818  0.76477  0.05337  Biso   1.000  C
  C277     1.0000 0.38909  0.74028  0.04529  Biso   1.000  C
  H382     1.0000 0.39340  0.71370  0.04250  Biso   1.000  H
  C278     1.0000 0.35320  0.75484  0.04120  Biso   1.000  C
  C279     1.0000 0.34876  0.79471  0.04404  Biso   1.000  C
  H383     1.0000 0.32560  0.80500  0.04020  Biso   1.000  H
  C280     1.0000 0.37648  0.82071  0.05231  Biso   1.000  C
  C281     1.0000 0.41135  0.80453  0.05705  Biso   1.000  C
  H384     1.0000 0.43060  0.82090  0.06290  Biso   1.000  H
  C282     1.0000 0.45708  0.74897  0.05904  Biso   1.000  C
  C283     1.0000 0.26058  0.70923  0.03915  Biso   1.000  C
  H385     1.0000 0.23860  0.71300  0.04800  Biso   1.000  H
  C284     1.0000 0.28876  0.73336  0.04673  Biso   1.000  C
  H386     1.0000 0.28530  0.75300  0.06020  Biso   1.000  H
  C285     1.0000 0.32296  0.72941  0.03470  Biso   1.000  C
  C286     1.0000 0.32509  0.69727  0.01751  Biso   1.000  C
  H387     1.0000 0.34750  0.69050  0.01040  Biso   1.000  H
  C287     1.0000 0.29434  0.67390  0.01018  Biso   1.000  C
  H388     1.0000 0.29720  0.65280  0.99790  Biso   1.000  H
  C288     1.0000 0.50309  0.82780  0.16075  Biso   1.000  C
  C289     1.0000 0.47981  0.85496  0.14861  Biso   1.000  C
  H389     1.0000 0.47890  0.85840  0.12880  Biso   1.000  H
  C290     1.0000 0.45738  0.87756  0.16538  Biso   1.000  C
  C291     1.0000 0.45742  0.87084  0.19448  Biso   1.000  C
  H390     1.0000 0.44230  0.88570  0.20570  Biso   1.000  H
  C292     1.0000 0.47924  0.84284  0.20711  Biso   1.000  C
  C293     1.0000 0.50364  0.82185  0.19044  Biso   1.000  C
  H391     1.0000 0.52000  0.80420  0.19910  Biso   1.000  H
  C294     1.0000 0.52548  0.80266  0.14189  Biso   1.000  C
  C295     1.0000 0.43234  0.90592  0.15103  Biso   1.000  C
  C296     1.0000 0.51154  0.83332  0.28417  Biso   1.000  C
  H392     1.0000 0.53370  0.83100  0.29450  Biso   1.000  H
  C297     1.0000 0.51194  0.83297  0.25444  Biso   1.000  C
  H393     1.0000 0.53370  0.82960  0.24520  Biso   1.000  H
  C298     1.0000 0.48005  0.83761  0.23896  Biso   1.000  C
  C299     1.0000 0.44829  0.83867  0.25329  Biso   1.000  C
  H394     1.0000 0.42570  0.83940  0.24350  Biso   1.000  H
  C300     1.0000 0.45105  0.83857  0.28326  Biso   1.000  C
  H395     1.0000 0.42950  0.83980  0.29300  Biso   1.000  H
  C301     1.0000 0.54269  0.65510  0.20432  Biso   1.000  C
  C302     1.0000 0.53310  0.61669  0.20796  Biso   1.000  C
  H396     1.0000 0.53400  0.59940  0.19260  Biso   1.000  H
  C303     1.0000 0.52210  0.60327  0.23400  Biso   1.000  C
  C304     1.0000 0.52034  0.62818  0.25683  Biso   1.000  C
  H397     1.0000 0.51180  0.61910  0.27410  Biso   1.000  H
  C305     1.0000 0.53116  0.66677  0.25442  Biso   1.000  C
  C306     1.0000 0.54209  0.67994  0.22784  Biso   1.000  C
  H398     1.0000 0.54910  0.70600  0.22580  Biso   1.000  H
  C307     1.0000 0.55377  0.66881  0.17492  Biso   1.000  C
  C308     1.0000 0.51139  0.56026  0.23519  Biso   1.000  C
  C309     1.0000 0.50262  0.71811  0.32166  Biso   1.000  C
  H399     1.0000 0.48480  0.71530  0.33510  Biso   1.000  H
  C310     1.0000 0.50252  0.69261  0.29901  Biso   1.000  C
  H400     1.0000 0.48430  0.67370  0.29730  Biso   1.000  H
  C311     1.0000 0.52885  0.69431  0.27869  Biso   1.000  C
  C312     1.0000 0.55402  0.72443  0.28247  Biso   1.000  C
  H401     1.0000 0.57200  0.72780  0.26920  Biso   1.000  H
  C313     1.0000 0.55264  0.74997  0.30610  Biso   1.000  C
  H402     1.0000 0.57020  0.76950  0.30820  Biso   1.000  H
  C314     1.0000 0.19999  0.52860  0.12840  Biso   1.000  C
  C315     1.0000 0.17140  0.51982  0.14536  Biso   1.000  C
  H403     1.0000 0.14780  0.52330  0.13770  Biso   1.000  H
  C316     1.0000 0.17575  0.50628  0.17284  Biso   1.000  C
  C317     1.0000 0.21089  0.50113  0.18442  Biso   1.000  C
  H404     1.0000 0.21420  0.49040  0.20270  Biso   1.000  H
  C318     1.0000 0.24182  0.51181  0.16906  Biso   1.000  C
  C319     1.0000 0.23438  0.52470  0.14079  Biso   1.000  C
  H405     1.0000 0.25410  0.53100  0.12980  Biso   1.000  H
  C320     1.0000 0.19467  0.54228  0.09819  Biso   1.000  C
  C321     1.0000 0.14520  0.49443  0.19129  Biso   1.000  C
  C322     1.0000 0.32380  0.47129  0.20978  Biso   1.000  C
  H406     1.0000 0.32860  0.45170  0.22330  Biso   1.000  H
  C323     1.0000 0.28799  0.47800  0.20061  Biso   1.000  C
  H407     1.0000 0.26950  0.46310  0.20820  Biso   1.000  H
  C324     1.0000 0.27948  0.50544  0.18103  Biso   1.000  C
  C325     1.0000 0.30753  0.53166  0.17482  Biso   1.000  C
  H408     1.0000 0.30250  0.55400  0.16390  Biso   1.000  H
  C326     1.0000 0.34337  0.52396  0.18524  Biso   1.000  C
  H409     1.0000 0.36190  0.54170  0.18170  Biso   1.000  H
  C327     1.0000 0.15322  0.75565  0.02318  Biso   1.000  C
  C328     1.0000 0.11915  0.76627  0.03413  Biso   1.000  C
  H410     1.0000 0.09940  0.74910  0.03250  Biso   1.000  H
  C329     1.0000 0.11540  0.80194  0.04715  Biso   1.000  C
  C330     1.0000 0.14483  0.82639  0.05023  Biso   1.000  C
  H411     1.0000 0.14240  0.85020  0.05970  Biso   1.000  H
  C331     1.0000 0.17830  0.81632  0.03952  Biso   1.000  C
  C332     1.0000 0.18279  0.78164  0.02635  Biso   1.000  C
  H412     1.0000 0.20540  0.77490  0.01940  Biso   1.000  H
  C333     1.0000 0.15842  0.71442  0.01123  Biso   1.000  C
  C334     1.0000 0.08055  0.81299  0.06117  Biso   1.000  C
  C335     1.0000 0.26635  0.87224  0.03152  Biso   1.000  C
  H413     1.0000 0.28440  0.87460  0.01820  Biso   1.000  H
  C336     1.0000 0.23678  0.84692  0.02491  Biso   1.000  C
  H414     1.0000 0.23560  0.83330  0.00760  Biso   1.000  H
  C337     1.0000 0.20962  0.84242  0.04424  Biso   1.000  C
  C338     1.0000 0.21293  0.86554  0.06718  Biso   1.000  C
  H415     1.0000 0.19440  0.86540  0.08020  Biso   1.000  H
  C339     1.0000 0.24366  0.89047  0.07257  Biso   1.000  C
  H416     1.0000 0.24470  0.90560  0.08920  Biso   1.000  H
  C340     1.0000 0.48938  0.67496  0.40340  Biso   1.000  C
  C341     1.0000 0.46383  0.66577  0.42281  Biso   1.000  C
  H417     1.0000 0.45840  0.68390  0.43690  Biso   1.000  H
  C342     1.0000 0.44593  0.63042  0.42208  Biso   1.000  C
  C343     1.0000 0.45414  0.60461  0.40079  Biso   1.000  C
  H418     1.0000 0.44180  0.58080  0.39970  Biso   1.000  H
  C344     1.0000 0.48059  0.61279  0.38037  Biso   1.000  C
  C345     1.0000 0.49839  0.64841  0.38265  Biso   1.000  C
  H419     1.0000 0.51660  0.65450  0.37010  Biso   1.000  H
  C346     1.0000 0.50500  0.71504  0.40340  Biso   1.000  C
  C347     1.0000 0.41663  0.62004  0.44154  Biso   1.000  C
  C348     1.0000 0.52466  0.54944  0.32615  Biso   1.000  C
  H420     1.0000 0.54790  0.54610  0.31920  Biso   1.000  H
  C349     1.0000 0.52099  0.57635  0.34701  Biso   1.000  C
  H421     1.0000 0.54120  0.59030  0.35420  Biso   1.000  H
  C350     1.0000 0.48757  0.58300  0.35748  Biso   1.000  C
  C351     1.0000 0.45976  0.55913  0.34590  Biso   1.000  C
  H422     1.0000 0.43630  0.56140  0.35250  Biso   1.000  H
  C352     1.0000 0.46665  0.53223  0.32483  Biso   1.000  C
  H423     1.0000 0.44740  0.51690  0.31760  Biso   1.000  H
  C353     1.0000 0.37704  0.91036  0.33389  Biso   1.000  C
  C354     1.0000 0.34663  0.91944  0.34837  Biso   1.000  C
  H424     1.0000 0.34660  0.91600  0.36820  Biso   1.000  H
  C355     1.0000 0.31596  0.93369  0.33385  Biso   1.000  C
  C356     1.0000 0.31569  0.93901  0.30440  Biso   1.000  C
  H425     1.0000 0.29500  0.94870  0.29460  Biso   1.000  H
  C357     1.0000 0.34709  0.92969  0.28938  Biso   1.000  C
  C358     1.0000 0.37727  0.91498  0.30475  Biso   1.000  C
  H426     1.0000 0.39800  0.90810  0.29510  Biso   1.000  H
  C359     1.0000 0.41161  0.89529  0.34922  Biso   1.000  C
  C360     1.0000 0.28106  0.94492  0.34850  Biso   1.000  C
  N8       1.0000 0.35829  0.95649  0.20056  Biso   1.000  N
  C361     1.0000 0.32580  0.94750  0.21180  Biso   1.000  C
  H427     1.0000 0.30520  0.94630  0.19950  Biso   1.000  H
  C362     1.0000 0.32200  0.94021  0.24007  Biso   1.000  C
  H428     1.0000 0.29900  0.93470  0.24660  Biso   1.000  H
  C363     1.0000 0.35030  0.94070  0.25854  Biso   1.000  C
  C364     1.0000 0.38400  0.95170  0.24899  Biso   1.000  C
  H429     1.0000 0.40400  0.95440  0.26180  Biso   1.000  H
  C365     1.0000 0.38730  0.95840  0.22035  Biso   1.000  C
  H430     1.0000 0.41030  0.96460  0.21380  Biso   1.000  H
  N9       1.0000 0.35009  0.94130  0.19803  Biso   1.000  N
  C366     1.0000 0.33319  0.96820  0.21276  Biso   1.000  C
  H431     1.0000 0.32300  0.98980  0.20330  Biso   1.000  H
  C367     1.0000 0.33019  0.96480  0.24267  Biso   1.000  C
  H432     1.0000 0.31790  0.98370  0.25290  Biso   1.000  H
  C368     1.0000 0.34660  0.93130  0.25728  Biso   1.000  C
  C369     1.0000 0.36210  0.90390  0.23932  Biso   1.000  C
  H433     1.0000 0.37210  0.88120  0.24750  Biso   1.000  H
  C370     1.0000 0.36340  0.90870  0.21039  Biso   1.000  C
  H434     1.0000 0.37360  0.88920  0.19920  Biso   1.000  H
  O55      1.0000 0.43374  0.51424  0.22100  Biso   1.000  O
  O56      1.0000 0.41243  0.52219  0.26408  Biso   1.000  O
  C371     1.0000 0.42546  0.53513  0.24159  Biso   1.000  C
  H435     1.0000 0.42920  0.56200  0.24020  Biso   1.000  H
  O57      1.0000 0.42790  0.64800  0.16071  Biso   1.000  O
  H436     1.0000 0.43250  0.66580  0.14890  Biso   1.000  H
  O58      1.0000 0.45254  0.69147  0.19008  Biso   1.000  O
  N10      1.0000 0.39901  0.71817  0.33906  Biso   1.000  N
  C372     1.0000 0.42223  0.57935  0.23706  Biso   1.000  C
  C373     1.0000 0.42645  0.59695  0.21030  Biso   1.000  C
  H437     1.0000 0.42900  0.58320  0.19330  Biso   1.000  H
  C374     1.0000 0.42637  0.63754  0.21231  Biso   1.000  C
  C375     1.0000 0.42041  0.65860  0.23711  Biso   1.000  C
  H438     1.0000 0.41960  0.68580  0.23590  Biso   1.000  H
  C376     1.0000 0.41558  0.64113  0.26371  Biso   1.000  C
  C377     1.0000 0.41610  0.60079  0.26146  Biso   1.000  C
  H439     1.0000 0.41190  0.58670  0.27810  Biso   1.000  H
  C378     1.0000 0.42344  0.53553  0.24008  Biso   1.000  C
  C379     1.0000 0.43375  0.66031  0.18558  Biso   1.000  C
  C380     1.0000 0.40280  0.73140  0.31185  Biso   1.000  C
  H440     1.0000 0.40280  0.75840  0.30900  Biso   1.000  H
  C381     1.0000 0.40670  0.70702  0.28740  Biso   1.000  C
  H441     1.0000 0.40800  0.71880  0.26950  Biso   1.000  H
  C382     1.0000 0.40850  0.66623  0.28908  Biso   1.000  C
  C383     1.0000 0.40680  0.65104  0.31631  Biso   1.000  C
  H442     1.0000 0.40760  0.62420  0.31970  Biso   1.000  H
  C384     1.0000 0.40390  0.67853  0.33909  Biso   1.000  C
  H443     1.0000 0.40570  0.66740  0.35730  Biso   1.000  H
  O59      1.0000 0.29271  0.90912  0.13161  Biso   1.000  O
  O60      1.0000 0.33856  0.90513  0.10231  Biso   1.000  O
  O61      1.0000 0.34883  0.90932  0.14929  Biso   1.000  O
  C385     1.0000 0.32600  0.90420  0.12694  Biso   1.000  C
  O62      1.0000 0.29990  0.91110  0.13301  Biso   1.000  O
  O63      1.0000 0.35320  0.91390  0.12775  Biso   1.000  O
  C386     1.0000 0.32760  0.88531  0.12888  Biso   1.000  C
  N11      1.0000 0.33061  0.84534  0.13202  Biso   1.000  N
  C387     1.0000 0.36204  0.81790  0.13820  Biso   1.000  C
  H444     1.0000 0.35320  0.79140  0.13880  Biso   1.000  H
  H445     1.0000 0.37930  0.82030  0.12340  Biso   1.000  H
  H446     1.0000 0.37370  0.82450  0.15640  Biso   1.000  H
  C388     1.0000 0.29925  0.81730  0.12690  Biso   1.000  C
  H447     1.0000 0.30760  0.79100  0.13040  Biso   1.000  H
  H448     1.0000 0.28020  0.82340  0.13980  Biso   1.000  H
  H449     1.0000 0.29000  0.81970  0.10750  Biso   1.000  H
  Ni21     1.0000 0.94314  0.65018  0.38727  Biso   1.000  Ni
  Ni22     1.0000 0.98903  0.68655  0.43973  Biso   1.000  Ni
  Ni23     1.0000 0.96930  0.77001  0.41592  Biso   1.000  Ni
  Ni24     1.0000 0.92608  0.73375  0.36243  Biso   1.000  Ni
  Ni25     1.0000 0.09600  0.46773  0.29784  Biso   1.000  Ni
  Ni26     1.0000 0.01352  0.49034  0.29420  Biso   1.000  Ni
  Ni27     1.0000 0.99601  0.49553  0.22152  Biso   1.000  Ni
  Ni28     1.0000 0.09720  0.46863  0.22147  Biso   1.000  Ni
  Ni29     1.0000 0.26825  0.57038  0.45507  Biso   1.000  Ni
  Ni30     1.0000 0.35644  0.56277  0.45065  Biso   1.000  Ni
  Ni31     1.0000 0.37341  0.63643  0.49126  Biso   1.000  Ni
  Ni32     1.0000 0.28486  0.65180  0.49657  Biso   1.000  Ni
  Ni33     1.0000 0.10607  0.92907  0.40388  Biso   1.000  Ni
  Ni34     1.0000 0.18482  0.92506  0.43639  Biso   1.000  Ni
  Ni35     1.0000 0.22414  0.96408  0.37121  Biso   1.000  Ni
  Ni36     1.0000 0.13055  0.96151  0.34202  Biso   1.000  Ni
  Ni37     1.0000 0.01268  0.86041  0.15987  Biso   1.000  Ni
  Ni38     1.0000 0.04648  0.87334  0.09798  Biso   1.000  Ni
  Ni39     1.0000 0.00443  0.79528  0.07446  Biso   1.000  Ni
  Ni40     1.0000 0.96728  0.77783  0.13553  Biso   1.000  Ni
  Cl2      1.0000 0.98408  0.70888  0.38824  Biso   1.000  Cl
  S21      1.0000 0.88849  0.60665  0.39881  Biso   1.000  S
  S22      1.0000 0.96710  0.67052  0.49001  Biso   1.000  S
  S23      1.0000 0.93414  0.81634  0.44760  Biso   1.000  S
  S24      1.0000 0.85950  0.75267  0.35486  Biso   1.000  S
  S25      1.0000 0.11277  0.40439  0.31954  Biso   1.000  S
  S26      1.0000 0.97004  0.44634  0.31755  Biso   1.000  S
  S27      1.0000 0.96131  0.44412  0.20022  Biso   1.000  S
  S28      1.0000 0.10748  0.40620  0.20136  Biso   1.000  S
  S29      1.0000 0.23948  0.51523  0.48008  Biso   1.000  S
  S30      1.0000 0.38565  0.50013  0.46512  Biso   1.000  S
  S31      1.0000 0.41020  0.62554  0.53568  Biso   1.000  S
  S32      1.0000 0.26374  0.64707  0.54596  Biso   1.000  S
  S33      1.0000 0.05798  0.96539  0.42753  Biso   1.000  S
  S34      1.0000 0.19454  0.96665  0.47810  Biso   1.000  S
  S35      1.0000 0.24627  0.02832  0.37772  Biso   1.000  S
  S36      1.0000 0.10706  0.02585  0.32824  Biso   1.000  S
  S37      1.0000 0.97263  0.91344  0.17631  Biso   1.000  S
  S38      1.0000 0.03111  0.93530  0.07218  Biso   1.000  S
  S39      1.0000 0.96292  0.80302  0.03199  Biso   1.000  S
  S40      1.0000 0.90032  0.78226  0.13499  Biso   1.000  S
  O64      1.0000 0.94205  0.66043  0.42937  Biso   1.000  O
  O65      1.0000 0.96304  0.73490  0.44793  Biso   1.000  O
  O66      1.0000 0.91882  0.76136  0.39964  Biso   1.000  O
  O67      1.0000 0.90387  0.68693  0.37848  Biso   1.000  O
  O68      1.0000 0.04584  0.44393  0.29873  Biso   1.000  O
  O69      1.0000 0.99014  0.46737  0.25788  Biso   1.000  O
  O70      1.0000 0.04218  0.45753  0.21267  Biso   1.000  O
  O71      1.0000 0.10341  0.43982  0.25990  Biso   1.000  O
  O72      1.0000 0.31332  0.54143  0.46956  Biso   1.000  O
  O73      1.0000 0.37554  0.57994  0.48886  Biso   1.000  O
  O74      1.0000 0.33095  0.63117  0.51633  Biso   1.000  O
  O75      1.0000 0.26077  0.59888  0.49239  Biso   1.000  O
  O76      1.0000 0.13907  0.95615  0.43243  Biso   1.000  O
  O77      1.0000 0.21197  0.96767  0.41415  Biso   1.000  O
  O78      1.0000 0.17805  0.99064  0.35329  Biso   1.000  O
  O79      1.0000 0.10912  0.97759  0.37944  Biso   1.000  O
  O80      1.0000 0.00793  0.89106  0.12357  Biso   1.000  O
  O81      1.0000 0.00779  0.85260  0.07173  Biso   1.000  O
  O82      1.0000 0.95865  0.80125  0.09599  Biso   1.000  O
  O83      1.0000 0.96464  0.83160  0.15371  Biso   1.000  O
  O84      1.0000 0.98304  0.61211  0.39372  Biso   1.000  O
  O85      1.0000 0.01835  0.63917  0.42970  Biso   1.000  O
  O86      1.0000 0.08899  0.49371  0.33667  Biso   1.000  O
  O87      1.0000 0.02952  0.51276  0.33273  Biso   1.000  O
  O88      1.0000 0.03702  0.71460  0.44694  Biso   1.000  O
  O89      1.0000 0.02189  0.77443  0.42991  Biso   1.000  O
  O90      1.0000 0.10222  0.88123  0.42803  Biso   1.000  O
  O91      1.0000 0.15471  0.88111  0.45729  Biso   1.000  O
  C389     1.0000 0.12560  0.86426  0.44320  Biso   1.000  C
  O92      1.0000 0.10448  0.88087  0.42821  Biso   1.000  O
  O93      1.0000 0.16162  0.87646  0.44672  Biso   1.000  O
  C390     1.0000 0.13061  0.86311  0.44025  Biso   1.000  C
  O94      1.0000 0.98036  0.80650  0.38438  Biso   1.000  O
  O95      1.0000 0.95193  0.77952  0.34528  Biso   1.000  O
  O96      1.0000 0.07097  0.90391  0.37531  Biso   1.000  O
  O97      1.0000 0.08326  0.92970  0.33291  Biso   1.000  O
  O98      1.0000 0.94864  0.64404  0.34461  Biso   1.000  O
  O99      1.0000 0.93686  0.70422  0.32666  Biso   1.000  O
  O100     1.0000 0.98696  0.54023  0.28676  Biso   1.000  O
  O101     1.0000 0.00223  0.54765  0.24042  Biso   1.000  O
  O102     1.0000 0.27715  0.54858  0.41577  Biso   1.000  O
  O103     1.0000 0.33780  0.54648  0.41129  Biso   1.000  O
  O104     1.0000 0.38727  0.49513  0.31913  Biso   1.000  O
  O105     1.0000 0.34775  0.48336  0.28307  Biso   1.000  O
  O106     1.0000 0.36997  0.69354  0.49088  Biso   1.000  O
  O107     1.0000 0.30974  0.70488  0.49463  Biso   1.000  O
  O108     1.0000 0.44587  0.79059  0.44185  Biso   1.000  O
  O109     1.0000 0.41769  0.84505  0.42468  Biso   1.000  O
  O110     1.0000 0.97519  0.72433  0.11738  Biso   1.000  O
  O111     1.0000 0.00357  0.73764  0.07649  Biso   1.000  O
  O112     1.0000 0.08812  0.64085  0.03764  Biso   1.000  O
  O113     1.0000 0.10163  0.59035  0.06675  Biso   1.000  O
  O114     1.0000 0.06257  0.88539  0.16668  Biso   1.000  O
  O115     1.0000 0.08737  0.89325  0.12396  Biso   1.000  O
  O116     1.0000 0.21989  0.94193  0.12451  Biso   1.000  O
  O117     1.0000 0.24685  0.95625  0.16625  Biso   1.000  O
  N12      1.0000 0.21746  0.58813  0.43804  Biso   1.000  N
  N13      1.0000 0.23783  0.68048  0.48015  Biso   1.000  N
  N14      1.0000 0.01847  0.83683  0.20139  Biso   1.000  N
  N15      1.0000 0.97259  0.74729  0.17461  Biso   1.000  N
  N16      1.0000 0.14876  0.49117  0.29968  Biso   1.000  N
  N17      1.0000 0.22999  0.89273  0.44465  Biso   1.000  N
  N18      1.0000 0.00187  0.52730  0.18533  Biso   1.000  N
  C391     1.0000 0.92454  0.63747  0.44654  Biso   1.000  C
  C392     1.0000 0.89734  0.61117  0.43659  Biso   1.000  C
  C393     1.0000 0.87931  0.58763  0.45551  Biso   1.000  C
  H450     1.0000 0.86140  0.57050  0.44840  Biso   1.000  H
  C394     1.0000 0.88714  0.58885  0.48442  Biso   1.000  C
  C395     1.0000 0.91348  0.61411  0.49453  Biso   1.000  C
  H451     1.0000 0.91890  0.61530  0.51420  Biso   1.000  H
  C396     1.0000 0.93273  0.63840  0.47615  Biso   1.000  C
  C397     1.0000 0.86683  0.56349  0.50517  Biso   1.000  C
  C398     1.0000 0.86560  0.52104  0.49571  Biso   1.000  C
  H452     1.0000 0.88990  0.51060  0.49600  Biso   1.000  H
  H453     1.0000 0.85110  0.50620  0.50850  Biso   1.000  H
  H454     1.0000 0.85490  0.51940  0.47660  Biso   1.000  H
  C399     1.0000 0.82730  0.57420  0.50331  Biso   1.000  C
  H455     1.0000 0.81840  0.57280  0.48370  Biso   1.000  H
  H456     1.0000 0.81380  0.55620  0.51470  Biso   1.000  H
  H457     1.0000 0.82430  0.60040  0.51040  Biso   1.000  H
  C400     1.0000 0.88084  0.56560  0.53584  Biso   1.000  C
  H458     1.0000 0.90630  0.55870  0.53700  Biso   1.000  H
  H459     1.0000 0.87790  0.59170  0.54300  Biso   1.000  H
  H460     1.0000 0.86740  0.54760  0.54720  Biso   1.000  H
  C401     1.0000 0.94487  0.74273  0.47115  Biso   1.000  C
  C402     1.0000 0.94255  0.71519  0.49304  Biso   1.000  C
  C403     1.0000 0.92319  0.72367  0.51686  Biso   1.000  C
  H461     1.0000 0.92180  0.70490  0.53130  Biso   1.000  H
  C404     1.0000 0.90550  0.75954  0.52009  Biso   1.000  C
  C405     1.0000 0.90851  0.78652  0.49834  Biso   1.000  C
  H462     1.0000 0.89730  0.81080  0.50000  Biso   1.000  H
  C406     1.0000 0.92748  0.77874  0.47434  Biso   1.000  C
  C407     1.0000 0.88295  0.76821  0.54611  Biso   1.000  C
  C408     1.0000 0.90986  0.78508  0.56768  Biso   1.000  C
  H463     1.0000 0.92990  0.76720  0.57070  Biso   1.000  H
  H464     1.0000 0.91880  0.80960  0.56070  Biso   1.000  H
  H465     1.0000 0.89820  0.78920  0.58550  Biso   1.000  H
  C409     1.0000 0.86821  0.73127  0.55970  Biso   1.000  C
  H466     1.0000 0.85070  0.71920  0.54660  Biso   1.000  H
  H467     1.0000 0.88790  0.71340  0.56390  Biso   1.000  H
  H468     1.0000 0.85670  0.73800  0.57720  Biso   1.000  H
  C410     1.0000 0.85030  0.79463  0.54010  Biso   1.000  C
  H469     1.0000 0.83400  0.78240  0.52620  Biso   1.000  H
  H470     1.0000 0.83790  0.79890  0.55750  Biso   1.000  H
  H471     1.0000 0.85840  0.81930  0.53280  Biso   1.000  H
  C411     1.0000 0.89247  0.78677  0.40240  Biso   1.000  C
  C412     1.0000 0.89434  0.81455  0.42514  Biso   1.000  C
  C413     1.0000 0.86632  0.84164  0.42710  Biso   1.000  C
  H472     1.0000 0.86780  0.86020  0.44170  Biso   1.000  H
  C414     1.0000 0.83566  0.84220  0.40780  Biso   1.000  C
  C415     1.0000 0.83392  0.81388  0.38618  Biso   1.000  C
  H473     1.0000 0.81400  0.81380  0.37320  Biso   1.000  H
  C416     1.0000 0.86061  0.78629  0.38348  Biso   1.000  C
  C417     1.0000 0.80627  0.87424  0.40926  Biso   1.000  C
  C418     1.0000 0.81523  0.90506  0.43213  Biso   1.000  C
  H474     1.0000 0.83780  0.91780  0.42800  Biso   1.000  H
  H475     1.0000 0.79600  0.92410  0.43220  Biso   1.000  H
  H476     1.0000 0.81760  0.89270  0.45060  Biso   1.000  H
  C419     1.0000 0.77043  0.85410  0.41591  Biso   1.000  C
  H477     1.0000 0.76470  0.83470  0.40150  Biso   1.000  H
  H478     1.0000 0.77280  0.84170  0.43440  Biso   1.000  H
  H479     1.0000 0.75120  0.87320  0.41600  Biso   1.000  H
  C420     1.0000 0.80093  0.89610  0.38040  Biso   1.000  C
  H480     1.0000 0.79520  0.87750  0.36540  Biso   1.000  H
  H481     1.0000 0.78130  0.91460  0.38160  Biso   1.000  H
  H482     1.0000 0.82300  0.90980  0.37630  Biso   1.000  H
  C421     1.0000 0.79780  0.87290  0.44111  Biso   1.000  C
  H483     1.0000 0.78710  0.84800  0.44550  Biso   1.000  H
  H484     1.0000 0.82000  0.87620  0.45250  Biso   1.000  H
  H485     1.0000 0.78110  0.89360  0.44530  Biso   1.000  H
  C422     1.0000 0.82360  0.91327  0.40090  Biso   1.000  C
  H486     1.0000 0.82840  0.91300  0.38090  Biso   1.000  H
  H487     1.0000 0.80710  0.93430  0.40480  Biso   1.000  H
  H488     1.0000 0.84600  0.91700  0.41200  Biso   1.000  H
  C423     1.0000 0.77150  0.86710  0.39033  Biso   1.000  C
  H489     1.0000 0.77740  0.86810  0.37050  Biso   1.000  H
  H490     1.0000 0.76160  0.84180  0.39460  Biso   1.000  H
  H491     1.0000 0.75380  0.88700  0.39410  Biso   1.000  H
  C424     1.0000 0.86844  0.68006  0.37961  Biso   1.000  C
  C425     1.0000 0.84299  0.70866  0.37009  Biso   1.000  C
  C426     1.0000 0.80601  0.70034  0.37111  Biso   1.000  C
  H492     1.0000 0.78920  0.71920  0.36490  Biso   1.000  H
  C427     1.0000 0.79306  0.66353  0.38137  Biso   1.000  C
  C428     1.0000 0.81928  0.63730  0.38998  Biso   1.000  C
  H493     1.0000 0.81150  0.61300  0.39650  Biso   1.000  H
  C429     1.0000 0.85554  0.64367  0.38981  Biso   1.000  C
  C430     1.0000 0.75194  0.65521  0.38194  Biso   1.000  C
  C431     1.0000 0.72896  0.68969  0.37153  Biso   1.000  C
  H494     1.0000 0.73610  0.71270  0.38220  Biso   1.000  H
  H495     1.0000 0.73250  0.69400  0.35150  Biso   1.000  H
  H496     1.0000 0.70370  0.68420  0.37430  Biso   1.000  H
  C432     1.0000 0.74300  0.64840  0.41342  Biso   1.000  C
  H497     1.0000 0.74700  0.67210  0.42410  Biso   1.000  H
  H498     1.0000 0.71790  0.64060  0.41440  Biso   1.000  H
  H499     1.0000 0.75840  0.62800  0.42140  Biso   1.000  H
  C433     1.0000 0.74460  0.61614  0.36761  Biso   1.000  C
  H500     1.0000 0.76070  0.59670  0.37600  Biso   1.000  H
  H501     1.0000 0.71970  0.60850  0.37030  Biso   1.000  H
  H502     1.0000 0.74860  0.61830  0.34750  Biso   1.000  H
  C434     1.0000 0.73260  0.68830  0.39703  Biso   1.000  C
  H503     1.0000 0.70700  0.68270  0.39720  Biso   1.000  H
  H504     1.0000 0.74240  0.69060  0.41640  Biso   1.000  H
  H505     1.0000 0.73640  0.71250  0.38700  Biso   1.000  H
  C435     1.0000 0.74350  0.61476  0.39476  Biso   1.000  C
  H506     1.0000 0.75620  0.59480  0.38460  Biso   1.000  H
  H507     1.0000 0.75130  0.61430  0.41470  Biso   1.000  H
  H508     1.0000 0.71770  0.60990  0.39300  Biso   1.000  H
  C436     1.0000 0.73850  0.65470  0.35017  Biso   1.000  C
  H509     1.0000 0.75050  0.63400  0.34030  Biso   1.000  H
  H510     1.0000 0.71260  0.65060  0.34900  Biso   1.000  H
  H511     1.0000 0.74410  0.67940  0.34140  Biso   1.000  H
  C437     1.0000 0.03919  0.41879  0.31868  Biso   1.000  C
  C438     1.0000 0.06798  0.39520  0.33075  Biso   1.000  C
  C439     1.0000 0.06091  0.36993  0.35260  Biso   1.000  C
  H512     1.0000 0.08060  0.35670  0.36130  Biso   1.000  H
  C440     1.0000 0.02632  0.36245  0.36280  Biso   1.000  C
  C441     1.0000 0.99889  0.38791  0.35139  Biso   1.000  C
  H513     1.0000 0.97590  0.38710  0.35910  Biso   1.000  H
  C442     1.0000 0.00453  0.41335  0.32970  Biso   1.000  C
  C443     1.0000 0.02169  0.33354  0.38830  Biso   1.000  C
  C444     1.0000 0.04390  0.35040  0.41425  Biso   1.000  C
  H514     1.0000 0.03340  0.37480  0.41990  Biso   1.000  H
  H515     1.0000 0.04340  0.33220  0.43000  Biso   1.000  H
  H516     1.0000 0.06870  0.35450  0.40910  Biso   1.000  H
  C445     1.0000 0.98109  0.32810  0.39520  Biso   1.000  C
  H517     1.0000 0.97170  0.35230  0.40250  Biso   1.000  H
  H518     1.0000 0.96740  0.32080  0.37810  Biso   1.000  H
  H519     1.0000 0.97900  0.30790  0.40940  Biso   1.000  H
  C446     1.0000 0.03520  0.29423  0.37683  Biso   1.000  C
  H520     1.0000 0.01980  0.28620  0.36080  Biso   1.000  H
  H521     1.0000 0.05980  0.29710  0.37080  Biso   1.000  H
  H522     1.0000 0.03460  0.27480  0.39170  Biso   1.000  H
  C447     1.0000 0.01376  0.33206  0.38490  Biso   1.000  C
  C448     1.0000 0.04402  0.30590  0.39820  Biso   1.000  C
  H523     1.0000 0.06270  0.32210  0.40710  Biso   1.000  H
  H524     1.0000 0.03400  0.28910  0.41230  Biso   1.000  H
  H525     1.0000 0.05430  0.29030  0.38340  Biso   1.000  H
  C449     1.0000 0.99830  0.35920  0.40791  Biso   1.000  C
  H526     1.0000 0.97940  0.37540  0.39930  Biso   1.000  H
  H527     1.0000 0.98840  0.34360  0.42280  Biso   1.000  H
  H528     1.0000 0.01740  0.37560  0.41590  Biso   1.000  H
  C450     1.0000 0.98410  0.30560  0.37080  Biso   1.000  C
  H529     1.0000 0.96500  0.32150  0.36240  Biso   1.000  H
  H530     1.0000 0.99460  0.28990  0.35620  Biso   1.000  H
  H531     1.0000 0.97430  0.28870  0.38510  Biso   1.000  H
  C451     1.0000 0.96570  0.44001  0.25867  Biso   1.000  C
  C452     1.0000 0.95301  0.42456  0.28468  Biso   1.000  C
  C453     1.0000 0.92635  0.39664  0.28563  Biso   1.000  C
  H532     1.0000 0.91880  0.38810  0.30340  Biso   1.000  H
  C454     1.0000 0.91022  0.38072  0.26083  Biso   1.000  C
  C455     1.0000 0.92278  0.39423  0.23522  Biso   1.000  C
  H533     1.0000 0.91350  0.38320  0.21820  Biso   1.000  H
  C456     1.0000 0.94888  0.42375  0.23377  Biso   1.000  C
  C457     1.0000 0.88040  0.34864  0.26151  Biso   1.000  C
  C458     1.0000 0.89390  0.31487  0.24327  Biso   1.000  C
  H534     1.0000 0.91490  0.30310  0.25270  Biso   1.000  H
  H535     1.0000 0.87490  0.29560  0.24080  Biso   1.000  H
  H536     1.0000 0.90030  0.32460  0.22480  Biso   1.000  H
  C459     1.0000 0.84697  0.37040  0.24929  Biso   1.000  C
  H537     1.0000 0.84060  0.39090  0.26220  Biso   1.000  H
  H538     1.0000 0.85230  0.38140  0.23100  Biso   1.000  H
  H539     1.0000 0.82690  0.35240  0.24700  Biso   1.000  H
  C460     1.0000 0.87010  0.33450  0.29164  Biso   1.000  C
  H540     1.0000 0.89030  0.32050  0.30050  Biso   1.000  H
  H541     1.0000 0.86440  0.35680  0.30320  Biso   1.000  H
  H542     1.0000 0.84930  0.31760  0.28990  Biso   1.000  H
  C461     1.0000 0.87962  0.35068  0.26616  Biso   1.000  C
  C462     1.0000 0.86380  0.33620  0.23742  Biso   1.000  C
  H543     1.0000 0.88240  0.32300  0.22730  Biso   1.000  H
  H544     1.0000 0.84400  0.31840  0.24060  Biso   1.000  H
  H545     1.0000 0.85480  0.35810  0.22630  Biso   1.000  H
  C463     1.0000 0.84996  0.37200  0.28256  Biso   1.000  C
  H546     1.0000 0.86010  0.38100  0.30070  Biso   1.000  H
  H547     1.0000 0.84100  0.39390  0.27150  Biso   1.000  H
  H548     1.0000 0.83020  0.35420  0.28580  Biso   1.000  H
  C464     1.0000 0.89450  0.31499  0.28358  Biso   1.000  C
  H549     1.0000 0.90460  0.32370  0.30180  Biso   1.000  H
  H550     1.0000 0.87490  0.29690  0.28660  Biso   1.000  H
  H551     1.0000 0.91310  0.30220  0.27320  Biso   1.000  H
  C465     1.0000 0.03460  0.42458  0.19910  Biso   1.000  C
  C466     1.0000 0.99761  0.41372  0.19088  Biso   1.000  C
  C467     1.0000 0.99085  0.38082  0.17498  Biso   1.000  C
  H552     1.0000 0.96670  0.37610  0.16910  Biso   1.000  H
  C468     1.0000 0.01723  0.35286  0.16640  Biso   1.000  C
  C469     1.0000 0.05224  0.36385  0.17585  Biso   1.000  C
  H553     1.0000 0.07140  0.34740  0.17140  Biso   1.000  H
  C470     1.0000 0.06097  0.39802  0.19170  Biso   1.000  C
  C471     1.0000 0.00537  0.31980  0.14520  Biso   1.000  C
  C472     1.0000 0.97902  0.29540  0.16238  Biso   1.000  C
  H554     1.0000 0.95740  0.31040  0.16540  Biso   1.000  H
  H555     1.0000 0.97260  0.27200  0.15190  Biso   1.000  H
  H556     1.0000 0.99050  0.28850  0.18060  Biso   1.000  H
  C473     1.0000 0.03949  0.29560  0.14060  Biso   1.000  C
  H557     1.0000 0.05630  0.31060  0.12980  Biso   1.000  H
  H558     1.0000 0.05080  0.28870  0.15880  Biso   1.000  H
  H559     1.0000 0.03290  0.27210  0.13020  Biso   1.000  H
  C474     1.0000 0.98830  0.33770  0.11762  Biso   1.000  C
  H560     1.0000 0.96700  0.35250  0.12210  Biso   1.000  H
  H561     1.0000 0.00570  0.35460  0.10910  Biso   1.000  H
  H562     1.0000 0.98150  0.31710  0.10440  Biso   1.000  H
  C475     1.0000 0.00912  0.31353  0.15095  Biso   1.000  C
  C476     1.0000 0.96944  0.30460  0.14180  Biso   1.000  C
  H563     1.0000 0.96060  0.32420  0.12850  Biso   1.000  H
  H564     1.0000 0.96800  0.27930  0.13280  Biso   1.000  H
  H565     1.0000 0.95480  0.30470  0.15840  Biso   1.000  H
  C477     1.0000 0.02440  0.28310  0.17219  Biso   1.000  C
  H566     1.0000 0.04920  0.28940  0.17750  Biso   1.000  H
  H567     1.0000 0.01010  0.28300  0.18900  Biso   1.000  H
  H568     1.0000 0.02340  0.25760  0.16340  Biso   1.000  H
  C478     1.0000 0.03150  0.31650  0.12398  Biso   1.000  C
  H569     1.0000 0.02090  0.33600  0.11130  Biso   1.000  H
  H570     1.0000 0.05610  0.32380  0.12940  Biso   1.000  H
  H571     1.0000 0.03150  0.29160  0.11440  Biso   1.000  H
  C479     1.0000 0.10975  0.40251  0.25997  Biso   1.000  C
  C480     1.0000 0.11220  0.38138  0.23473  Biso   1.000  C
  C481     1.0000 0.12022  0.34190  0.23413  Biso   1.000  C
  H572     1.0000 0.12300  0.33010  0.21640  Biso   1.000  H
  C482     1.0000 0.12442  0.31861  0.25885  Biso   1.000  C
  C483     1.0000 0.12113  0.34221  0.28537  Biso   1.000  C
  H573     1.0000 0.12340  0.32940  0.30300  Biso   1.000  H
  C484     1.0000 0.11494  0.38182  0.28531  Biso   1.000  C
  C485     1.0000 0.13294  0.27356  0.25986  Biso   1.000  C
  C486     1.0000 0.13030  0.25270  0.23044  Biso   1.000  C
  H574     1.0000 0.10580  0.25500  0.22240  Biso   1.000  H
  H575     1.0000 0.14690  0.26470  0.21770  Biso   1.000  H
  H576     1.0000 0.13640  0.22550  0.23290  Biso   1.000  H
  C487     1.0000 0.10646  0.25380  0.28037  Biso   1.000  C
  H577     1.0000 0.08190  0.25590  0.27250  Biso   1.000  H
  H578     1.0000 0.11280  0.22670  0.28270  Biso   1.000  H
  H579     1.0000 0.10820  0.26670  0.29870  Biso   1.000  H
  C488     1.0000 0.17195  0.27000  0.27280  Biso   1.000  C
  H580     1.0000 0.17360  0.28300  0.29100  Biso   1.000  H
  H581     1.0000 0.17810  0.24280  0.27520  Biso   1.000  H
  H582     1.0000 0.18860  0.28200  0.26010  Biso   1.000  H
  C489     1.0000 0.13410  0.27421  0.25609  Biso   1.000  C
  C490     1.0000 0.10539  0.25310  0.23638  Biso   1.000  C
  H583     1.0000 0.08200  0.25450  0.24480  Biso   1.000  H
  H584     1.0000 0.10410  0.26560  0.21790  Biso   1.000  H
  H585     1.0000 0.11230  0.22610  0.23420  Biso   1.000  H
  C491     1.0000 0.13710  0.25480  0.28584  Biso   1.000  C
  H586     1.0000 0.11380  0.25600  0.29460  Biso   1.000  H
  H587     1.0000 0.14420  0.22780  0.28380  Biso   1.000  H
  H588     1.0000 0.15500  0.26830  0.29770  Biso   1.000  H
  C492     1.0000 0.17142  0.27190  0.24257  Biso   1.000  C
  H589     1.0000 0.17000  0.28390  0.22390  Biso   1.000  H
  H590     1.0000 0.18930  0.28530  0.25460  Biso   1.000  H
  H591     1.0000 0.17840  0.24490  0.24070  Biso   1.000  H
  C493     1.0000 0.31259  0.50446  0.47579  Biso   1.000  C
  C494     1.0000 0.27933  0.48583  0.48182  Biso   1.000  C
  C495     1.0000 0.27821  0.44523  0.48785  Biso   1.000  C
  H592     1.0000 0.25580  0.43390  0.49150  Biso   1.000  H
  C496     1.0000 0.30852  0.42190  0.48854  Biso   1.000  C
  C497     1.0000 0.34188  0.44117  0.48218  Biso   1.000  C
  H593     1.0000 0.35850  0.43700  0.49860  Biso   1.000  H
  H594     1.0000 0.35190  0.42700  0.46630  Biso   1.000  H
  C498     1.0000 0.34391  0.48027  0.47548  Biso   1.000  C
  C499     1.0000 0.30866  0.37932  0.49837  Biso   1.000  C
  C500     1.0000 0.26973  0.36650  0.50445  Biso   1.000  C
  H595     1.0000 0.26130  0.38070  0.52060  Biso   1.000  H
  H596     1.0000 0.25400  0.37170  0.48790  Biso   1.000  H
  H597     1.0000 0.26950  0.33890  0.50860  Biso   1.000  H
  C501     1.0000 0.33157  0.37420  0.52660  Biso   1.000  C
  H598     1.0000 0.32060  0.38880  0.54160  Biso   1.000  H
  H599     1.0000 0.33250  0.34690  0.53170  Biso   1.000  H
  H600     1.0000 0.35590  0.38370  0.52410  Biso   1.000  H
  C502     1.0000 0.32320  0.35750  0.47284  Biso   1.000  C
  H601     1.0000 0.32430  0.32990  0.47700  Biso   1.000  H
  H602     1.0000 0.30730  0.36180  0.45630  Biso   1.000  H
  H603     1.0000 0.34720  0.36690  0.46910  Biso   1.000  H
  C503     1.0000 0.30551  0.37820  0.49513  Biso   1.000  C
  C504     1.0000 0.28920  0.37550  0.52504  Biso   1.000  C
  H604     1.0000 0.30690  0.38440  0.53940  Biso   1.000  H
  H605     1.0000 0.26780  0.39170  0.52550  Biso   1.000  H
  H606     1.0000 0.28270  0.34880  0.52890  Biso   1.000  H
  C505     1.0000 0.27800  0.36440  0.47188  Biso   1.000  C
  H607     1.0000 0.27400  0.33670  0.47400  Biso   1.000  H
  H608     1.0000 0.25540  0.37810  0.47370  Biso   1.000  H
  H609     1.0000 0.28740  0.36950  0.45330  Biso   1.000  H
  C506     1.0000 0.34164  0.35580  0.49450  Biso   1.000  C
  H610     1.0000 0.35810  0.36550  0.50950  Biso   1.000  H
  H611     1.0000 0.33730  0.32840  0.49750  Biso   1.000  H
  H612     1.0000 0.35230  0.35960  0.47620  Biso   1.000  H
  C507     1.0000 0.39881  0.55840  0.50471  Biso   1.000  C
  C508     1.0000 0.40527  0.51920  0.49745  Biso   1.000  C
  C509     1.0000 0.42874  0.49634  0.51510  Biso   1.000  C
  H613     1.0000 0.43300  0.47030  0.51020  Biso   1.000  H
  C510     1.0000 0.44599  0.51207  0.54007  Biso   1.000  C
  C511     1.0000 0.44011  0.55009  0.54606  Biso   1.000  C
  H614     1.0000 0.45210  0.56110  0.56210  Biso   1.000  H
  C512     1.0000 0.41601  0.57417  0.52861  Biso   1.000  C
  C513     1.0000 0.47200  0.48858  0.56092  Biso   1.000  C
  C514     1.0000 0.48000  0.51050  0.58909  Biso   1.000  C
  H615     1.0000 0.49160  0.53500  0.58520  Biso   1.000  H
  H616     1.0000 0.45760  0.51520  0.59840  Biso   1.000  H
  H617     1.0000 0.49600  0.49490  0.60140  Biso   1.000  H
  C515     1.0000 0.50764  0.48030  0.54585  Biso   1.000  C
  H618     1.0000 0.51970  0.50470  0.54210  Biso   1.000  H
  H619     1.0000 0.52330  0.46430  0.55800  Biso   1.000  H
  H620     1.0000 0.50220  0.46690  0.52810  Biso   1.000  H
  C516     1.0000 0.45360  0.44944  0.56660  Biso   1.000  C
  H621     1.0000 0.44870  0.43610  0.54870  Biso   1.000  H
  H622     1.0000 0.46940  0.43360  0.57880  Biso   1.000  H
  H623     1.0000 0.43110  0.45390  0.57580  Biso   1.000  H
  C517     1.0000 0.47837  0.48904  0.55397  Biso   1.000  C
  C518     1.0000 0.51231  0.51550  0.55780  Biso   1.000  C
  H624     1.0000 0.52150  0.52150  0.53930  Biso   1.000  H
  H625     1.0000 0.50580  0.53940  0.56720  Biso   1.000  H
  H626     1.0000 0.53080  0.50210  0.56920  Biso   1.000  H
  C519     1.0000 0.48870  0.45121  0.53835  Biso   1.000  C
  H627     1.0000 0.49720  0.45760  0.51970  Biso   1.000  H
  H628     1.0000 0.50770  0.43790  0.54930  Biso   1.000  H
  H629     1.0000 0.46770  0.43450  0.53630  Biso   1.000  H
  C520     1.0000 0.46470  0.48020  0.58365  Biso   1.000  C
  H630     1.0000 0.45850  0.50430  0.59290  Biso   1.000  H
  H631     1.0000 0.44360  0.46370  0.58190  Biso   1.000  H
  H632     1.0000 0.48350  0.46710  0.59490  Biso   1.000  H
  C521     1.0000 0.33672  0.63293  0.54411  Biso   1.000  C
  C522     1.0000 0.37103  0.62968  0.55722  Biso   1.000  C
  C523     1.0000 0.37579  0.63080  0.58691  Biso   1.000  C
  H633     1.0000 0.39930  0.62860  0.59510  Biso   1.000  H
  C524     1.0000 0.34661  0.63510  0.60504  Biso   1.000  C
  C525     1.0000 0.31203  0.64154  0.59181  Biso   1.000  C
  H634     1.0000 0.29210  0.64650  0.60300  Biso   1.000  H
  C526     1.0000 0.30736  0.64055  0.56225  Biso   1.000  C
  C527     1.0000 0.35020  0.63517  0.63840  Biso   1.000  C
  C528     1.0000 0.38884  0.62580  0.64980  Biso   1.000  C
  H635     1.0000 0.39520  0.59960  0.64430  Biso   1.000  H
  H636     1.0000 0.40570  0.64400  0.64190  Biso   1.000  H
  H637     1.0000 0.39000  0.62790  0.67040  Biso   1.000  H
  C529     1.0000 0.32324  0.60491  0.64967  Biso   1.000  C
  H638     1.0000 0.29900  0.61100  0.64240  Biso   1.000  H
  H639     1.0000 0.32990  0.57920  0.64340  Biso   1.000  H
  H640     1.0000 0.32400  0.60560  0.67030  Biso   1.000  H
  C530     1.0000 0.34150  0.67711  0.64770  Biso   1.000  C
  H641     1.0000 0.31730  0.68390  0.64080  Biso   1.000  H
  H642     1.0000 0.34300  0.67880  0.66830  Biso   1.000  H
  H643     1.0000 0.35870  0.69490  0.63980  Biso   1.000  H
  C531     1.0000 0.35381  0.63929  0.63795  Biso   1.000  C
  C532     1.0000 0.31839  0.64160  0.65426  Biso   1.000  C
  H644     1.0000 0.30400  0.61850  0.65040  Biso   1.000  H
  H645     1.0000 0.32420  0.64330  0.67450  Biso   1.000  H
  H646     1.0000 0.30480  0.66440  0.64810  Biso   1.000  H
  C533     1.0000 0.37710  0.67581  0.64390  Biso   1.000  C
  H647     1.0000 0.36330  0.69880  0.63830  Biso   1.000  H
  H648     1.0000 0.38380  0.67720  0.66400  Biso   1.000  H
  H649     1.0000 0.39870  0.67450  0.63300  Biso   1.000  H
  C534     1.0000 0.37410  0.60142  0.64630  Biso   1.000  C
  H650     1.0000 0.35860  0.57930  0.64230  Biso   1.000  H
  H651     1.0000 0.39580  0.59930  0.63550  Biso   1.000  H
  H652     1.0000 0.38080  0.60200  0.66650  Biso   1.000  H
  C535     1.0000 0.25042  0.57990  0.51567  Biso   1.000  C
  C536     1.0000 0.24934  0.59786  0.54215  Biso   1.000  C
  C537     1.0000 0.23780  0.57700  0.56626  Biso   1.000  C
  H653     1.0000 0.23740  0.58980  0.58390  Biso   1.000  H
  C538     1.0000 0.22714  0.53870  0.56463  Biso   1.000  C
  C539     1.0000 0.22872  0.52099  0.53871  Biso   1.000  C
  H654     1.0000 0.22190  0.49480  0.53720  Biso   1.000  H
  C540     1.0000 0.24020  0.54051  0.51391  Biso   1.000  C
  C541     1.0000 0.21387  0.51732  0.59080  Biso   1.000  C
  C542     1.0000 0.17258  0.52480  0.58930  Biso   1.000  C
  H655     1.0000 0.16210  0.51410  0.57180  Biso   1.000  H
  H656     1.0000 0.16170  0.51240  0.60530  Biso   1.000  H
  H657     1.0000 0.16810  0.55250  0.58990  Biso   1.000  H
  C543     1.0000 0.21950  0.47319  0.58890  Biso   1.000  C
  H658     1.0000 0.21200  0.46430  0.57000  Biso   1.000  H
  H659     1.0000 0.24490  0.46720  0.59250  Biso   1.000  H
  H660     1.0000 0.20520  0.46030  0.60280  Biso   1.000  H
  C544     1.0000 0.22440  0.53600  0.61933  Biso   1.000  C
  H661     1.0000 0.21500  0.52060  0.63460  Biso   1.000  H
  H662     1.0000 0.25060  0.53720  0.62160  Biso   1.000  H
  H663     1.0000 0.21450  0.56200  0.62000  Biso   1.000  H
  C545     1.0000 0.19210  0.48026  0.58500  Biso   1.000  C
  H664     1.0000 0.18510  0.46910  0.60280  Biso   1.000  H
  H665     1.0000 0.17060  0.48640  0.57330  Biso   1.000  H
  H666     1.0000 0.20670  0.46180  0.57500  Biso   1.000  H
  C546     1.0000 0.24848  0.50890  0.60895  Biso   1.000  C
  H667     1.0000 0.26170  0.53290  0.61230  Biso   1.000  H
  H668     1.0000 0.24210  0.49780  0.62700  Biso   1.000  H
  H669     1.0000 0.26350  0.49070  0.59900  Biso   1.000  H
  C547     1.0000 0.19090  0.54430  0.60902  Biso   1.000  C
  H670     1.0000 0.20410  0.56820  0.61310  Biso   1.000  H
  H671     1.0000 0.16830  0.55040  0.59870  Biso   1.000  H
  H672     1.0000 0.18580  0.53150  0.62670  Biso   1.000  H
  C548     1.0000 0.12574  0.97309  0.45516  Biso   1.000  C
  C549     1.0000 0.08833  0.98091  0.45649  Biso   1.000  C
  C550     1.0000 0.07482  0.99642  0.48152  Biso   1.000  C
  H673     1.0000 0.05000  0.00160  0.48210  Biso   1.000  H
  C551     1.0000 0.09690  0.00450  0.50560  Biso   1.000  C
  C552     1.0000 0.13419  0.99657  0.50376  Biso   1.000  C
  H674     1.0000 0.14990  0.00160  0.51950  Biso   1.000  H
  C553     1.0000 0.14810  0.98170  0.47933  Biso   1.000  C
  C554     1.0000 0.08124  0.02131  0.53343  Biso   1.000  C
  C555     1.0000 0.04012  0.01550  0.53480  Biso   1.000  C
  H675     1.0000 0.03430  0.98840  0.53160  Biso   1.000  H
  H676     1.0000 0.03240  0.02330  0.55340  Biso   1.000  H
  H677     1.0000 0.02780  0.03120  0.52030  Biso   1.000  H
  C556     1.0000 0.09480  0.06328  0.53816  Biso   1.000  C
  H678     1.0000 0.12090  0.06400  0.53690  Biso   1.000  H
  H679     1.0000 0.08380  0.08010  0.52370  Biso   1.000  H
  H680     1.0000 0.08830  0.07210  0.55680  Biso   1.000  H
  C557     1.0000 0.09600  0.99580  0.55845  Biso   1.000  C
  H681     1.0000 0.12220  0.99730  0.55960  Biso   1.000  H
  H682     1.0000 0.08650  0.00510  0.57610  Biso   1.000  H
  H683     1.0000 0.08870  0.96910  0.55530  Biso   1.000  H
  C558     1.0000 0.10895  0.02650  0.55879  Biso   1.000  C
  H684     1.0000 0.12800  0.04400  0.55340  Biso   1.000  H
  H685     1.0000 0.09690  0.03730  0.57490  Biso   1.000  H
  H686     1.0000 0.11930  0.00150  0.56400  Biso   1.000  H
  C559     1.0000 0.06480  0.06268  0.52730  Biso   1.000  C
  H687     1.0000 0.04720  0.06110  0.51150  Biso   1.000  H
  H688     1.0000 0.05310  0.07200  0.54400  Biso   1.000  H
  H689     1.0000 0.08390  0.08050  0.52250  Biso   1.000  H
  C560     1.0000 0.05035  0.99340  0.54150  Biso   1.000  C
  H690     1.0000 0.03330  0.99050  0.52540  Biso   1.000  H
  H691     1.0000 0.06040  0.96820  0.54660  Biso   1.000  H
  H692     1.0000 0.03800  0.00400  0.55750  Biso   1.000  H
  C561     1.0000 0.22236  0.99916  0.42869  Biso   1.000  C
  C562     1.0000 0.21659  0.00513  0.45832  Biso   1.000  C
  C563     1.0000 0.22850  0.03819  0.47289  Biso   1.000  C
  H693     1.0000 0.22390  0.04050  0.49230  Biso   1.000  H
  C564     1.0000 0.24637  0.06701  0.46032  Biso   1.000  C
  C565     1.0000 0.25121  0.06281  0.43062  Biso   1.000  C
  H694     1.0000 0.26280  0.08290  0.42100  Biso   1.000  H
  C566     1.0000 0.23971  0.03087  0.41536  Biso   1.000  C
  C567     1.0000 0.26285  0.10323  0.47526  Biso   1.000  C
  C568     1.0000 0.24730  0.14093  0.46199  Biso   1.000  C
  H695     1.0000 0.25160  0.14130  0.44180  Biso   1.000  H
  H696     1.0000 0.22150  0.14210  0.46470  Biso   1.000  H
  H697     1.0000 0.25900  0.16310  0.47110  Biso   1.000  H
  C569     1.0000 0.30421  0.10570  0.47375  Biso   1.000  C
  H698     1.0000 0.31070  0.10680  0.45400  Biso   1.000  H
  H699     1.0000 0.31290  0.12880  0.48360  Biso   1.000  H
  H700     1.0000 0.31510  0.08290  0.48270  Biso   1.000  H
  C570     1.0000 0.25660  0.10150  0.50721  Biso   1.000  C
  H701     1.0000 0.23090  0.09990  0.51020  Biso   1.000  H
  H702     1.0000 0.26850  0.07880  0.51540  Biso   1.000  H
  H703     1.0000 0.26630  0.12470  0.51630  Biso   1.000  H
  C571     1.0000 0.28770  0.12890  0.45699  Biso   1.000  C
  H704     1.0000 0.30750  0.11330  0.45040  Biso   1.000  H
  H705     1.0000 0.27370  0.13900  0.44070  Biso   1.000  H
  H706     1.0000 0.29720  0.15030  0.46840  Biso   1.000  H
  C572     1.0000 0.23119  0.12740  0.48590  Biso   1.000  C
  H707     1.0000 0.24050  0.15050  0.49540  Biso   1.000  H
  H708     1.0000 0.21540  0.13490  0.46980  Biso   1.000  H
  H709     1.0000 0.21770  0.11210  0.49910  Biso   1.000  H
  C573     1.0000 0.28610  0.08740  0.50085  Biso   1.000  C
  H710     1.0000 0.30590  0.07220  0.49390  Biso   1.000  H
  H711     1.0000 0.29560  0.10890  0.51210  Biso   1.000  H
  H712     1.0000 0.27120  0.07110  0.51250  Biso   1.000  H
  C574     1.0000 0.17693  0.02837  0.35266  Biso   1.000  C
  C575     1.0000 0.20673  0.05215  0.36270  Biso   1.000  C
  C576     1.0000 0.20597  0.09262  0.36173  Biso   1.000  C
  H713     1.0000 0.22640  0.10660  0.36830  Biso   1.000  H
  C577     1.0000 0.17480  0.11334  0.35093  Biso   1.000  C
  C578     1.0000 0.14553  0.09140  0.34106  Biso   1.000  C
  H714     1.0000 0.12460  0.10420  0.33400  Biso   1.000  H
  C579     1.0000 0.14609  0.05027  0.34131  Biso   1.000  C
  C580     1.0000 0.17360  0.15827  0.35047  Biso   1.000  C
  C581     1.0000 0.17320  0.16530  0.31792  Biso   1.000  C
  H715     1.0000 0.15310  0.15120  0.30890  Biso   1.000  H
  H716     1.0000 0.17040  0.19280  0.31410  Biso   1.000  H
  H717     1.0000 0.19570  0.15620  0.31050  Biso   1.000  H
  C582     1.0000 0.13643  0.17060  0.36130  Biso   1.000  C
  H718     1.0000 0.11730  0.15850  0.34970  Biso   1.000  H
  H719     1.0000 0.13460  0.16250  0.38090  Biso   1.000  H
  H720     1.0000 0.13410  0.19860  0.36010  Biso   1.000  H
  C583     1.0000 0.20330  0.17790  0.36940  Biso   1.000  C
  H721     1.0000 0.22690  0.17050  0.36290  Biso   1.000  H
  H722     1.0000 0.20070  0.20590  0.36810  Biso   1.000  H
  H723     1.0000 0.20120  0.16970  0.38890  Biso   1.000  H
  C584     1.0000 0.13692  0.17700  0.34130  Biso   1.000  C
  H724     1.0000 0.13020  0.16910  0.32200  Biso   1.000  H
  H725     1.0000 0.11850  0.16850  0.35400  Biso   1.000  H
  H726     1.0000 0.13910  0.20500  0.34210  Biso   1.000  H
  C585     1.0000 0.20177  0.17340  0.32955  Biso   1.000  C
  H727     1.0000 0.19590  0.16340  0.31070  Biso   1.000  H
  H728     1.0000 0.20120  0.20150  0.32910  Biso   1.000  H
  H729     1.0000 0.22570  0.16460  0.33580  Biso   1.000  H
  C586     1.0000 0.18100  0.17290  0.38103  Biso   1.000  C
  H730     1.0000 0.18040  0.20100  0.38120  Biso   1.000  H
  H731     1.0000 0.16260  0.16280  0.39320  Biso   1.000  H
  H732     1.0000 0.20460  0.16400  0.38790  Biso   1.000  H
  C587     1.0000 0.08261  0.00300  0.37927  Biso   1.000  C
  C588     1.0000 0.07759  0.03084  0.35737  Biso   1.000  C
  C589     1.0000 0.04912  0.05708  0.35687  Biso   1.000  C
  H733     1.0000 0.04640  0.07430  0.34150  Biso   1.000  H
  C590     1.0000 0.02432  0.05888  0.37839  Biso   1.000  C
  C591     1.0000 0.02913  0.03124  0.40029  Biso   1.000  C
  H734     1.0000 0.01300  0.03120  0.41510  Biso   1.000  H
  C592     1.0000 0.05706  0.00375  0.40076  Biso   1.000  C
  C593     1.0000 0.99439  0.08981  0.37796  Biso   1.000  C
  C594     1.0000 0.96827  0.08620  0.40199  Biso   1.000  C
  H735     1.0000 0.98120  0.09060  0.42000  Biso   1.000  H
  H736     1.0000 0.94920  0.10540  0.39940  Biso   1.000  H
  H737     1.0000 0.95780  0.06040  0.40180  Biso   1.000  H
  C595     1.0000 0.01070  0.13064  0.37690  Biso   1.000  C
  H738     1.0000 0.02530  0.13530  0.39420  Biso   1.000  H
  H739     1.0000 0.02580  0.13270  0.36070  Biso   1.000  H
  H740     1.0000 0.99150  0.14970  0.37530  Biso   1.000  H
  C596     1.0000 0.97160  0.08260  0.35081  Biso   1.000  C
  H741     1.0000 0.98670  0.08440  0.33460  Biso   1.000  H
  H742     1.0000 0.96100  0.05680  0.35150  Biso   1.000  H
  H743     1.0000 0.95250  0.10180  0.34910  Biso   1.000  H
  C597     1.0000 0.99247  0.08824  0.37573  Biso   1.000  C
  C598     1.0000 0.99770  0.11390  0.40260  Biso   1.000  C
  H744     1.0000 0.01950  0.12930  0.40120  Biso   1.000  H
  H745     1.0000 0.97710  0.13110  0.40410  Biso   1.000  H
  H746     1.0000 0.99980  0.09750  0.41930  Biso   1.000  H
  C599     1.0000 0.95797  0.06350  0.37730  Biso   1.000  C
  H747     1.0000 0.95510  0.04760  0.36040  Biso   1.000  H
  H748     1.0000 0.95990  0.04690  0.39390  Biso   1.000  H
  H749     1.0000 0.93720  0.08040  0.37870  Biso   1.000  H
  C600     1.0000 0.98960  0.11400  0.34876  Biso   1.000  C
  H750     1.0000 0.01120  0.12970  0.34770  Biso   1.000  H
  H751     1.0000 0.98700  0.09770  0.33200  Biso   1.000  H
  H752     1.0000 0.96870  0.13090  0.34970  Biso   1.000  H
  C601     1.0000 0.99817  0.92786  0.12367  Biso   1.000  C
  C602     1.0000 0.97954  0.94478  0.14569  Biso   1.000  C
  C603     1.0000 0.96792  0.98210  0.14651  Biso   1.000  C
  H753     1.0000 0.95540  0.99080  0.16230  Biso   1.000  H
  C604     1.0000 0.97431  0.00809  0.12401  Biso   1.000  C
  C605     1.0000 0.99408  0.99164  0.10126  Biso   1.000  C
  H754     1.0000 0.99980  0.00770  0.08590  Biso   1.000  H
  C606     1.0000 0.00499  0.95323  0.10097  Biso   1.000  C
  C607     1.0000 0.96010  0.05100  0.12333  Biso   1.000  C
  C608     1.0000 0.97250  0.07610  0.09847  Biso   1.000  C
  H755     1.0000 0.96250  0.06560  0.08070  Biso   1.000  H
  H756     1.0000 0.96420  0.10250  0.10080  Biso   1.000  H
  H757     1.0000 0.99870  0.07580  0.09830  Biso   1.000  H
  C609     1.0000 0.97800  0.07110  0.14949  Biso   1.000  C
  H758     1.0000 0.97170  0.05730  0.16660  Biso   1.000  H
  H759     1.0000 0.00400  0.07100  0.14790  Biso   1.000  H
  H760     1.0000 0.96950  0.09770  0.15050  Biso   1.000  H
  C610     1.0000 0.91842  0.05180  0.12490  Biso   1.000  C
  H761     1.0000 0.90750  0.03910  0.10830  Biso   1.000  H
  H762     1.0000 0.91140  0.03840  0.14190  Biso   1.000  H
  H763     1.0000 0.91020  0.07850  0.12550  Biso   1.000  H
  C611     1.0000 0.95993  0.05066  0.12180  Biso   1.000  C
  C612     1.0000 0.99277  0.07760  0.12000  Biso   1.000  C
  H764     1.0000 0.00640  0.07060  0.10370  Biso   1.000  H
  H765     1.0000 0.98460  0.10430  0.11810  Biso   1.000  H
  H766     1.0000 0.00800  0.07500  0.13720  Biso   1.000  H
  C613     1.0000 0.93510  0.05600  0.09492  Biso   1.000  C
  H767     1.0000 0.91430  0.03900  0.09600  Biso   1.000  H
  H768     1.0000 0.92700  0.08280  0.09370  Biso   1.000  H
  H769     1.0000 0.94840  0.04960  0.07820  Biso   1.000  H
  C614     1.0000 0.93900  0.06280  0.14796  Biso   1.000  C
  H770     1.0000 0.91810  0.04620  0.14960  Biso   1.000  H
  H771     1.0000 0.95460  0.06030  0.16490  Biso   1.000  H
  H772     1.0000 0.93120  0.08960  0.14580  Biso   1.000  H
  C615     1.0000 0.99131  0.87333  0.05117  Biso   1.000  C
  C616     1.0000 0.99733  0.91272  0.04859  Biso   1.000  C
  C617     1.0000 0.97876  0.93440  0.02734  Biso   1.000  C
  H773     1.0000 0.98350  0.96110  0.02600  Biso   1.000  H
  C618     1.0000 0.95367  0.91784  0.00830  Biso   1.000  C
  C619     1.0000 0.94879  0.87783  0.01049  Biso   1.000  C
  H774     1.0000 0.93260  0.86550  0.99750  Biso   1.000  H
  C620     1.0000 0.96711  0.85506  0.03127  Biso   1.000  C
  C621     1.0000 0.93359  0.94329  0.98595  Biso   1.000  C
  C622     1.0000 0.95519  0.94040  0.95903  Biso   1.000  C
  H775     1.0000 0.97940  0.95020  0.96290  Biso   1.000  H
  H776     1.0000 0.95640  0.91350  0.95310  Biso   1.000  H
  H777     1.0000 0.94340  0.95570  0.94400  Biso   1.000  H
  C623     1.0000 0.89492  0.92800  0.98079  Biso   1.000  C
  H778     1.0000 0.88190  0.93020  0.99820  Biso   1.000  H
  H779     1.0000 0.88270  0.94320  0.96590  Biso   1.000  H
  H780     1.0000 0.89570  0.90100  0.97500  Biso   1.000  H
  C624     1.0000 0.93320  0.98752  0.99432  Biso   1.000  C
  H781     1.0000 0.91980  0.99090  0.01140  Biso   1.000  H
  H782     1.0000 0.95790  0.99650  0.99780  Biso   1.000  H
  H783     1.0000 0.92190  0.00240  0.97890  Biso   1.000  H
  C625     1.0000 0.95520  0.97440  0.97120  Biso   1.000  C
  H784     1.0000 0.96760  0.99070  0.98530  Biso   1.000  H
  H785     1.0000 0.97280  0.96220  0.95940  Biso   1.000  H
  H786     1.0000 0.93900  0.99030  0.95930  Biso   1.000  H
  C626     1.0000 0.91400  0.91760  0.96383  Biso   1.000  C
  H787     1.0000 0.90030  0.89780  0.97340  Biso   1.000  H
  H788     1.0000 0.89770  0.93330  0.95200  Biso   1.000  H
  H789     1.0000 0.93160  0.90520  0.95210  Biso   1.000  H
  C627     1.0000 0.89941  0.95760  0.99990  Biso   1.000  C
  H790     1.0000 0.88750  0.93580  0.00870  Biso   1.000  H
  H791     1.0000 0.90590  0.97680  0.01420  Biso   1.000  H
  H792     1.0000 0.88310  0.96910  0.98560  Biso   1.000  H
  C628     1.0000 0.92672  0.79488  0.08162  Biso   1.000  C
  C629     1.0000 0.92325  0.79611  0.05204  Biso   1.000  C
  C630     1.0000 0.88964  0.78923  0.03815  Biso   1.000  C
  H793     1.0000 0.88790  0.78960  0.01820  Biso   1.000  H
  C631     1.0000 0.85878  0.78190  0.05308  Biso   1.000  C
  C632     1.0000 0.86228  0.78033  0.08262  Biso   1.000  C
  H794     1.0000 0.84190  0.77500  0.09310  Biso   1.000  H
  C633     1.0000 0.89578  0.78659  0.09696  Biso   1.000  C
  C634     1.0000 0.82220  0.77371  0.03836  Biso   1.000  C
  C635     1.0000 0.82317  0.77430  0.00614  Biso   1.000  C
  H795     1.0000 0.84030  0.75510  0.00000  Biso   1.000  H
  H796     1.0000 0.79930  0.76840  0.99800  Biso   1.000  H
  H797     1.0000 0.83050  0.79990  0.99990  Biso   1.000  H
  C636     1.0000 0.79483  0.80452  0.04518  Biso   1.000  C
  H798     1.0000 0.80350  0.82970  0.03920  Biso   1.000  H
  H799     1.0000 0.77200  0.79880  0.03520  Biso   1.000  H
  H800     1.0000 0.79150  0.80490  0.06550  Biso   1.000  H
  C637     1.0000 0.80645  0.73573  0.04842  Biso   1.000  C
  H801     1.0000 0.82290  0.71470  0.04460  Biso   1.000  H
  H802     1.0000 0.80290  0.73720  0.06870  Biso   1.000  H
  H803     1.0000 0.78340  0.73110  0.03840  Biso   1.000  H
  C638     1.0000 0.93245  0.85014  0.15532  Biso   1.000  C
  C639     1.0000 0.89962  0.83203  0.14729  Biso   1.000  C
  C640     1.0000 0.86676  0.85113  0.14999  Biso   1.000  C
  H804     1.0000 0.84510  0.83820  0.14490  Biso   1.000  H
  C641     1.0000 0.86562  0.88928  0.16012  Biso   1.000  C
  C642     1.0000 0.89783  0.90637  0.16820  Biso   1.000  C
  H805     1.0000 0.89750  0.93150  0.17590  Biso   1.000  H
  C643     1.0000 0.93092  0.88827  0.16547  Biso   1.000  C
  C644     1.0000 0.82938  0.91074  0.16394  Biso   1.000  C
  C645     1.0000 0.79644  0.88950  0.15034  Biso   1.000  C
  H806     1.0000 0.77470  0.90440  0.15350  Biso   1.000  H
  H807     1.0000 0.79950  0.88670  0.13010  Biso   1.000  H
  H808     1.0000 0.79430  0.86400  0.15890  Biso   1.000  H
  C646     1.0000 0.83300  0.95297  0.15225  Biso   1.000  C
  H809     1.0000 0.85400  0.96530  0.16130  Biso   1.000  H
  H810     1.0000 0.83570  0.95210  0.13190  Biso   1.000  H
  H811     1.0000 0.81150  0.96770  0.15630  Biso   1.000  H
  C647     1.0000 0.82510  0.91350  0.19658  Biso   1.000  C
  H812     1.0000 0.84580  0.92680  0.20520  Biso   1.000  H
  H813     1.0000 0.80330  0.92770  0.20040  Biso   1.000  H
  H814     1.0000 0.82360  0.88760  0.20450  Biso   1.000  H
  C648     1.0000 0.80450  0.88380  0.18010  Biso   1.000  C
  H815     1.0000 0.80240  0.85900  0.17040  Biso   1.000  H
  H816     1.0000 0.81450  0.87980  0.19930  Biso   1.000  H
  H817     1.0000 0.78080  0.89550  0.18100  Biso   1.000  H
  C649     1.0000 0.83290  0.94993  0.17910  Biso   1.000  C
  H818     1.0000 0.84870  0.96670  0.16870  Biso   1.000  H
  H819     1.0000 0.80930  0.96180  0.17990  Biso   1.000  H
  H820     1.0000 0.84300  0.94610  0.19820  Biso   1.000  H
  C650     1.0000 0.81260  0.91410  0.13327  Biso   1.000  C
  H821     1.0000 0.81100  0.88850  0.12470  Biso   1.000  H
  H822     1.0000 0.78870  0.92530  0.13390  Biso   1.000  H
  H823     1.0000 0.82780  0.93060  0.12200  Biso   1.000  H
  C651     1.0000 0.06760  0.54151  0.36928  Biso   1.000  C
  C652     1.0000 0.10196  0.54668  0.38159  Biso   1.000  C
  H824     1.0000 0.12140  0.53170  0.37550  Biso   1.000  H
  C653     1.0000 0.10756  0.57435  0.40316  Biso   1.000  C
  C654     1.0000 0.07796  0.59509  0.41334  Biso   1.000  C
  H825     1.0000 0.08130  0.61260  0.42850  Biso   1.000  H
  C655     1.0000 0.04362  0.58946  0.40073  Biso   1.000  C
  C656     1.0000 0.03876  0.56340  0.37858  Biso   1.000  C
  H826     1.0000 0.01570  0.56040  0.36970  Biso   1.000  H
  C657     1.0000 0.06126  0.51305  0.34405  Biso   1.000  C
  C658     1.0000 0.01248  0.61583  0.40953  Biso   1.000  C
  C659     1.0000 0.18865  0.58632  0.45482  Biso   1.000  C
  H827     1.0000 0.19320  0.58700  0.47460  Biso   1.000  H
  C660     1.0000 0.15262  0.58348  0.44488  Biso   1.000  C
  H828     1.0000 0.13380  0.58270  0.45770  Biso   1.000  H
  C661     1.0000 0.14501  0.58180  0.41532  Biso   1.000  C
  C662     1.0000 0.17435  0.58746  0.39780  Biso   1.000  C
  H829     1.0000 0.17030  0.58910  0.37800  Biso   1.000  H
  C663     1.0000 0.21020  0.59075  0.40971  Biso   1.000  C
  H830     1.0000 0.22930  0.59480  0.39760  Biso   1.000  H
  C664     1.0000 0.08182  0.76477  0.44663  Biso   1.000  C
  C665     1.0000 0.11091  0.74028  0.45471  Biso   1.000  C
  H831     1.0000 0.10660  0.71370  0.45750  Biso   1.000  H
  C666     1.0000 0.14680  0.75484  0.45880  Biso   1.000  C
  C667     1.0000 0.15124  0.79471  0.45596  Biso   1.000  C
  H832     1.0000 0.17440  0.80500  0.45980  Biso   1.000  H
  C668     1.0000 0.12352  0.82071  0.44769  Biso   1.000  C
  C669     1.0000 0.08865  0.80453  0.44295  Biso   1.000  C
  H833     1.0000 0.06940  0.82090  0.43710  Biso   1.000  H
  C670     1.0000 0.04292  0.74897  0.44096  Biso   1.000  C
  C671     1.0000 0.23942  0.70923  0.46085  Biso   1.000  C
  H834     1.0000 0.26140  0.71300  0.45200  Biso   1.000  H
  C672     1.0000 0.21124  0.73336  0.45327  Biso   1.000  C
  H835     1.0000 0.21470  0.75300  0.43980  Biso   1.000  H
  C673     1.0000 0.17704  0.72941  0.46530  Biso   1.000  C
  C674     1.0000 0.17491  0.69727  0.48249  Biso   1.000  C
  H836     1.0000 0.15250  0.69050  0.48960  Biso   1.000  H
  C675     1.0000 0.20566  0.67390  0.48982  Biso   1.000  C
  H837     1.0000 0.20280  0.65280  0.50210  Biso   1.000  H
  C676     1.0000 0.99691  0.82780  0.33925  Biso   1.000  C
  C677     1.0000 0.02019  0.85496  0.35139  Biso   1.000  C
  H838     1.0000 0.02110  0.85840  0.37120  Biso   1.000  H
  C678     1.0000 0.04262  0.87756  0.33462  Biso   1.000  C
  C679     1.0000 0.04258  0.87084  0.30552  Biso   1.000  C
  H839     1.0000 0.05770  0.88570  0.29430  Biso   1.000  H
  C680     1.0000 0.02076  0.84284  0.29289  Biso   1.000  C
  C681     1.0000 0.99636  0.82185  0.30956  Biso   1.000  C
  H840     1.0000 0.98000  0.80420  0.30090  Biso   1.000  H
  C682     1.0000 0.97452  0.80266  0.35811  Biso   1.000  C
  C683     1.0000 0.06766  0.90592  0.34897  Biso   1.000  C
  C684     1.0000 0.98846  0.83332  0.21583  Biso   1.000  C
  H841     1.0000 0.96630  0.83100  0.20550  Biso   1.000  H
  C685     1.0000 0.98806  0.83297  0.24556  Biso   1.000  C
  H842     1.0000 0.96630  0.82960  0.25480  Biso   1.000  H
  C686     1.0000 0.01995  0.83761  0.26104  Biso   1.000  C
  C687     1.0000 0.05171  0.83867  0.24671  Biso   1.000  C
  H843     1.0000 0.07430  0.83940  0.25650  Biso   1.000  H
  C688     1.0000 0.04895  0.83857  0.21674  Biso   1.000  C
  H844     1.0000 0.07050  0.83980  0.20700  Biso   1.000  H
  C689     1.0000 0.95731  0.65510  0.29568  Biso   1.000  C
  C690     1.0000 0.96690  0.61669  0.29204  Biso   1.000  C
  H845     1.0000 0.96600  0.59940  0.30740  Biso   1.000  H
  C691     1.0000 0.97790  0.60327  0.26600  Biso   1.000  C
  C692     1.0000 0.97966  0.62818  0.24317  Biso   1.000  C
  H846     1.0000 0.98820  0.61910  0.22590  Biso   1.000  H
  C693     1.0000 0.96884  0.66677  0.24558  Biso   1.000  C
  C694     1.0000 0.95791  0.67994  0.27216  Biso   1.000  C
  H847     1.0000 0.95090  0.70600  0.27420  Biso   1.000  H
  C695     1.0000 0.94623  0.66881  0.32508  Biso   1.000  C
  C696     1.0000 0.98861  0.56026  0.26481  Biso   1.000  C
  C697     1.0000 0.99738  0.71811  0.17834  Biso   1.000  C
  H848     1.0000 0.01520  0.71530  0.16490  Biso   1.000  H
  C698     1.0000 0.99748  0.69261  0.20099  Biso   1.000  C
  H849     1.0000 0.01570  0.67370  0.20270  Biso   1.000  H
  C699     1.0000 0.97115  0.69431  0.22131  Biso   1.000  C
  C700     1.0000 0.94598  0.72443  0.21753  Biso   1.000  C
  H850     1.0000 0.92800  0.72780  0.23080  Biso   1.000  H
  C701     1.0000 0.94736  0.74997  0.19390  Biso   1.000  C
  H851     1.0000 0.92980  0.76950  0.19180  Biso   1.000  H
  C702     1.0000 0.30001  0.52860  0.37160  Biso   1.000  C
  C703     1.0000 0.32860  0.51982  0.35464  Biso   1.000  C
  H852     1.0000 0.35220  0.52330  0.36230  Biso   1.000  H
  C704     1.0000 0.32425  0.50628  0.32716  Biso   1.000  C
  C705     1.0000 0.28911  0.50113  0.31558  Biso   1.000  C
  H853     1.0000 0.28580  0.49040  0.29730  Biso   1.000  H
  C706     1.0000 0.25818  0.51181  0.33094  Biso   1.000  C
  C707     1.0000 0.26562  0.52470  0.35921  Biso   1.000  C
  H854     1.0000 0.24590  0.53100  0.37020  Biso   1.000  H
  C708     1.0000 0.30533  0.54228  0.40181  Biso   1.000  C
  C709     1.0000 0.35480  0.49443  0.30871  Biso   1.000  C
  C710     1.0000 0.17620  0.47129  0.29022  Biso   1.000  C
  H855     1.0000 0.17140  0.45170  0.27670  Biso   1.000  H
  C711     1.0000 0.21201  0.47800  0.29939  Biso   1.000  C
  H856     1.0000 0.23050  0.46310  0.29180  Biso   1.000  H
  C712     1.0000 0.22052  0.50544  0.31897  Biso   1.000  C
  C713     1.0000 0.19247  0.53166  0.32518  Biso   1.000  C
  H857     1.0000 0.19750  0.55400  0.33610  Biso   1.000  H
  C714     1.0000 0.15663  0.52396  0.31476  Biso   1.000  C
  H858     1.0000 0.13810  0.54170  0.31830  Biso   1.000  H
  C715     1.0000 0.34678  0.75565  0.47682  Biso   1.000  C
  C716     1.0000 0.38085  0.76627  0.46587  Biso   1.000  C
  H859     1.0000 0.40060  0.74910  0.46750  Biso   1.000  H
  C717     1.0000 0.38460  0.80194  0.45285  Biso   1.000  C
  C718     1.0000 0.35517  0.82639  0.44977  Biso   1.000  C
  H860     1.0000 0.35760  0.85020  0.44030  Biso   1.000  H
  C719     1.0000 0.32170  0.81632  0.46048  Biso   1.000  C
  C720     1.0000 0.31721  0.78164  0.47365  Biso   1.000  C
  H861     1.0000 0.29460  0.77490  0.48060  Biso   1.000  H
  C721     1.0000 0.34158  0.71442  0.48877  Biso   1.000  C
  C722     1.0000 0.41945  0.81299  0.43883  Biso   1.000  C
  C723     1.0000 0.23365  0.87224  0.46848  Biso   1.000  C
  H862     1.0000 0.21560  0.87460  0.48180  Biso   1.000  H
  C724     1.0000 0.26322  0.84692  0.47509  Biso   1.000  C
  H863     1.0000 0.26440  0.83330  0.49240  Biso   1.000  H
  C725     1.0000 0.29038  0.84242  0.45576  Biso   1.000  C
  C726     1.0000 0.28707  0.86554  0.43282  Biso   1.000  C
  H864     1.0000 0.30560  0.86540  0.41980  Biso   1.000  H
  C727     1.0000 0.25634  0.89047  0.42743  Biso   1.000  C
  H865     1.0000 0.25530  0.90560  0.41080  Biso   1.000  H
  C728     1.0000 0.01062  0.67496  0.09660  Biso   1.000  C
  C729     1.0000 0.03617  0.66577  0.07719  Biso   1.000  C
  H866     1.0000 0.04160  0.68390  0.06310  Biso   1.000  H
  C730     1.0000 0.05407  0.63042  0.07792  Biso   1.000  C
  C731     1.0000 0.04586  0.60461  0.09921  Biso   1.000  C
  H867     1.0000 0.05820  0.58080  0.10030  Biso   1.000  H
  C732     1.0000 0.01941  0.61279  0.11963  Biso   1.000  C
  C733     1.0000 0.00161  0.64841  0.11735  Biso   1.000  C
  H868     1.0000 0.98340  0.65450  0.12990  Biso   1.000  H
  C734     1.0000 0.99500  0.71504  0.09660  Biso   1.000  C
  C735     1.0000 0.08337  0.62004  0.05846  Biso   1.000  C
  C736     1.0000 0.97534  0.54944  0.17385  Biso   1.000  C
  H869     1.0000 0.95210  0.54610  0.18080  Biso   1.000  H
  C737     1.0000 0.97901  0.57635  0.15299  Biso   1.000  C
  H870     1.0000 0.95880  0.59030  0.14580  Biso   1.000  H
  C738     1.0000 0.01243  0.58300  0.14252  Biso   1.000  C
  C739     1.0000 0.04024  0.55913  0.15410  Biso   1.000  C
  H871     1.0000 0.06370  0.56140  0.14750  Biso   1.000  H
  C740     1.0000 0.03335  0.53223  0.17517  Biso   1.000  C
  H872     1.0000 0.05260  0.51690  0.18240  Biso   1.000  H
  C741     1.0000 0.12296  0.91036  0.16611  Biso   1.000  C
  C742     1.0000 0.15337  0.91944  0.15163  Biso   1.000  C
  H873     1.0000 0.15340  0.91600  0.13180  Biso   1.000  H
  C743     1.0000 0.18404  0.93369  0.16615  Biso   1.000  C
  C744     1.0000 0.18431  0.93901  0.19560  Biso   1.000  C
  H874     1.0000 0.20500  0.94870  0.20540  Biso   1.000  H
  C745     1.0000 0.15291  0.92969  0.21062  Biso   1.000  C
  C746     1.0000 0.12273  0.91498  0.19525  Biso   1.000  C
  H875     1.0000 0.10200  0.90810  0.20490  Biso   1.000  H
  C747     1.0000 0.08839  0.89529  0.15078  Biso   1.000  C
  C748     1.0000 0.21894  0.94492  0.15150  Biso   1.000  C
  N19      1.0000 0.14171  0.95649  0.29944  Biso   1.000  N
  C749     1.0000 0.17420  0.94750  0.28820  Biso   1.000  C
  H876     1.0000 0.19480  0.94630  0.30050  Biso   1.000  H
  C750     1.0000 0.17800  0.94021  0.25993  Biso   1.000  C
  H877     1.0000 0.20100  0.93470  0.25340  Biso   1.000  H
  C751     1.0000 0.14970  0.94070  0.24146  Biso   1.000  C
  C752     1.0000 0.11600  0.95170  0.25101  Biso   1.000  C
  H878     1.0000 0.09600  0.95440  0.23820  Biso   1.000  H
  C753     1.0000 0.11270  0.95840  0.27965  Biso   1.000  C
  H879     1.0000 0.08970  0.96460  0.28620  Biso   1.000  H
  N20      1.0000 0.14991  0.94130  0.30197  Biso   1.000  N
  C754     1.0000 0.16681  0.96820  0.28724  Biso   1.000  C
  H880     1.0000 0.17700  0.98980  0.29670  Biso   1.000  H
  C755     1.0000 0.16981  0.96480  0.25733  Biso   1.000  C
  H881     1.0000 0.18210  0.98370  0.24710  Biso   1.000  H
  C756     1.0000 0.15340  0.93130  0.24272  Biso   1.000  C
  C757     1.0000 0.13790  0.90390  0.26068  Biso   1.000  C
  H882     1.0000 0.12790  0.88120  0.25250  Biso   1.000  H
  C758     1.0000 0.13660  0.90870  0.28961  Biso   1.000  C
  H883     1.0000 0.12640  0.88920  0.30080  Biso   1.000  H
  O118     1.0000 0.06626  0.51424  0.27900  Biso   1.000  O
  O119     1.0000 0.08757  0.52219  0.23592  Biso   1.000  O
  C759     1.0000 0.07454  0.53513  0.25841  Biso   1.000  C
  H884     1.0000 0.07080  0.56200  0.25980  Biso   1.000  H
  O120     1.0000 0.07210  0.64800  0.33929  Biso   1.000  O
  H885     1.0000 0.06750  0.66580  0.35110  Biso   1.000  H
  O121     1.0000 0.04746  0.69147  0.30992  Biso   1.000  O
  N21      1.0000 0.10099  0.71817  0.16094  Biso   1.000  N
  C760     1.0000 0.07777  0.57935  0.26294  Biso   1.000  C
  C761     1.0000 0.07355  0.59695  0.28970  Biso   1.000  C
  H886     1.0000 0.07100  0.58320  0.30670  Biso   1.000  H
  C762     1.0000 0.07363  0.63754  0.28769  Biso   1.000  C
  C763     1.0000 0.07959  0.65860  0.26289  Biso   1.000  C
  H887     1.0000 0.08040  0.68580  0.26410  Biso   1.000  H
  C764     1.0000 0.08442  0.64113  0.23629  Biso   1.000  C
  C765     1.0000 0.08390  0.60079  0.23854  Biso   1.000  C
  H888     1.0000 0.08810  0.58670  0.22190  Biso   1.000  H
  C766     1.0000 0.07656  0.53553  0.25992  Biso   1.000  C
  C767     1.0000 0.06625  0.66031  0.31442  Biso   1.000  C
  C768     1.0000 0.09720  0.73140  0.18815  Biso   1.000  C
  H889     1.0000 0.09720  0.75840  0.19100  Biso   1.000  H
  C769     1.0000 0.09330  0.70702  0.21260  Biso   1.000  C
  H890     1.0000 0.09200  0.71880  0.23050  Biso   1.000  H
  C770     1.0000 0.09150  0.66623  0.21092  Biso   1.000  C
  C771     1.0000 0.09320  0.65104  0.18369  Biso   1.000  C
  H891     1.0000 0.09240  0.62420  0.18030  Biso   1.000  H
  C772     1.0000 0.09610  0.67853  0.16091  Biso   1.000  C
  H892     1.0000 0.09430  0.66740  0.14270  Biso   1.000  H
  O122     1.0000 0.20729  0.90912  0.36839  Biso   1.000  O
  O123     1.0000 0.16144  0.90513  0.39769  Biso   1.000  O
  O124     1.0000 0.15117  0.90932  0.35071  Biso   1.000  O
  C773     1.0000 0.17400  0.90420  0.37306  Biso   1.000  C
  O125     1.0000 0.20010  0.91110  0.36699  Biso   1.000  O
  O126     1.0000 0.14680  0.91390  0.37225  Biso   1.000  O
  C774     1.0000 0.17240  0.88531  0.37112  Biso   1.000  C
  N22      1.0000 0.16939  0.84534  0.36798  Biso   1.000  N
  C775     1.0000 0.13796  0.81790  0.36180  Biso   1.000  C
  H893     1.0000 0.14680  0.79140  0.36120  Biso   1.000  H
  H894     1.0000 0.12070  0.82030  0.37660  Biso   1.000  H
  H895     1.0000 0.12630  0.82450  0.34360  Biso   1.000  H
  C776     1.0000 0.20075  0.81730  0.37310  Biso   1.000  C
  H896     1.0000 0.19240  0.79100  0.36960  Biso   1.000  H
  H897     1.0000 0.21980  0.82340  0.36020  Biso   1.000  H
  H898     1.0000 0.21000  0.81970  0.39250  Biso   1.000  H
  Ni41     1.0000 0.44314  0.34982  0.88727  Biso   1.000  Ni
  Ni42     1.0000 0.48903  0.31345  0.93973  Biso   1.000  Ni
  Ni43     1.0000 0.46930  0.22999  0.91592  Biso   1.000  Ni
  Ni44     1.0000 0.42608  0.26625  0.86243  Biso   1.000  Ni
  Ni45     1.0000 0.59600  0.53227  0.79784  Biso   1.000  Ni
  Ni46     1.0000 0.51352  0.50966  0.79420  Biso   1.000  Ni
  Ni47     1.0000 0.49601  0.50447  0.72152  Biso   1.000  Ni
  Ni48     1.0000 0.59720  0.53137  0.72147  Biso   1.000  Ni
  Ni49     1.0000 0.76825  0.42962  0.95507  Biso   1.000  Ni
  Ni50     1.0000 0.85644  0.43723  0.95065  Biso   1.000  Ni
  Ni51     1.0000 0.87341  0.36357  0.99126  Biso   1.000  Ni
  Ni52     1.0000 0.78486  0.34820  0.99657  Biso   1.000  Ni
  Ni53     1.0000 0.60607  0.07093  0.90388  Biso   1.000  Ni
  Ni54     1.0000 0.68482  0.07494  0.93639  Biso   1.000  Ni
  Ni55     1.0000 0.72414  0.03592  0.87121  Biso   1.000  Ni
  Ni56     1.0000 0.63055  0.03849  0.84202  Biso   1.000  Ni
  Ni57     1.0000 0.51268  0.13959  0.65987  Biso   1.000  Ni
  Ni58     1.0000 0.54648  0.12666  0.59798  Biso   1.000  Ni
  Ni59     1.0000 0.50443  0.20472  0.57446  Biso   1.000  Ni
  Ni60     1.0000 0.46728  0.22217  0.63553  Biso   1.000  Ni
  Cl3      1.0000 0.48408  0.29112  0.88824  Biso   1.000  Cl
  S41      1.0000 0.38849  0.39335  0.89881  Biso   1.000  S
  S42      1.0000 0.46710  0.32948  0.99001  Biso   1.000  S
  S43      1.0000 0.43414  0.18366  0.94760  Biso   1.000  S
  S44      1.0000 0.35950  0.24733  0.85486  Biso   1.000  S
  S45      1.0000 0.61277  0.59561  0.81954  Biso   1.000  S
  S46      1.0000 0.47004  0.55366  0.81755  Biso   1.000  S
  S47      1.0000 0.46131  0.55588  0.70022  Biso   1.000  S
  S48      1.0000 0.60748  0.59380  0.70136  Biso   1.000  S
  S49      1.0000 0.73948  0.48477  0.98008  Biso   1.000  S
  S50      1.0000 0.88565  0.49987  0.96512  Biso   1.000  S
  S51      1.0000 0.91020  0.37446  0.03568  Biso   1.000  S
  S52      1.0000 0.76374  0.35293  0.04596  Biso   1.000  S
  S53      1.0000 0.55798  0.03461  0.92753  Biso   1.000  S
  S54      1.0000 0.69454  0.03335  0.97810  Biso   1.000  S
  S55      1.0000 0.74627  0.97168  0.87772  Biso   1.000  S
  S56      1.0000 0.60706  0.97415  0.82824  Biso   1.000  S
  S57      1.0000 0.47263  0.08656  0.67631  Biso   1.000  S
  S58      1.0000 0.53111  0.06470  0.57218  Biso   1.000  S
  S59      1.0000 0.46292  0.19698  0.53199  Biso   1.000  S
  S60      1.0000 0.40032  0.21774  0.63499  Biso   1.000  S
  O127     1.0000 0.44205  0.33957  0.92937  Biso   1.000  O
  O128     1.0000 0.46304  0.26510  0.94793  Biso   1.000  O
  O129     1.0000 0.41882  0.23864  0.89964  Biso   1.000  O
  O130     1.0000 0.40387  0.31307  0.87848  Biso   1.000  O
  O131     1.0000 0.54584  0.55607  0.79873  Biso   1.000  O
  O132     1.0000 0.49014  0.53263  0.75788  Biso   1.000  O
  O133     1.0000 0.54218  0.54247  0.71267  Biso   1.000  O
  O134     1.0000 0.60341  0.56018  0.75990  Biso   1.000  O
  O135     1.0000 0.81332  0.45857  0.96956  Biso   1.000  O
  O136     1.0000 0.87554  0.42006  0.98886  Biso   1.000  O
  O137     1.0000 0.83095  0.36883  0.01633  Biso   1.000  O
  O138     1.0000 0.76077  0.40112  0.99239  Biso   1.000  O
  O139     1.0000 0.63907  0.04385  0.93243  Biso   1.000  O
  O140     1.0000 0.71197  0.03233  0.91415  Biso   1.000  O
  O141     1.0000 0.67805  0.00936  0.85329  Biso   1.000  O
  O142     1.0000 0.60912  0.02241  0.87944  Biso   1.000  O
  O143     1.0000 0.50793  0.10894  0.62357  Biso   1.000  O
  O144     1.0000 0.50779  0.14740  0.57173  Biso   1.000  O
  O145     1.0000 0.45865  0.19875  0.59599  Biso   1.000  O
  O146     1.0000 0.46464  0.16840  0.65371  Biso   1.000  O
  O147     1.0000 0.48304  0.38789  0.89372  Biso   1.000  O
  O148     1.0000 0.51835  0.36083  0.92970  Biso   1.000  O
  O149     1.0000 0.58899  0.50629  0.83667  Biso   1.000  O
  O150     1.0000 0.52952  0.48724  0.83273  Biso   1.000  O
  O151     1.0000 0.53702  0.28540  0.94694  Biso   1.000  O
  O152     1.0000 0.52189  0.22557  0.92991  Biso   1.000  O
  O153     1.0000 0.60222  0.11877  0.92803  Biso   1.000  O
  O154     1.0000 0.65471  0.11889  0.95729  Biso   1.000  O
  C777     1.0000 0.62560  0.13574  0.94320  Biso   1.000  C
  O155     1.0000 0.60448  0.11913  0.92821  Biso   1.000  O
  O156     1.0000 0.66162  0.12354  0.94672  Biso   1.000  O
  C778     1.0000 0.63061  0.13689  0.94025  Biso   1.000  C
  O157     1.0000 0.48036  0.19350  0.88438  Biso   1.000  O
  O158     1.0000 0.45193  0.22048  0.84528  Biso   1.000  O
  O159     1.0000 0.57097  0.09609  0.87531  Biso   1.000  O
  O160     1.0000 0.58326  0.07030  0.83291  Biso   1.000  O
  O161     1.0000 0.44864  0.35596  0.84461  Biso   1.000  O
  O162     1.0000 0.43686  0.29578  0.82666  Biso   1.000  O
  O163     1.0000 0.48696  0.45977  0.78676  Biso   1.000  O
  O164     1.0000 0.50223  0.45235  0.74042  Biso   1.000  O
  O165     1.0000 0.77715  0.45142  0.91577  Biso   1.000  O
  O166     1.0000 0.83780  0.45352  0.91129  Biso   1.000  O
  O167     1.0000 0.88727  0.50487  0.81913  Biso   1.000  O
  O168     1.0000 0.84775  0.51664  0.78307  Biso   1.000  O
  O169     1.0000 0.86997  0.30646  0.99088  Biso   1.000  O
  O170     1.0000 0.80974  0.29512  0.99463  Biso   1.000  O
  O171     1.0000 0.94587  0.20941  0.94185  Biso   1.000  O
  O172     1.0000 0.91769  0.15495  0.92468  Biso   1.000  O
  O173     1.0000 0.47519  0.27567  0.61738  Biso   1.000  O
  O174     1.0000 0.50357  0.26236  0.57649  Biso   1.000  O
  O175     1.0000 0.58812  0.35915  0.53764  Biso   1.000  O
  O176     1.0000 0.60163  0.40965  0.56675  Biso   1.000  O
  O177     1.0000 0.56257  0.11461  0.66668  Biso   1.000  O
  O178     1.0000 0.58737  0.10675  0.62396  Biso   1.000  O
  O179     1.0000 0.71989  0.05807  0.62451  Biso   1.000  O
  O180     1.0000 0.74685  0.04375  0.66625  Biso   1.000  O
  N23      1.0000 0.71746  0.41187  0.93804  Biso   1.000  N
  N24      1.0000 0.73783  0.31952  0.98015  Biso   1.000  N
  N25      1.0000 0.51847  0.16317  0.70139  Biso   1.000  N
  N26      1.0000 0.47259  0.25271  0.67461  Biso   1.000  N
  N27      1.0000 0.64876  0.50883  0.79968  Biso   1.000  N
  N28      1.0000 0.72999  0.10727  0.94465  Biso   1.000  N
  N29      1.0000 0.50187  0.47270  0.68533  Biso   1.000  N
  C779     1.0000 0.42454  0.36253  0.94654  Biso   1.000  C
  C780     1.0000 0.39734  0.38883  0.93659  Biso   1.000  C
  C781     1.0000 0.37931  0.41237  0.95551  Biso   1.000  C
  H899     1.0000 0.36140  0.42950  0.94840  Biso   1.000  H
  C782     1.0000 0.38714  0.41115  0.98442  Biso   1.000  C
  C783     1.0000 0.41348  0.38589  0.99453  Biso   1.000  C
  H900     1.0000 0.41890  0.38470  0.01420  Biso   1.000  H
  C784     1.0000 0.43273  0.36160  0.97615  Biso   1.000  C
  C785     1.0000 0.36683  0.43651  0.00517  Biso   1.000  C
  C786     1.0000 0.36560  0.47896  0.99571  Biso   1.000  C
  H901     1.0000 0.38990  0.48940  0.99600  Biso   1.000  H
  H902     1.0000 0.35110  0.49380  0.00850  Biso   1.000  H
  H903     1.0000 0.35490  0.48060  0.97660  Biso   1.000  H
  C787     1.0000 0.32730  0.42580  0.00331  Biso   1.000  C
  H904     1.0000 0.31840  0.42720  0.98370  Biso   1.000  H
  H905     1.0000 0.31380  0.44380  0.01470  Biso   1.000  H
  H906     1.0000 0.32430  0.39960  0.01040  Biso   1.000  H
  C788     1.0000 0.38084  0.43440  0.03584  Biso   1.000  C
  H907     1.0000 0.40630  0.44130  0.03700  Biso   1.000  H
  H908     1.0000 0.37790  0.40830  0.04300  Biso   1.000  H
  H909     1.0000 0.36740  0.45240  0.04720  Biso   1.000  H
  C789     1.0000 0.44487  0.25727  0.97115  Biso   1.000  C
  C790     1.0000 0.44255  0.28481  0.99304  Biso   1.000  C
  C791     1.0000 0.42319  0.27633  0.01686  Biso   1.000  C
  H910     1.0000 0.42180  0.29510  0.03130  Biso   1.000  H
  C792     1.0000 0.40550  0.24046  0.02009  Biso   1.000  C
  C793     1.0000 0.40851  0.21348  0.99834  Biso   1.000  C
  H911     1.0000 0.39730  0.18920  0.00000  Biso   1.000  H
  C794     1.0000 0.42748  0.22126  0.97434  Biso   1.000  C
  C795     1.0000 0.38295  0.23179  0.04611  Biso   1.000  C
  C796     1.0000 0.40986  0.21492  0.06768  Biso   1.000  C
  H912     1.0000 0.42990  0.23280  0.07070  Biso   1.000  H
  H913     1.0000 0.41880  0.19040  0.06070  Biso   1.000  H
  H914     1.0000 0.39820  0.21080  0.08550  Biso   1.000  H
  C797     1.0000 0.36821  0.26873  0.05970  Biso   1.000  C
  H915     1.0000 0.35070  0.28080  0.04660  Biso   1.000  H
  H916     1.0000 0.38790  0.28660  0.06390  Biso   1.000  H
  H917     1.0000 0.35670  0.26200  0.07720  Biso   1.000  H
  C798     1.0000 0.35030  0.20537  0.04010  Biso   1.000  C
  H918     1.0000 0.33400  0.21760  0.02620  Biso   1.000  H
  H919     1.0000 0.33790  0.20110  0.05750  Biso   1.000  H
  H920     1.0000 0.35840  0.18070  0.03280  Biso   1.000  H
  C799     1.0000 0.39247  0.21323  0.90240  Biso   1.000  C
  C800     1.0000 0.39434  0.18545  0.92514  Biso   1.000  C
  C801     1.0000 0.36632  0.15836  0.92710  Biso   1.000  C
  H921     1.0000 0.36780  0.13980  0.94170  Biso   1.000  H
  C802     1.0000 0.33566  0.15780  0.90780  Biso   1.000  C
  C803     1.0000 0.33392  0.18612  0.88618  Biso   1.000  C
  H922     1.0000 0.31400  0.18620  0.87320  Biso   1.000  H
  C804     1.0000 0.36061  0.21371  0.88348  Biso   1.000  C
  C805     1.0000 0.30627  0.12576  0.90926  Biso   1.000  C
  C806     1.0000 0.31523  0.09494  0.93213  Biso   1.000  C
  H923     1.0000 0.33780  0.08220  0.92800  Biso   1.000  H
  H924     1.0000 0.29600  0.07590  0.93220  Biso   1.000  H
  H925     1.0000 0.31760  0.10730  0.95060  Biso   1.000  H
  C807     1.0000 0.27043  0.14590  0.91591  Biso   1.000  C
  H926     1.0000 0.26470  0.16530  0.90150  Biso   1.000  H
  H927     1.0000 0.27280  0.15830  0.93440  Biso   1.000  H
  H928     1.0000 0.25120  0.12680  0.91600  Biso   1.000  H
  C808     1.0000 0.30093  0.10390  0.88040  Biso   1.000  C
  H929     1.0000 0.29520  0.12250  0.86540  Biso   1.000  H
  H930     1.0000 0.28130  0.08540  0.88160  Biso   1.000  H
  H931     1.0000 0.32300  0.09020  0.87630  Biso   1.000  H
  C809     1.0000 0.29780  0.12710  0.94111  Biso   1.000  C
  H932     1.0000 0.28710  0.15200  0.94550  Biso   1.000  H
  H933     1.0000 0.32000  0.12380  0.95250  Biso   1.000  H
  H934     1.0000 0.28110  0.10640  0.94530  Biso   1.000  H
  C810     1.0000 0.32360  0.08673  0.90090  Biso   1.000  C
  H935     1.0000 0.32840  0.08700  0.88090  Biso   1.000  H
  H936     1.0000 0.30710  0.06570  0.90480  Biso   1.000  H
  H937     1.0000 0.34600  0.08300  0.91200  Biso   1.000  H
  C811     1.0000 0.27150  0.13290  0.89033  Biso   1.000  C
  H938     1.0000 0.27740  0.13190  0.87050  Biso   1.000  H
  H939     1.0000 0.26160  0.15820  0.89460  Biso   1.000  H
  H940     1.0000 0.25380  0.11300  0.89410  Biso   1.000  H
  C812     1.0000 0.36844  0.31994  0.87961  Biso   1.000  C
  C813     1.0000 0.34299  0.29134  0.87009  Biso   1.000  C
  C814     1.0000 0.30601  0.29966  0.87111  Biso   1.000  C
  H941     1.0000 0.28920  0.28080  0.86490  Biso   1.000  H
  C815     1.0000 0.29306  0.33647  0.88137  Biso   1.000  C
  C816     1.0000 0.31928  0.36270  0.88998  Biso   1.000  C
  H942     1.0000 0.31150  0.38700  0.89650  Biso   1.000  H
  C817     1.0000 0.35554  0.35633  0.88981  Biso   1.000  C
  C818     1.0000 0.25194  0.34479  0.88194  Biso   1.000  C
  C819     1.0000 0.22896  0.31031  0.87153  Biso   1.000  C
  H943     1.0000 0.23610  0.28730  0.88220  Biso   1.000  H
  H944     1.0000 0.23250  0.30600  0.85150  Biso   1.000  H
  H945     1.0000 0.20370  0.31580  0.87430  Biso   1.000  H
  C820     1.0000 0.24300  0.35160  0.91342  Biso   1.000  C
  H946     1.0000 0.24700  0.32790  0.92410  Biso   1.000  H
  H947     1.0000 0.21790  0.35940  0.91440  Biso   1.000  H
  H948     1.0000 0.25840  0.37200  0.92140  Biso   1.000  H
  C821     1.0000 0.24460  0.38386  0.86761  Biso   1.000  C
  H949     1.0000 0.26070  0.40330  0.87600  Biso   1.000  H
  H950     1.0000 0.21970  0.39150  0.87030  Biso   1.000  H
  H951     1.0000 0.24860  0.38170  0.84750  Biso   1.000  H
  C822     1.0000 0.23260  0.31170  0.89703  Biso   1.000  C
  H952     1.0000 0.20700  0.31730  0.89720  Biso   1.000  H
  H953     1.0000 0.24240  0.30940  0.91640  Biso   1.000  H
  H954     1.0000 0.23640  0.28750  0.88700  Biso   1.000  H
  C823     1.0000 0.24350  0.38524  0.89476  Biso   1.000  C
  H955     1.0000 0.25620  0.40520  0.88460  Biso   1.000  H
  H956     1.0000 0.25130  0.38570  0.91470  Biso   1.000  H
  H957     1.0000 0.21770  0.39010  0.89300  Biso   1.000  H
  C824     1.0000 0.23850  0.34530  0.85017  Biso   1.000  C
  H958     1.0000 0.25050  0.36600  0.84030  Biso   1.000  H
  H959     1.0000 0.21260  0.34940  0.84900  Biso   1.000  H
  H960     1.0000 0.24410  0.32060  0.84140  Biso   1.000  H
  C825     1.0000 0.53919  0.58121  0.81868  Biso   1.000  C
  C826     1.0000 0.56798  0.60480  0.83075  Biso   1.000  C
  C827     1.0000 0.56091  0.63007  0.85260  Biso   1.000  C
  H961     1.0000 0.58060  0.64330  0.86130  Biso   1.000  H
  C828     1.0000 0.52632  0.63755  0.86280  Biso   1.000  C
  C829     1.0000 0.49889  0.61209  0.85139  Biso   1.000  C
  H962     1.0000 0.47590  0.61290  0.85910  Biso   1.000  H
  C830     1.0000 0.50453  0.58665  0.82970  Biso   1.000  C
  C831     1.0000 0.52169  0.66646  0.88830  Biso   1.000  C
  C832     1.0000 0.54390  0.64960  0.91425  Biso   1.000  C
  H963     1.0000 0.53340  0.62520  0.91990  Biso   1.000  H
  H964     1.0000 0.54340  0.66780  0.93000  Biso   1.000  H
  H965     1.0000 0.56870  0.64550  0.90910  Biso   1.000  H
  C833     1.0000 0.48109  0.67190  0.89520  Biso   1.000  C
  H966     1.0000 0.47170  0.64770  0.90250  Biso   1.000  H
  H967     1.0000 0.46740  0.67920  0.87810  Biso   1.000  H
  H968     1.0000 0.47900  0.69210  0.90940  Biso   1.000  H
  C834     1.0000 0.53520  0.70577  0.87683  Biso   1.000  C
  H969     1.0000 0.51980  0.71380  0.86080  Biso   1.000  H
  H970     1.0000 0.55980  0.70290  0.87080  Biso   1.000  H
  H971     1.0000 0.53460  0.72520  0.89170  Biso   1.000  H
  C835     1.0000 0.51376  0.66794  0.88490  Biso   1.000  C
  C836     1.0000 0.54402  0.69410  0.89820  Biso   1.000  C
  H972     1.0000 0.56270  0.67790  0.90710  Biso   1.000  H
  H973     1.0000 0.53400  0.71090  0.91230  Biso   1.000  H
  H974     1.0000 0.55430  0.70970  0.88340  Biso   1.000  H
  C837     1.0000 0.49830  0.64080  0.90791  Biso   1.000  C
  H975     1.0000 0.47940  0.62460  0.89930  Biso   1.000  H
  H976     1.0000 0.48840  0.65640  0.92280  Biso   1.000  H
  H977     1.0000 0.51740  0.62440  0.91590  Biso   1.000  H
  C838     1.0000 0.48410  0.69440  0.87080  Biso   1.000  C
  H978     1.0000 0.46500  0.67850  0.86240  Biso   1.000  H
  H979     1.0000 0.49460  0.71010  0.85620  Biso   1.000  H
  H980     1.0000 0.47430  0.71130  0.88510  Biso   1.000  H
  C839     1.0000 0.46570  0.55999  0.75867  Biso   1.000  C
  C840     1.0000 0.45301  0.57544  0.78468  Biso   1.000  C
  C841     1.0000 0.42635  0.60336  0.78563  Biso   1.000  C
  H981     1.0000 0.41880  0.61190  0.80340  Biso   1.000  H
  C842     1.0000 0.41022  0.61928  0.76083  Biso   1.000  C
  C843     1.0000 0.42278  0.60577  0.73522  Biso   1.000  C
  H982     1.0000 0.41350  0.61680  0.71820  Biso   1.000  H
  C844     1.0000 0.44888  0.57625  0.73377  Biso   1.000  C
  C845     1.0000 0.38040  0.65136  0.76151  Biso   1.000  C
  C846     1.0000 0.39390  0.68513  0.74327  Biso   1.000  C
  H983     1.0000 0.41490  0.69690  0.75270  Biso   1.000  H
  H984     1.0000 0.37490  0.70440  0.74080  Biso   1.000  H
  H985     1.0000 0.40030  0.67540  0.72480  Biso   1.000  H
  C847     1.0000 0.34697  0.62960  0.74929  Biso   1.000  C
  H986     1.0000 0.34060  0.60910  0.76220  Biso   1.000  H
  H987     1.0000 0.35230  0.61860  0.73100  Biso   1.000  H
  H988     1.0000 0.32690  0.64760  0.74700  Biso   1.000  H
  C848     1.0000 0.37010  0.66550  0.79164  Biso   1.000  C
  H989     1.0000 0.39030  0.67950  0.80050  Biso   1.000  H
  H990     1.0000 0.36440  0.64320  0.80320  Biso   1.000  H
  H991     1.0000 0.34930  0.68240  0.78990  Biso   1.000  H
  C849     1.0000 0.37962  0.64932  0.76616  Biso   1.000  C
  C850     1.0000 0.36380  0.66380  0.73742  Biso   1.000  C
  H992     1.0000 0.38240  0.67700  0.72730  Biso   1.000  H
  H993     1.0000 0.34400  0.68160  0.74060  Biso   1.000  H
  H994     1.0000 0.35480  0.64190  0.72630  Biso   1.000  H
  C851     1.0000 0.34996  0.62800  0.78256  Biso   1.000  C
  H995     1.0000 0.36010  0.61900  0.80070  Biso   1.000  H
  H996     1.0000 0.34100  0.60610  0.77150  Biso   1.000  H
  H997     1.0000 0.33020  0.64580  0.78580  Biso   1.000  H
  C852     1.0000 0.39450  0.68501  0.78358  Biso   1.000  C
  H998     1.0000 0.40460  0.67630  0.80180  Biso   1.000  H
  H999     1.0000 0.37490  0.70310  0.78660  Biso   1.000  H
  H1000    1.0000 0.41310  0.69780  0.77320  Biso   1.000  H
  C853     1.0000 0.53460  0.57542  0.69910  Biso   1.000  C
  C854     1.0000 0.49761  0.58628  0.69088  Biso   1.000  C
  C855     1.0000 0.49085  0.61918  0.67498  Biso   1.000  C
  H1001    1.0000 0.46670  0.62390  0.66910  Biso   1.000  H
  C856     1.0000 0.51723  0.64714  0.66640  Biso   1.000  C
  C857     1.0000 0.55224  0.63615  0.67585  Biso   1.000  C
  H1002    1.0000 0.57140  0.65260  0.67140  Biso   1.000  H
  C858     1.0000 0.56097  0.60198  0.69170  Biso   1.000  C
  C859     1.0000 0.50537  0.68020  0.64520  Biso   1.000  C
  C860     1.0000 0.47902  0.70460  0.66238  Biso   1.000  C
  H1003    1.0000 0.45740  0.68960  0.66540  Biso   1.000  H
  H1004    1.0000 0.47260  0.72800  0.65190  Biso   1.000  H
  H1005    1.0000 0.49050  0.71150  0.68060  Biso   1.000  H
  C861     1.0000 0.53949  0.70440  0.64060  Biso   1.000  C
  H1006    1.0000 0.55630  0.68940  0.62980  Biso   1.000  H
  H1007    1.0000 0.55080  0.71130  0.65880  Biso   1.000  H
  H1008    1.0000 0.53290  0.72790  0.63020  Biso   1.000  H
  C862     1.0000 0.48830  0.66230  0.61762  Biso   1.000  C
  H1009    1.0000 0.46700  0.64750  0.62210  Biso   1.000  H
  H1010    1.0000 0.50570  0.64540  0.60910  Biso   1.000  H
  H1011    1.0000 0.48150  0.68290  0.60440  Biso   1.000  H
  C863     1.0000 0.50912  0.68647  0.65095  Biso   1.000  C
  C864     1.0000 0.46944  0.69540  0.64180  Biso   1.000  C
  H1012    1.0000 0.46060  0.67580  0.62850  Biso   1.000  H
  H1013    1.0000 0.46800  0.72070  0.63280  Biso   1.000  H
  H1014    1.0000 0.45480  0.69530  0.65840  Biso   1.000  H
  C865     1.0000 0.52440  0.71690  0.67219  Biso   1.000  C
  H1015    1.0000 0.54920  0.71060  0.67750  Biso   1.000  H
  H1016    1.0000 0.51010  0.71700  0.68900  Biso   1.000  H
  H1017    1.0000 0.52340  0.74240  0.66340  Biso   1.000  H
  C866     1.0000 0.53150  0.68350  0.62398  Biso   1.000  C
  H1018    1.0000 0.52090  0.66400  0.61130  Biso   1.000  H
  H1019    1.0000 0.55610  0.67620  0.62940  Biso   1.000  H
  H1020    1.0000 0.53150  0.70840  0.61440  Biso   1.000  H
  C867     1.0000 0.60975  0.59749  0.75997  Biso   1.000  C
  C868     1.0000 0.61220  0.61862  0.73473  Biso   1.000  C
  C869     1.0000 0.62022  0.65810  0.73413  Biso   1.000  C
  H1021    1.0000 0.62300  0.66990  0.71640  Biso   1.000  H
  C870     1.0000 0.62442  0.68139  0.75885  Biso   1.000  C
  C871     1.0000 0.62113  0.65779  0.78537  Biso   1.000  C
  H1022    1.0000 0.62340  0.67060  0.80300  Biso   1.000  H
  C872     1.0000 0.61494  0.61818  0.78531  Biso   1.000  C
  C873     1.0000 0.63294  0.72644  0.75986  Biso   1.000  C
  C874     1.0000 0.63030  0.74730  0.73044  Biso   1.000  C
  H1023    1.0000 0.60580  0.74500  0.72240  Biso   1.000  H
  H1024    1.0000 0.64690  0.73530  0.71770  Biso   1.000  H
  H1025    1.0000 0.63640  0.77450  0.73290  Biso   1.000  H
  C875     1.0000 0.60646  0.74620  0.78037  Biso   1.000  C
  H1026    1.0000 0.58190  0.74410  0.77250  Biso   1.000  H
  H1027    1.0000 0.61280  0.77330  0.78270  Biso   1.000  H
  H1028    1.0000 0.60820  0.73330  0.79870  Biso   1.000  H
  C876     1.0000 0.67195  0.73000  0.77280  Biso   1.000  C
  H1029    1.0000 0.67360  0.71700  0.79100  Biso   1.000  H
  H1030    1.0000 0.67810  0.75720  0.77520  Biso   1.000  H
  H1031    1.0000 0.68860  0.71800  0.76010  Biso   1.000  H
  C877     1.0000 0.63410  0.72579  0.75609  Biso   1.000  C
  C878     1.0000 0.60539  0.74690  0.73638  Biso   1.000  C
  H1032    1.0000 0.58200  0.74550  0.74480  Biso   1.000  H
  H1033    1.0000 0.60410  0.73440  0.71790  Biso   1.000  H
  H1034    1.0000 0.61230  0.77390  0.73420  Biso   1.000  H
  C879     1.0000 0.63710  0.74520  0.78584  Biso   1.000  C
  H1035    1.0000 0.61380  0.74400  0.79460  Biso   1.000  H
  H1036    1.0000 0.64420  0.77220  0.78380  Biso   1.000  H
  H1037    1.0000 0.65500  0.73170  0.79770  Biso   1.000  H
  C880     1.0000 0.67142  0.72810  0.74257  Biso   1.000  C
  H1038    1.0000 0.67000  0.71610  0.72390  Biso   1.000  H
  H1039    1.0000 0.68930  0.71470  0.75460  Biso   1.000  H
  H1040    1.0000 0.67840  0.75510  0.74070  Biso   1.000  H
  C881     1.0000 0.81259  0.49554  0.97579  Biso   1.000  C
  C882     1.0000 0.77933  0.51417  0.98182  Biso   1.000  C
  C883     1.0000 0.77821  0.55477  0.98785  Biso   1.000  C
  H1041    1.0000 0.75580  0.56610  0.99150  Biso   1.000  H
  C884     1.0000 0.80852  0.57810  0.98854  Biso   1.000  C
  C885     1.0000 0.84188  0.55883  0.98218  Biso   1.000  C
  H1042    1.0000 0.85850  0.56300  0.99860  Biso   1.000  H
  H1043    1.0000 0.85190  0.57300  0.96630  Biso   1.000  H
  C886     1.0000 0.84391  0.51973  0.97548  Biso   1.000  C
  C887     1.0000 0.80866  0.62068  0.99837  Biso   1.000  C
  C888     1.0000 0.76973  0.63350  0.00445  Biso   1.000  C
  H1044    1.0000 0.76130  0.61930  0.02060  Biso   1.000  H
  H1045    1.0000 0.75400  0.62830  0.98790  Biso   1.000  H
  H1046    1.0000 0.76950  0.66110  0.00860  Biso   1.000  H
  C889     1.0000 0.83157  0.62580  0.02660  Biso   1.000  C
  H1047    1.0000 0.82060  0.61120  0.04160  Biso   1.000  H
  H1048    1.0000 0.83250  0.65310  0.03170  Biso   1.000  H
  H1049    1.0000 0.85590  0.61630  0.02410  Biso   1.000  H
  C890     1.0000 0.82320  0.64250  0.97284  Biso   1.000  C
  H1050    1.0000 0.82430  0.67010  0.97700  Biso   1.000  H
  H1051    1.0000 0.80730  0.63820  0.95630  Biso   1.000  H
  H1052    1.0000 0.84720  0.63310  0.96910  Biso   1.000  H
  C891     1.0000 0.80551  0.62180  0.99513  Biso   1.000  C
  C892     1.0000 0.78920  0.62450  0.02504  Biso   1.000  C
  H1053    1.0000 0.80690  0.61560  0.03940  Biso   1.000  H
  H1054    1.0000 0.76780  0.60830  0.02550  Biso   1.000  H
  H1055    1.0000 0.78270  0.65120  0.02890  Biso   1.000  H
  C893     1.0000 0.77800  0.63560  0.97188  Biso   1.000  C
  H1056    1.0000 0.77400  0.66330  0.97400  Biso   1.000  H
  H1057    1.0000 0.75540  0.62190  0.97370  Biso   1.000  H
  H1058    1.0000 0.78740  0.63050  0.95330  Biso   1.000  H
  C894     1.0000 0.84164  0.64420  0.99450  Biso   1.000  C
  H1059    1.0000 0.85810  0.63450  0.00950  Biso   1.000  H
  H1060    1.0000 0.83730  0.67160  0.99750  Biso   1.000  H
  H1061    1.0000 0.85230  0.64040  0.97620  Biso   1.000  H
  C895     1.0000 0.89881  0.44160  0.00471  Biso   1.000  C
  C896     1.0000 0.90527  0.48080  0.99745  Biso   1.000  C
  C897     1.0000 0.92874  0.50366  0.01510  Biso   1.000  C
  H1062    1.0000 0.93300  0.52970  0.01020  Biso   1.000  H
  C898     1.0000 0.94599  0.48793  0.04007  Biso   1.000  C
  C899     1.0000 0.94011  0.44991  0.04606  Biso   1.000  C
  H1063    1.0000 0.95210  0.43890  0.06210  Biso   1.000  H
  C900     1.0000 0.91601  0.42583  0.02861  Biso   1.000  C
  C901     1.0000 0.97200  0.51142  0.06092  Biso   1.000  C
  C902     1.0000 0.98000  0.48950  0.08909  Biso   1.000  C
  H1064    1.0000 0.99160  0.46500  0.08520  Biso   1.000  H
  H1065    1.0000 0.95760  0.48480  0.09840  Biso   1.000  H
  H1066    1.0000 0.99600  0.50510  0.10140  Biso   1.000  H
  C903     1.0000 0.00764  0.51970  0.04585  Biso   1.000  C
  H1067    1.0000 0.01970  0.49530  0.04210  Biso   1.000  H
  H1068    1.0000 0.02330  0.53570  0.05800  Biso   1.000  H
  H1069    1.0000 0.00220  0.53310  0.02810  Biso   1.000  H
  C904     1.0000 0.95360  0.55056  0.06660  Biso   1.000  C
  H1070    1.0000 0.94870  0.56390  0.04870  Biso   1.000  H
  H1071    1.0000 0.96940  0.56640  0.07880  Biso   1.000  H
  H1072    1.0000 0.93110  0.54610  0.07580  Biso   1.000  H
  C905     1.0000 0.97837  0.51096  0.05397  Biso   1.000  C
  C906     1.0000 0.01231  0.48450  0.05780  Biso   1.000  C
  H1073    1.0000 0.02150  0.47850  0.03930  Biso   1.000  H
  H1074    1.0000 0.00580  0.46060  0.06720  Biso   1.000  H
  H1075    1.0000 0.03080  0.49790  0.06920  Biso   1.000  H
  C907     1.0000 0.98870  0.54879  0.03835  Biso   1.000  C
  H1076    1.0000 0.99720  0.54240  0.01970  Biso   1.000  H
  H1077    1.0000 0.00770  0.56210  0.04930  Biso   1.000  H
  H1078    1.0000 0.96770  0.56550  0.03630  Biso   1.000  H
  C908     1.0000 0.96470  0.51980  0.08365  Biso   1.000  C
  H1079    1.0000 0.95850  0.49570  0.09290  Biso   1.000  H
  H1080    1.0000 0.94360  0.53630  0.08190  Biso   1.000  H
  H1081    1.0000 0.98350  0.53290  0.09490  Biso   1.000  H
  C909     1.0000 0.83672  0.36707  0.04411  Biso   1.000  C
  C910     1.0000 0.87103  0.37032  0.05722  Biso   1.000  C
  C911     1.0000 0.87579  0.36920  0.08691  Biso   1.000  C
  H1082    1.0000 0.89930  0.37140  0.09510  Biso   1.000  H
  C912     1.0000 0.84661  0.36490  0.10504  Biso   1.000  C
  C913     1.0000 0.81203  0.35846  0.09181  Biso   1.000  C
  H1083    1.0000 0.79210  0.35350  0.10300  Biso   1.000  H
  C914     1.0000 0.80736  0.35945  0.06225  Biso   1.000  C
  C915     1.0000 0.85020  0.36483  0.13840  Biso   1.000  C
  C916     1.0000 0.88884  0.37420  0.14980  Biso   1.000  C
  H1084    1.0000 0.89520  0.40040  0.14430  Biso   1.000  H
  H1085    1.0000 0.90570  0.35600  0.14190  Biso   1.000  H
  H1086    1.0000 0.89000  0.37210  0.17040  Biso   1.000  H
  C917     1.0000 0.82324  0.39509  0.14967  Biso   1.000  C
  H1087    1.0000 0.79900  0.38900  0.14240  Biso   1.000  H
  H1088    1.0000 0.82990  0.42080  0.14340  Biso   1.000  H
  H1089    1.0000 0.82400  0.39440  0.17030  Biso   1.000  H
  C918     1.0000 0.84150  0.32289  0.14770  Biso   1.000  C
  H1090    1.0000 0.81730  0.31610  0.14080  Biso   1.000  H
  H1091    1.0000 0.84300  0.32120  0.16830  Biso   1.000  H
  H1092    1.0000 0.85870  0.30510  0.13980  Biso   1.000  H
  C919     1.0000 0.85381  0.36071  0.13795  Biso   1.000  C
  C920     1.0000 0.81839  0.35840  0.15426  Biso   1.000  C
  H1093    1.0000 0.80400  0.38150  0.15040  Biso   1.000  H
  H1094    1.0000 0.82420  0.35670  0.17450  Biso   1.000  H
  H1095    1.0000 0.80480  0.33560  0.14810  Biso   1.000  H
  C921     1.0000 0.87710  0.32419  0.14390  Biso   1.000  C
  H1096    1.0000 0.86330  0.30120  0.13830  Biso   1.000  H
  H1097    1.0000 0.88380  0.32280  0.16400  Biso   1.000  H
  H1098    1.0000 0.89870  0.32550  0.13300  Biso   1.000  H
  C922     1.0000 0.87410  0.39858  0.14630  Biso   1.000  C
  H1099    1.0000 0.85860  0.42070  0.14230  Biso   1.000  H
  H1100    1.0000 0.89580  0.40070  0.13550  Biso   1.000  H
  H1101    1.0000 0.88080  0.39800  0.16650  Biso   1.000  H
  C923     1.0000 0.75042  0.42010  0.01567  Biso   1.000  C
  C924     1.0000 0.74934  0.40214  0.04215  Biso   1.000  C
  C925     1.0000 0.73780  0.42300  0.06626  Biso   1.000  C
  H1102    1.0000 0.73740  0.41020  0.08390  Biso   1.000  H
  C926     1.0000 0.72714  0.46130  0.06463  Biso   1.000  C
  C927     1.0000 0.72872  0.47901  0.03871  Biso   1.000  C
  H1103    1.0000 0.72190  0.50520  0.03720  Biso   1.000  H
  C928     1.0000 0.74020  0.45949  0.01391  Biso   1.000  C
  C929     1.0000 0.71387  0.48268  0.09080  Biso   1.000  C
  C930     1.0000 0.67258  0.47520  0.08930  Biso   1.000  C
  H1104    1.0000 0.66210  0.48590  0.07180  Biso   1.000  H
  H1105    1.0000 0.66170  0.48760  0.10530  Biso   1.000  H
  H1106    1.0000 0.66810  0.44750  0.08990  Biso   1.000  H
  C931     1.0000 0.71950  0.52681  0.08890  Biso   1.000  C
  H1107    1.0000 0.71200  0.53570  0.07000  Biso   1.000  H
  H1108    1.0000 0.74490  0.53280  0.09250  Biso   1.000  H
  H1109    1.0000 0.70520  0.53970  0.10280  Biso   1.000  H
  C932     1.0000 0.72440  0.46400  0.11933  Biso   1.000  C
  H1110    1.0000 0.71500  0.47940  0.13460  Biso   1.000  H
  H1111    1.0000 0.75060  0.46280  0.12160  Biso   1.000  H
  H1112    1.0000 0.71450  0.43800  0.12000  Biso   1.000  H
  C933     1.0000 0.69210  0.51974  0.08500  Biso   1.000  C
  H1113    1.0000 0.68510  0.53090  0.10280  Biso   1.000  H
  H1114    1.0000 0.67060  0.51360  0.07330  Biso   1.000  H
  H1115    1.0000 0.70670  0.53820  0.07500  Biso   1.000  H
  C934     1.0000 0.74848  0.49110  0.10895  Biso   1.000  C
  H1116    1.0000 0.76170  0.46710  0.11230  Biso   1.000  H
  H1117    1.0000 0.74210  0.50220  0.12700  Biso   1.000  H
  H1118    1.0000 0.76350  0.50930  0.09900  Biso   1.000  H
  C935     1.0000 0.69090  0.45570  0.10902  Biso   1.000  C
  H1119    1.0000 0.70410  0.43180  0.11310  Biso   1.000  H
  H1120    1.0000 0.66830  0.44960  0.09870  Biso   1.000  H
  H1121    1.0000 0.68580  0.46850  0.12670  Biso   1.000  H
  C936     1.0000 0.62574  0.02691  0.95516  Biso   1.000  C
  C937     1.0000 0.58833  0.01909  0.95649  Biso   1.000  C
  C938     1.0000 0.57482  0.00358  0.98152  Biso   1.000  C
  H1122    1.0000 0.55000  0.99840  0.98210  Biso   1.000  H
  C939     1.0000 0.59690  0.99550  0.00560  Biso   1.000  C
  C940     1.0000 0.63419  0.00343  0.00376  Biso   1.000  C
  H1123    1.0000 0.64990  0.99840  0.01950  Biso   1.000  H
  C941     1.0000 0.64810  0.01830  0.97933  Biso   1.000  C
  C942     1.0000 0.58124  0.97869  0.03343  Biso   1.000  C
  C943     1.0000 0.54012  0.98450  0.03480  Biso   1.000  C
  H1124    1.0000 0.53430  0.01160  0.03160  Biso   1.000  H
  H1125    1.0000 0.53240  0.97670  0.05340  Biso   1.000  H
  H1126    1.0000 0.52780  0.96880  0.02030  Biso   1.000  H
  C944     1.0000 0.59480  0.93672  0.03816  Biso   1.000  C
  H1127    1.0000 0.62090  0.93600  0.03690  Biso   1.000  H
  H1128    1.0000 0.58380  0.91990  0.02370  Biso   1.000  H
  H1129    1.0000 0.58830  0.92790  0.05680  Biso   1.000  H
  C945     1.0000 0.59600  0.00420  0.05845  Biso   1.000  C
  H1130    1.0000 0.62220  0.00270  0.05960  Biso   1.000  H
  H1131    1.0000 0.58650  0.99490  0.07610  Biso   1.000  H
  H1132    1.0000 0.58870  0.03090  0.05530  Biso   1.000  H
  C946     1.0000 0.60895  0.97350  0.05879  Biso   1.000  C
  H1133    1.0000 0.62800  0.95600  0.05340  Biso   1.000  H
  H1134    1.0000 0.59690  0.96270  0.07490  Biso   1.000  H
  H1135    1.0000 0.61930  0.99850  0.06400  Biso   1.000  H
  C947     1.0000 0.56480  0.93732  0.02730  Biso   1.000  C
  H1136    1.0000 0.54720  0.93890  0.01150  Biso   1.000  H
  H1137    1.0000 0.55310  0.92800  0.04400  Biso   1.000  H
  H1138    1.0000 0.58390  0.91950  0.02250  Biso   1.000  H
  C948     1.0000 0.55035  0.00660  0.04150  Biso   1.000  C
  H1139    1.0000 0.53330  0.00950  0.02540  Biso   1.000  H
  H1140    1.0000 0.56040  0.03180  0.04660  Biso   1.000  H
  H1141    1.0000 0.53800  0.99600  0.05750  Biso   1.000  H
  C949     1.0000 0.72236  0.00084  0.92869  Biso   1.000  C
  C950     1.0000 0.71659  0.99487  0.95832  Biso   1.000  C
  C951     1.0000 0.72850  0.96181  0.97289  Biso   1.000  C
  H1142    1.0000 0.72390  0.95950  0.99230  Biso   1.000  H
  C952     1.0000 0.74637  0.93299  0.96032  Biso   1.000  C
  C953     1.0000 0.75121  0.93719  0.93062  Biso   1.000  C
  H1143    1.0000 0.76280  0.91710  0.92100  Biso   1.000  H
  C954     1.0000 0.73971  0.96913  0.91536  Biso   1.000  C
  C955     1.0000 0.76285  0.89677  0.97526  Biso   1.000  C
  C956     1.0000 0.74730  0.85907  0.96199  Biso   1.000  C
  H1144    1.0000 0.75160  0.85870  0.94180  Biso   1.000  H
  H1145    1.0000 0.72150  0.85790  0.96470  Biso   1.000  H
  H1146    1.0000 0.75900  0.83690  0.97110  Biso   1.000  H
  C957     1.0000 0.80421  0.89430  0.97375  Biso   1.000  C
  H1147    1.0000 0.81070  0.89320  0.95400  Biso   1.000  H
  H1148    1.0000 0.81290  0.87120  0.98360  Biso   1.000  H
  H1149    1.0000 0.81510  0.91710  0.98270  Biso   1.000  H
  C958     1.0000 0.75660  0.89850  0.00721  Biso   1.000  C
  H1150    1.0000 0.73090  0.90010  0.01020  Biso   1.000  H
  H1151    1.0000 0.76850  0.92120  0.01540  Biso   1.000  H
  H1152    1.0000 0.76630  0.87530  0.01630  Biso   1.000  H
  C959     1.0000 0.78770  0.87110  0.95699  Biso   1.000  C
  H1153    1.0000 0.80750  0.88670  0.95040  Biso   1.000  H
  H1154    1.0000 0.77370  0.86100  0.94070  Biso   1.000  H
  H1155    1.0000 0.79720  0.84970  0.96840  Biso   1.000  H
  C960     1.0000 0.73119  0.87260  0.98590  Biso   1.000  C
  H1156    1.0000 0.74050  0.84950  0.99540  Biso   1.000  H
  H1157    1.0000 0.71540  0.86510  0.96980  Biso   1.000  H
  H1158    1.0000 0.71770  0.88790  0.99910  Biso   1.000  H
  C961     1.0000 0.78610  0.91260  0.00085  Biso   1.000  C
  H1159    1.0000 0.80590  0.92780  0.99390  Biso   1.000  H
  H1160    1.0000 0.79560  0.89110  0.01210  Biso   1.000  H
  H1161    1.0000 0.77120  0.92890  0.01250  Biso   1.000  H
  C962     1.0000 0.67693  0.97163  0.85266  Biso   1.000  C
  C963     1.0000 0.70673  0.94785  0.86270  Biso   1.000  C
  C964     1.0000 0.70597  0.90738  0.86173  Biso   1.000  C
  H1162    1.0000 0.72640  0.89340  0.86830  Biso   1.000  H
  C965     1.0000 0.67480  0.88666  0.85093  Biso   1.000  C
  C966     1.0000 0.64553  0.90860  0.84106  Biso   1.000  C
  H1163    1.0000 0.62460  0.89580  0.83400  Biso   1.000  H
  C967     1.0000 0.64609  0.94973  0.84131  Biso   1.000  C
  C968     1.0000 0.67360  0.84173  0.85047  Biso   1.000  C
  C969     1.0000 0.67320  0.83470  0.81792  Biso   1.000  C
  H1164    1.0000 0.65310  0.84880  0.80890  Biso   1.000  H
  H1165    1.0000 0.67040  0.80720  0.81410  Biso   1.000  H
  H1166    1.0000 0.69570  0.84380  0.81050  Biso   1.000  H
  C970     1.0000 0.63643  0.82940  0.86130  Biso   1.000  C
  H1167    1.0000 0.61730  0.84150  0.84970  Biso   1.000  H
  H1168    1.0000 0.63460  0.83750  0.88090  Biso   1.000  H
  H1169    1.0000 0.63410  0.80140  0.86010  Biso   1.000  H
  C971     1.0000 0.70330  0.82210  0.86940  Biso   1.000  C
  H1170    1.0000 0.72690  0.82950  0.86290  Biso   1.000  H
  H1171    1.0000 0.70070  0.79410  0.86810  Biso   1.000  H
  H1172    1.0000 0.70120  0.83030  0.88890  Biso   1.000  H
  C972     1.0000 0.63692  0.82300  0.84130  Biso   1.000  C
  H1173    1.0000 0.63020  0.83090  0.82200  Biso   1.000  H
  H1174    1.0000 0.61850  0.83150  0.85400  Biso   1.000  H
  H1175    1.0000 0.63910  0.79500  0.84210  Biso   1.000  H
  C973     1.0000 0.70177  0.82660  0.82955  Biso   1.000  C
  H1176    1.0000 0.69590  0.83660  0.81070  Biso   1.000  H
  H1177    1.0000 0.70120  0.79850  0.82910  Biso   1.000  H
  H1178    1.0000 0.72570  0.83540  0.83580  Biso   1.000  H
  C974     1.0000 0.68100  0.82710  0.88103  Biso   1.000  C
  H1179    1.0000 0.68040  0.79900  0.88120  Biso   1.000  H
  H1180    1.0000 0.66260  0.83720  0.89320  Biso   1.000  H
  H1181    1.0000 0.70460  0.83600  0.88790  Biso   1.000  H
  C975     1.0000 0.58261  0.99700  0.87927  Biso   1.000  C
  C976     1.0000 0.57759  0.96916  0.85737  Biso   1.000  C
  C977     1.0000 0.54912  0.94292  0.85687  Biso   1.000  C
  H1182    1.0000 0.54640  0.92570  0.84150  Biso   1.000  H
  C978     1.0000 0.52432  0.94112  0.87839  Biso   1.000  C
  C979     1.0000 0.52913  0.96876  0.90029  Biso   1.000  C
  H1183    1.0000 0.51300  0.96880  0.91510  Biso   1.000  H
  C980     1.0000 0.55706  0.99625  0.90076  Biso   1.000  C
  C981     1.0000 0.49439  0.91019  0.87796  Biso   1.000  C
  C982     1.0000 0.46827  0.91380  0.90199  Biso   1.000  C
  H1184    1.0000 0.48120  0.90940  0.92000  Biso   1.000  H
  H1185    1.0000 0.44920  0.89460  0.89940  Biso   1.000  H
  H1186    1.0000 0.45780  0.93960  0.90180  Biso   1.000  H
  C983     1.0000 0.51070  0.86936  0.87690  Biso   1.000  C
  H1187    1.0000 0.52530  0.86470  0.89420  Biso   1.000  H
  H1188    1.0000 0.52580  0.86730  0.86070  Biso   1.000  H
  H1189    1.0000 0.49150  0.85030  0.87530  Biso   1.000  H
  C984     1.0000 0.47160  0.91740  0.85081  Biso   1.000  C
  H1190    1.0000 0.48670  0.91560  0.83460  Biso   1.000  H
  H1191    1.0000 0.46100  0.94320  0.85150  Biso   1.000  H
  H1192    1.0000 0.45250  0.89820  0.84910  Biso   1.000  H
  C985     1.0000 0.49247  0.91176  0.87573  Biso   1.000  C
  C986     1.0000 0.49770  0.88610  0.90260  Biso   1.000  C
  H1193    1.0000 0.51950  0.87070  0.90120  Biso   1.000  H
  H1194    1.0000 0.47710  0.86890  0.90410  Biso   1.000  H
  H1195    1.0000 0.49980  0.90250  0.91930  Biso   1.000  H
  C987     1.0000 0.45797  0.93650  0.87730  Biso   1.000  C
  H1196    1.0000 0.45510  0.95240  0.86040  Biso   1.000  H
  H1197    1.0000 0.45990  0.95310  0.89390  Biso   1.000  H
  H1198    1.0000 0.43720  0.91960  0.87870  Biso   1.000  H
  C988     1.0000 0.48960  0.88600  0.84876  Biso   1.000  C
  H1199    1.0000 0.51120  0.87030  0.84770  Biso   1.000  H
  H1200    1.0000 0.48700  0.90230  0.83200  Biso   1.000  H
  H1201    1.0000 0.46870  0.86910  0.84970  Biso   1.000  H
  C989     1.0000 0.49817  0.07214  0.62367  Biso   1.000  C
  C990     1.0000 0.47954  0.05522  0.64569  Biso   1.000  C
  C991     1.0000 0.46792  0.01790  0.64651  Biso   1.000  C
  H1202    1.0000 0.45540  0.00920  0.66230  Biso   1.000  H
  C992     1.0000 0.47431  0.99191  0.62401  Biso   1.000  C
  C993     1.0000 0.49408  0.00836  0.60126  Biso   1.000  C
  H1203    1.0000 0.49980  0.99230  0.58590  Biso   1.000  H
  C994     1.0000 0.50499  0.04677  0.60097  Biso   1.000  C
  C995     1.0000 0.46010  0.94900  0.62333  Biso   1.000  C
  C996     1.0000 0.47250  0.92390  0.59847  Biso   1.000  C
  H1204    1.0000 0.46250  0.93440  0.58070  Biso   1.000  H
  H1205    1.0000 0.46420  0.89750  0.60080  Biso   1.000  H
  H1206    1.0000 0.49870  0.92420  0.59830  Biso   1.000  H
  C997     1.0000 0.47800  0.92890  0.64949  Biso   1.000  C
  H1207    1.0000 0.47170  0.94270  0.66660  Biso   1.000  H
  H1208    1.0000 0.50400  0.92900  0.64790  Biso   1.000  H
  H1209    1.0000 0.46950  0.90230  0.65050  Biso   1.000  H
  C998     1.0000 0.41842  0.94820  0.62490  Biso   1.000  C
  H1210    1.0000 0.40750  0.96090  0.60830  Biso   1.000  H
  H1211    1.0000 0.41140  0.96160  0.64190  Biso   1.000  H
  H1212    1.0000 0.41020  0.92150  0.62550  Biso   1.000  H
  C999     1.0000 0.45993  0.94934  0.62180  Biso   1.000  C
  C1000    1.0000 0.49277  0.92240  0.62000  Biso   1.000  C
  H1213    1.0000 0.50640  0.92940  0.60370  Biso   1.000  H
  H1214    1.0000 0.48460  0.89570  0.61810  Biso   1.000  H
  H1215    1.0000 0.50800  0.92500  0.63720  Biso   1.000  H
  C1001    1.0000 0.43510  0.94400  0.59492  Biso   1.000  C
  H1216    1.0000 0.41430  0.96100  0.59600  Biso   1.000  H
  H1217    1.0000 0.42700  0.91720  0.59370  Biso   1.000  H
  H1218    1.0000 0.44840  0.95040  0.57820  Biso   1.000  H
  C1002    1.0000 0.43900  0.93720  0.64796  Biso   1.000  C
  H1219    1.0000 0.41810  0.95380  0.64960  Biso   1.000  H
  H1220    1.0000 0.45460  0.93970  0.66490  Biso   1.000  H
  H1221    1.0000 0.43120  0.91040  0.64580  Biso   1.000  H
  C1003    1.0000 0.49131  0.12667  0.55117  Biso   1.000  C
  C1004    1.0000 0.49733  0.08728  0.54859  Biso   1.000  C
  C1005    1.0000 0.47876  0.06560  0.52734  Biso   1.000  C
  H1222    1.0000 0.48350  0.03890  0.52600  Biso   1.000  H
  C1006    1.0000 0.45367  0.08216  0.50830  Biso   1.000  C
  C1007    1.0000 0.44879  0.12217  0.51049  Biso   1.000  C
  H1223    1.0000 0.43260  0.13450  0.49750  Biso   1.000  H
  C1008    1.0000 0.46711  0.14494  0.53127  Biso   1.000  C
  C1009    1.0000 0.43359  0.05671  0.48595  Biso   1.000  C
  C1010    1.0000 0.45519  0.05960  0.45903  Biso   1.000  C
  H1224    1.0000 0.47940  0.04980  0.46290  Biso   1.000  H
  H1225    1.0000 0.45640  0.08650  0.45310  Biso   1.000  H
  H1226    1.0000 0.44340  0.04430  0.44400  Biso   1.000  H
  C1011    1.0000 0.39492  0.07200  0.48079  Biso   1.000  C
  H1227    1.0000 0.38190  0.06980  0.49820  Biso   1.000  H
  H1228    1.0000 0.38270  0.05680  0.46590  Biso   1.000  H
  H1229    1.0000 0.39570  0.09900  0.47500  Biso   1.000  H
  C1012    1.0000 0.43320  0.01248  0.49432  Biso   1.000  C
  H1230    1.0000 0.41980  0.00910  0.51140  Biso   1.000  H
  H1231    1.0000 0.45790  0.00350  0.49780  Biso   1.000  H
  H1232    1.0000 0.42190  0.99760  0.47890  Biso   1.000  H
  C1013    1.0000 0.45520  0.02560  0.47120  Biso   1.000  C
  H1233    1.0000 0.46760  0.00930  0.48530  Biso   1.000  H
  H1234    1.0000 0.47280  0.03780  0.45940  Biso   1.000  H
  H1235    1.0000 0.43900  0.00970  0.45930  Biso   1.000  H
  C1014    1.0000 0.41400  0.08240  0.46383  Biso   1.000  C
  H1236    1.0000 0.40030  0.10220  0.47340  Biso   1.000  H
  H1237    1.0000 0.39770  0.06670  0.45200  Biso   1.000  H
  H1238    1.0000 0.43160  0.09480  0.45210  Biso   1.000  H
  C1015    1.0000 0.39941  0.04240  0.49990  Biso   1.000  C
  H1239    1.0000 0.38750  0.06420  0.50870  Biso   1.000  H
  H1240    1.0000 0.40590  0.02320  0.51420  Biso   1.000  H
  H1241    1.0000 0.38310  0.03090  0.48560  Biso   1.000  H
  C1016    1.0000 0.42672  0.20512  0.58162  Biso   1.000  C
  C1017    1.0000 0.42325  0.20389  0.55204  Biso   1.000  C
  C1018    1.0000 0.38964  0.21077  0.53815  Biso   1.000  C
  H1242    1.0000 0.38790  0.21040  0.51820  Biso   1.000  H
  C1019    1.0000 0.35878  0.21810  0.55308  Biso   1.000  C
  C1020    1.0000 0.36228  0.21967  0.58262  Biso   1.000  C
  H1243    1.0000 0.34190  0.22500  0.59310  Biso   1.000  H
  C1021    1.0000 0.39578  0.21341  0.59696  Biso   1.000  C
  C1022    1.0000 0.32220  0.22629  0.53836  Biso   1.000  C
  C1023    1.0000 0.32317  0.22570  0.50614  Biso   1.000  C
  H1244    1.0000 0.34030  0.24490  0.50000  Biso   1.000  H
  H1245    1.0000 0.29930  0.23160  0.49800  Biso   1.000  H
  H1246    1.0000 0.33050  0.20010  0.49990  Biso   1.000  H
  C1024    1.0000 0.29483  0.19548  0.54518  Biso   1.000  C
  H1247    1.0000 0.30350  0.17030  0.53920  Biso   1.000  H
  H1248    1.0000 0.27200  0.20120  0.53520  Biso   1.000  H
  H1249    1.0000 0.29150  0.19510  0.56550  Biso   1.000  H
  C1025    1.0000 0.30645  0.26427  0.54842  Biso   1.000  C
  H1250    1.0000 0.32290  0.28530  0.54460  Biso   1.000  H
  H1251    1.0000 0.30290  0.26280  0.56870  Biso   1.000  H
  H1252    1.0000 0.28340  0.26890  0.53840  Biso   1.000  H
  C1026    1.0000 0.43245  0.14986  0.65532  Biso   1.000  C
  C1027    1.0000 0.39962  0.16797  0.64729  Biso   1.000  C
  C1028    1.0000 0.36676  0.14887  0.64999  Biso   1.000  C
  H1253    1.0000 0.34510  0.16180  0.64490  Biso   1.000  H
  C1029    1.0000 0.36562  0.11072  0.66012  Biso   1.000  C
  C1030    1.0000 0.39783  0.09363  0.66820  Biso   1.000  C
  H1254    1.0000 0.39750  0.06850  0.67590  Biso   1.000  H
  C1031    1.0000 0.43092  0.11173  0.66547  Biso   1.000  C
  C1032    1.0000 0.32938  0.08926  0.66394  Biso   1.000  C
  C1033    1.0000 0.29644  0.11050  0.65034  Biso   1.000  C
  H1255    1.0000 0.27470  0.09560  0.65350  Biso   1.000  H
  H1256    1.0000 0.29950  0.11330  0.63010  Biso   1.000  H
  H1257    1.0000 0.29430  0.13600  0.65890  Biso   1.000  H
  C1034    1.0000 0.33300  0.04703  0.65225  Biso   1.000  C
  H1258    1.0000 0.35400  0.03470  0.66130  Biso   1.000  H
  H1259    1.0000 0.33570  0.04790  0.63190  Biso   1.000  H
  H1260    1.0000 0.31150  0.03230  0.65630  Biso   1.000  H
  C1035    1.0000 0.32510  0.08650  0.69658  Biso   1.000  C
  H1261    1.0000 0.34580  0.07320  0.70520  Biso   1.000  H
  H1262    1.0000 0.30330  0.07230  0.70040  Biso   1.000  H
  H1263    1.0000 0.32360  0.11240  0.70450  Biso   1.000  H
  C1036    1.0000 0.30450  0.11620  0.68010  Biso   1.000  C
  H1264    1.0000 0.30240  0.14100  0.67040  Biso   1.000  H
  H1265    1.0000 0.31450  0.12020  0.69930  Biso   1.000  H
  H1266    1.0000 0.28080  0.10450  0.68100  Biso   1.000  H
  C1037    1.0000 0.33290  0.05007  0.67910  Biso   1.000  C
  H1267    1.0000 0.34870  0.03330  0.66870  Biso   1.000  H
  H1268    1.0000 0.30930  0.03820  0.67990  Biso   1.000  H
  H1269    1.0000 0.34300  0.05390  0.69820  Biso   1.000  H
  C1038    1.0000 0.31260  0.08590  0.63327  Biso   1.000  C
  H1270    1.0000 0.31100  0.11150  0.62470  Biso   1.000  H
  H1271    1.0000 0.28870  0.07470  0.63390  Biso   1.000  H
  H1272    1.0000 0.32780  0.06940  0.62200  Biso   1.000  H
  C1039    1.0000 0.56760  0.45849  0.86928  Biso   1.000  C
  C1040    1.0000 0.60196  0.45332  0.88159  Biso   1.000  C
  H1273    1.0000 0.62140  0.46830  0.87550  Biso   1.000  H
  C1041    1.0000 0.60756  0.42565  0.90316  Biso   1.000  C
  C1042    1.0000 0.57796  0.40491  0.91334  Biso   1.000  C
  H1274    1.0000 0.58130  0.38740  0.92850  Biso   1.000  H
  C1043    1.0000 0.54362  0.41054  0.90073  Biso   1.000  C
  C1044    1.0000 0.53876  0.43660  0.87858  Biso   1.000  C
  H1275    1.0000 0.51570  0.43960  0.86970  Biso   1.000  H
  C1045    1.0000 0.56126  0.48695  0.84405  Biso   1.000  C
  C1046    1.0000 0.51248  0.38417  0.90953  Biso   1.000  C
  C1047    1.0000 0.68865  0.41368  0.95482  Biso   1.000  C
  H1276    1.0000 0.69320  0.41300  0.97460  Biso   1.000  H
  C1048    1.0000 0.65262  0.41652  0.94488  Biso   1.000  C
  H1277    1.0000 0.63380  0.41730  0.95770  Biso   1.000  H
  C1049    1.0000 0.64501  0.41820  0.91532  Biso   1.000  C
  C1050    1.0000 0.67435  0.41254  0.89780  Biso   1.000  C
  H1278    1.0000 0.67030  0.41090  0.87800  Biso   1.000  H
  C1051    1.0000 0.71020  0.40925  0.90971  Biso   1.000  C
  H1279    1.0000 0.72930  0.40520  0.89760  Biso   1.000  H
  C1052    1.0000 0.58182  0.23523  0.94663  Biso   1.000  C
  C1053    1.0000 0.61091  0.25972  0.95471  Biso   1.000  C
  H1280    1.0000 0.60660  0.28630  0.95750  Biso   1.000  H
  C1054    1.0000 0.64680  0.24516  0.95880  Biso   1.000  C
  C1055    1.0000 0.65124  0.20529  0.95596  Biso   1.000  C
  H1281    1.0000 0.67440  0.19500  0.95980  Biso   1.000  H
  C1056    1.0000 0.62352  0.17929  0.94769  Biso   1.000  C
  C1057    1.0000 0.58865  0.19547  0.94295  Biso   1.000  C
  H1282    1.0000 0.56940  0.17910  0.93710  Biso   1.000  H
  C1058    1.0000 0.54292  0.25103  0.94096  Biso   1.000  C
  C1059    1.0000 0.73942  0.29077  0.96085  Biso   1.000  C
  H1283    1.0000 0.76140  0.28700  0.95200  Biso   1.000  H
  C1060    1.0000 0.71124  0.26664  0.95327  Biso   1.000  C
  H1284    1.0000 0.71470  0.24700  0.93980  Biso   1.000  H
  C1061    1.0000 0.67704  0.27059  0.96530  Biso   1.000  C
  C1062    1.0000 0.67491  0.30273  0.98249  Biso   1.000  C
  H1285    1.0000 0.65250  0.30950  0.98960  Biso   1.000  H
  C1063    1.0000 0.70566  0.32610  0.98982  Biso   1.000  C
  H1286    1.0000 0.70280  0.34720  0.00210  Biso   1.000  H
  C1064    1.0000 0.49691  0.17220  0.83925  Biso   1.000  C
  C1065    1.0000 0.52019  0.14504  0.85139  Biso   1.000  C
  H1287    1.0000 0.52110  0.14160  0.87120  Biso   1.000  H
  C1066    1.0000 0.54262  0.12244  0.83462  Biso   1.000  C
  C1067    1.0000 0.54258  0.12916  0.80552  Biso   1.000  C
  H1288    1.0000 0.55770  0.11430  0.79430  Biso   1.000  H
  C1068    1.0000 0.52076  0.15716  0.79289  Biso   1.000  C
  C1069    1.0000 0.49636  0.17815  0.80956  Biso   1.000  C
  H1289    1.0000 0.48000  0.19580  0.80090  Biso   1.000  H
  C1070    1.0000 0.47452  0.19734  0.85811  Biso   1.000  C
  C1071    1.0000 0.56766  0.09408  0.84897  Biso   1.000  C
  C1072    1.0000 0.48846  0.16668  0.71583  Biso   1.000  C
  H1290    1.0000 0.46630  0.16900  0.70550  Biso   1.000  H
  C1073    1.0000 0.48806  0.16703  0.74556  Biso   1.000  C
  H1291    1.0000 0.46630  0.17040  0.75480  Biso   1.000  H
  C1074    1.0000 0.51995  0.16239  0.76104  Biso   1.000  C
  C1075    1.0000 0.55171  0.16133  0.74671  Biso   1.000  C
  H1292    1.0000 0.57430  0.16060  0.75650  Biso   1.000  H
  C1076    1.0000 0.54895  0.16143  0.71674  Biso   1.000  C
  H1293    1.0000 0.57050  0.16020  0.70700  Biso   1.000  H
  C1077    1.0000 0.45731  0.34490  0.79568  Biso   1.000  C
  C1078    1.0000 0.46690  0.38331  0.79204  Biso   1.000  C
  H1294    1.0000 0.46600  0.40060  0.80740  Biso   1.000  H
  C1079    1.0000 0.47790  0.39673  0.76600  Biso   1.000  C
  C1080    1.0000 0.47966  0.37182  0.74317  Biso   1.000  C
  H1295    1.0000 0.48820  0.38090  0.72590  Biso   1.000  H
  C1081    1.0000 0.46884  0.33323  0.74558  Biso   1.000  C
  C1082    1.0000 0.45791  0.32006  0.77216  Biso   1.000  C
  H1296    1.0000 0.45090  0.29400  0.77420  Biso   1.000  H
  C1083    1.0000 0.44623  0.33119  0.82508  Biso   1.000  C
  C1084    1.0000 0.48861  0.43974  0.76481  Biso   1.000  C
  C1085    1.0000 0.49738  0.28189  0.67834  Biso   1.000  C
  H1297    1.0000 0.51520  0.28470  0.66490  Biso   1.000  H
  C1086    1.0000 0.49748  0.30739  0.70099  Biso   1.000  C
  H1298    1.0000 0.51570  0.32630  0.70270  Biso   1.000  H
  C1087    1.0000 0.47115  0.30569  0.72131  Biso   1.000  C
  C1088    1.0000 0.44598  0.27557  0.71753  Biso   1.000  C
  H1299    1.0000 0.42800  0.27220  0.73080  Biso   1.000  H
  C1089    1.0000 0.44736  0.25003  0.69390  Biso   1.000  C
  H1300    1.0000 0.42980  0.23050  0.69180  Biso   1.000  H
  C1090    1.0000 0.80001  0.47140  0.87160  Biso   1.000  C
  C1091    1.0000 0.82860  0.48018  0.85464  Biso   1.000  C
  H1301    1.0000 0.85220  0.47670  0.86230  Biso   1.000  H
  C1092    1.0000 0.82425  0.49372  0.82716  Biso   1.000  C
  C1093    1.0000 0.78911  0.49887  0.81558  Biso   1.000  C
  H1302    1.0000 0.78580  0.50960  0.79730  Biso   1.000  H
  C1094    1.0000 0.75818  0.48819  0.83094  Biso   1.000  C
  C1095    1.0000 0.76562  0.47530  0.85921  Biso   1.000  C
  H1303    1.0000 0.74590  0.46900  0.87020  Biso   1.000  H
  C1096    1.0000 0.80533  0.45772  0.90181  Biso   1.000  C
  C1097    1.0000 0.85480  0.50557  0.80871  Biso   1.000  C
  C1098    1.0000 0.67620  0.52871  0.79022  Biso   1.000  C
  H1304    1.0000 0.67140  0.54830  0.77670  Biso   1.000  H
  C1099    1.0000 0.71201  0.52200  0.79939  Biso   1.000  C
  H1305    1.0000 0.73050  0.53690  0.79180  Biso   1.000  H
  C1100    1.0000 0.72052  0.49456  0.81897  Biso   1.000  C
  C1101    1.0000 0.69247  0.46834  0.82518  Biso   1.000  C
  H1306    1.0000 0.69750  0.44600  0.83610  Biso   1.000  H
  C1102    1.0000 0.65663  0.47604  0.81476  Biso   1.000  C
  H1307    1.0000 0.63810  0.45830  0.81830  Biso   1.000  H
  C1103    1.0000 0.84678  0.24435  0.97682  Biso   1.000  C
  C1104    1.0000 0.88085  0.23373  0.96587  Biso   1.000  C
  H1308    1.0000 0.90060  0.25090  0.96750  Biso   1.000  H
  C1105    1.0000 0.88460  0.19806  0.95285  Biso   1.000  C
  C1106    1.0000 0.85517  0.17361  0.94977  Biso   1.000  C
  H1309    1.0000 0.85760  0.14980  0.94030  Biso   1.000  H
  C1107    1.0000 0.82170  0.18368  0.96048  Biso   1.000  C
  C1108    1.0000 0.81721  0.21836  0.97365  Biso   1.000  C
  H1310    1.0000 0.79460  0.22510  0.98060  Biso   1.000  H
  C1109    1.0000 0.84158  0.28558  0.98877  Biso   1.000  C
  C1110    1.0000 0.91945  0.18701  0.93883  Biso   1.000  C
  C1111    1.0000 0.73365  0.12776  0.96848  Biso   1.000  C
  H1311    1.0000 0.71560  0.12540  0.98180  Biso   1.000  H
  C1112    1.0000 0.76322  0.15308  0.97509  Biso   1.000  C
  H1312    1.0000 0.76440  0.16670  0.99240  Biso   1.000  H
  C1113    1.0000 0.79038  0.15758  0.95576  Biso   1.000  C
  C1114    1.0000 0.78707  0.13446  0.93282  Biso   1.000  C
  H1313    1.0000 0.80560  0.13460  0.91980  Biso   1.000  H
  C1115    1.0000 0.75634  0.10953  0.92743  Biso   1.000  C
  H1314    1.0000 0.75530  0.09440  0.91080  Biso   1.000  H
  C1116    1.0000 0.51062  0.32504  0.59660  Biso   1.000  C
  C1117    1.0000 0.53617  0.33423  0.57719  Biso   1.000  C
  H1315    1.0000 0.54160  0.31610  0.56310  Biso   1.000  H
  C1118    1.0000 0.55407  0.36958  0.57792  Biso   1.000  C
  C1119    1.0000 0.54586  0.39539  0.59921  Biso   1.000  C
  H1316    1.0000 0.55820  0.41920  0.60030  Biso   1.000  H
  C1120    1.0000 0.51941  0.38721  0.61963  Biso   1.000  C
  C1121    1.0000 0.50161  0.35159  0.61735  Biso   1.000  C
  H1317    1.0000 0.48340  0.34550  0.62990  Biso   1.000  H
  C1122    1.0000 0.49500  0.28496  0.59660  Biso   1.000  C
  C1123    1.0000 0.58337  0.37996  0.55846  Biso   1.000  C
  C1124    1.0000 0.47534  0.45056  0.67385  Biso   1.000  C
  H1318    1.0000 0.45210  0.45390  0.68080  Biso   1.000  H
  C1125    1.0000 0.47901  0.42365  0.65299  Biso   1.000  C
  H1319    1.0000 0.45880  0.40970  0.64580  Biso   1.000  H
  C1126    1.0000 0.51243  0.41700  0.64252  Biso   1.000  C
  C1127    1.0000 0.54024  0.44087  0.65410  Biso   1.000  C
  H1320    1.0000 0.56370  0.43860  0.64750  Biso   1.000  H
  C1128    1.0000 0.53335  0.46777  0.67517  Biso   1.000  C
  H1321    1.0000 0.55260  0.48310  0.68240  Biso   1.000  H
  C1129    1.0000 0.62296  0.08964  0.66611  Biso   1.000  C
  C1130    1.0000 0.65337  0.08056  0.65163  Biso   1.000  C
  H1322    1.0000 0.65340  0.08400  0.63180  Biso   1.000  H
  C1131    1.0000 0.68404  0.06631  0.66615  Biso   1.000  C
  C1132    1.0000 0.68431  0.06099  0.69560  Biso   1.000  C
  H1323    1.0000 0.70500  0.05130  0.70540  Biso   1.000  H
  C1133    1.0000 0.65291  0.07031  0.71062  Biso   1.000  C
  C1134    1.0000 0.62273  0.08502  0.69525  Biso   1.000  C
  H1324    1.0000 0.60200  0.09190  0.70490  Biso   1.000  H
  C1135    1.0000 0.58839  0.10471  0.65078  Biso   1.000  C
  C1136    1.0000 0.71894  0.05508  0.65150  Biso   1.000  C
  N30      1.0000 0.64171  0.04351  0.79944  Biso   1.000  N
  C1137    1.0000 0.67420  0.05250  0.78820  Biso   1.000  C
  H1325    1.0000 0.69480  0.05370  0.80050  Biso   1.000  H
  C1138    1.0000 0.67800  0.05979  0.75993  Biso   1.000  C
  H1326    1.0000 0.70100  0.06530  0.75340  Biso   1.000  H
  C1139    1.0000 0.64970  0.05930  0.74146  Biso   1.000  C
  C1140    1.0000 0.61600  0.04830  0.75101  Biso   1.000  C
  H1327    1.0000 0.59600  0.04560  0.73820  Biso   1.000  H
  C1141    1.0000 0.61270  0.04160  0.77965  Biso   1.000  C
  H1328    1.0000 0.58970  0.03540  0.78620  Biso   1.000  H
  N31      1.0000 0.64991  0.05870  0.80197  Biso   1.000  N
  C1142    1.0000 0.66681  0.03180  0.78724  Biso   1.000  C
  H1329    1.0000 0.67700  0.01020  0.79670  Biso   1.000  H
  C1143    1.0000 0.66981  0.03520  0.75733  Biso   1.000  C
  H1330    1.0000 0.68210  0.01630  0.74710  Biso   1.000  H
  C1144    1.0000 0.65340  0.06870  0.74272  Biso   1.000  C
  C1145    1.0000 0.63790  0.09610  0.76068  Biso   1.000  C
  H1331    1.0000 0.62790  0.11880  0.75250  Biso   1.000  H
  C1146    1.0000 0.63660  0.09130  0.78961  Biso   1.000  C
  H1332    1.0000 0.62640  0.11080  0.80080  Biso   1.000  H
  O181     1.0000 0.56626  0.48576  0.77900  Biso   1.000  O
  O182     1.0000 0.58757  0.47781  0.73592  Biso   1.000  O
  C1147    1.0000 0.57454  0.46487  0.75841  Biso   1.000  C
  H1333    1.0000 0.57080  0.43800  0.75980  Biso   1.000  H
  O183     1.0000 0.57210  0.35200  0.83929  Biso   1.000  O
  H1334    1.0000 0.56750  0.33420  0.85110  Biso   1.000  H
  O184     1.0000 0.54746  0.30853  0.80992  Biso   1.000  O
  N32      1.0000 0.60099  0.28183  0.66094  Biso   1.000  N
  C1148    1.0000 0.57777  0.42065  0.76294  Biso   1.000  C
  C1149    1.0000 0.57355  0.40305  0.78970  Biso   1.000  C
  H1335    1.0000 0.57100  0.41680  0.80670  Biso   1.000  H
  C1150    1.0000 0.57363  0.36246  0.78769  Biso   1.000  C
  C1151    1.0000 0.57959  0.34140  0.76289  Biso   1.000  C
  H1336    1.0000 0.58040  0.31420  0.76410  Biso   1.000  H
  C1152    1.0000 0.58442  0.35887  0.73629  Biso   1.000  C
  C1153    1.0000 0.58390  0.39921  0.73854  Biso   1.000  C
  H1337    1.0000 0.58810  0.41330  0.72190  Biso   1.000  H
  C1154    1.0000 0.57656  0.46447  0.75992  Biso   1.000  C
  C1155    1.0000 0.56625  0.33969  0.81442  Biso   1.000  C
  C1156    1.0000 0.59720  0.26860  0.68815  Biso   1.000  C
  H1338    1.0000 0.59720  0.24160  0.69100  Biso   1.000  H
  C1157    1.0000 0.59330  0.29298  0.71260  Biso   1.000  C
  H1339    1.0000 0.59200  0.28120  0.73050  Biso   1.000  H
  C1158    1.0000 0.59150  0.33377  0.71092  Biso   1.000  C
  C1159    1.0000 0.59320  0.34896  0.68369  Biso   1.000  C
  H1340    1.0000 0.59240  0.37580  0.68030  Biso   1.000  H
  C1160    1.0000 0.59610  0.32147  0.66091  Biso   1.000  C
  H1341    1.0000 0.59430  0.33260  0.64270  Biso   1.000  H
  O185     1.0000 0.70729  0.09088  0.86839  Biso   1.000  O
  O186     1.0000 0.66144  0.09487  0.89769  Biso   1.000  O
  O187     1.0000 0.65117  0.09068  0.85071  Biso   1.000  O
  C1161    1.0000 0.67400  0.09580  0.87306  Biso   1.000  C
  O188     1.0000 0.70010  0.08890  0.86699  Biso   1.000  O
  O189     1.0000 0.64680  0.08610  0.87225  Biso   1.000  O
  C1162    1.0000 0.67240  0.11469  0.87112  Biso   1.000  C
  N33      1.0000 0.66939  0.15466  0.86798  Biso   1.000  N
  C1163    1.0000 0.63796  0.18210  0.86180  Biso   1.000  C
  H1342    1.0000 0.64680  0.20860  0.86120  Biso   1.000  H
  H1343    1.0000 0.62070  0.17970  0.87660  Biso   1.000  H
  H1344    1.0000 0.62630  0.17550  0.84360  Biso   1.000  H
  C1164    1.0000 0.70075  0.18270  0.87310  Biso   1.000  C
  H1345    1.0000 0.69240  0.20900  0.86960  Biso   1.000  H
  H1346    1.0000 0.71980  0.17660  0.86020  Biso   1.000  H
  H1347    1.0000 0.71000  0.18030  0.89250  Biso   1.000  H
  Ni61     1.0000 0.05686  0.34982  0.61273  Biso   1.000  Ni
  Ni62     1.0000 0.01097  0.31345  0.56027  Biso   1.000  Ni
  Ni63     1.0000 0.03070  0.22999  0.58408  Biso   1.000  Ni
  Ni64     1.0000 0.07392  0.26625  0.63757  Biso   1.000  Ni
  Ni65     1.0000 0.90400  0.53227  0.70216  Biso   1.000  Ni
  Ni66     1.0000 0.98648  0.50966  0.70580  Biso   1.000  Ni
  Ni67     1.0000 0.00399  0.50447  0.77848  Biso   1.000  Ni
  Ni68     1.0000 0.90280  0.53137  0.77853  Biso   1.000  Ni
  Ni69     1.0000 0.73175  0.42962  0.54493  Biso   1.000  Ni
  Ni70     1.0000 0.64356  0.43723  0.54935  Biso   1.000  Ni
  Ni71     1.0000 0.62659  0.36357  0.50874  Biso   1.000  Ni
  Ni72     1.0000 0.71514  0.34820  0.50343  Biso   1.000  Ni
  Ni73     1.0000 0.89393  0.07093  0.59612  Biso   1.000  Ni
  Ni74     1.0000 0.81518  0.07494  0.56361  Biso   1.000  Ni
  Ni75     1.0000 0.77586  0.03592  0.62879  Biso   1.000  Ni
  Ni76     1.0000 0.86945  0.03849  0.65798  Biso   1.000  Ni
  Ni77     1.0000 0.98732  0.13959  0.84013  Biso   1.000  Ni
  Ni78     1.0000 0.95352  0.12666  0.90202  Biso   1.000  Ni
  Ni79     1.0000 0.99557  0.20472  0.92554  Biso   1.000  Ni
  Ni80     1.0000 0.03272  0.22217  0.86447  Biso   1.000  Ni
  Cl4      1.0000 0.01592  0.29112  0.61176  Biso   1.000  Cl
  S61      1.0000 0.11151  0.39335  0.60119  Biso   1.000  S
  S62      1.0000 0.03290  0.32948  0.50999  Biso   1.000  S
  S63      1.0000 0.06586  0.18366  0.55240  Biso   1.000  S
  S64      1.0000 0.14050  0.24733  0.64514  Biso   1.000  S
  S65      1.0000 0.88723  0.59561  0.68046  Biso   1.000  S
  S66      1.0000 0.02996  0.55366  0.68245  Biso   1.000  S
  S67      1.0000 0.03869  0.55588  0.79978  Biso   1.000  S
  S68      1.0000 0.89252  0.59380  0.79864  Biso   1.000  S
  S69      1.0000 0.76052  0.48477  0.51992  Biso   1.000  S
  S70      1.0000 0.61435  0.49987  0.53488  Biso   1.000  S
  S71      1.0000 0.58980  0.37446  0.46432  Biso   1.000  S
  S72      1.0000 0.73626  0.35293  0.45404  Biso   1.000  S
  S73      1.0000 0.94202  0.03461  0.57247  Biso   1.000  S
  S74      1.0000 0.80546  0.03335  0.52190  Biso   1.000  S
  S75      1.0000 0.75373  0.97168  0.62228  Biso   1.000  S
  S76      1.0000 0.89294  0.97415  0.67176  Biso   1.000  S
  S77      1.0000 0.02737  0.08656  0.82369  Biso   1.000  S
  S78      1.0000 0.96889  0.06470  0.92782  Biso   1.000  S
  S79      1.0000 0.03708  0.19698  0.96801  Biso   1.000  S
  S80      1.0000 0.09968  0.21774  0.86501  Biso   1.000  S
  O190     1.0000 0.05795  0.33957  0.57063  Biso   1.000  O
  O191     1.0000 0.03696  0.26510  0.55207  Biso   1.000  O
  O192     1.0000 0.08118  0.23864  0.60036  Biso   1.000  O
  O193     1.0000 0.09613  0.31307  0.62152  Biso   1.000  O
  O194     1.0000 0.95416  0.55607  0.70127  Biso   1.000  O
  O195     1.0000 0.00986  0.53263  0.74212  Biso   1.000  O
  O196     1.0000 0.95782  0.54247  0.78733  Biso   1.000  O
  O197     1.0000 0.89659  0.56018  0.74010  Biso   1.000  O
  O198     1.0000 0.68668  0.45857  0.53044  Biso   1.000  O
  O199     1.0000 0.62446  0.42006  0.51114  Biso   1.000  O
  O200     1.0000 0.66905  0.36883  0.48367  Biso   1.000  O
  O201     1.0000 0.73923  0.40112  0.50761  Biso   1.000  O
  O202     1.0000 0.86093  0.04385  0.56757  Biso   1.000  O
  O203     1.0000 0.78803  0.03233  0.58585  Biso   1.000  O
  O204     1.0000 0.82195  0.00936  0.64671  Biso   1.000  O
  O205     1.0000 0.89088  0.02241  0.62056  Biso   1.000  O
  O206     1.0000 0.99207  0.10894  0.87643  Biso   1.000  O
  O207     1.0000 0.99221  0.14740  0.92827  Biso   1.000  O
  O208     1.0000 0.04135  0.19875  0.90401  Biso   1.000  O
  O209     1.0000 0.03536  0.16840  0.84629  Biso   1.000  O
  O210     1.0000 0.01696  0.38789  0.60628  Biso   1.000  O
  O211     1.0000 0.98165  0.36083  0.57030  Biso   1.000  O
  O212     1.0000 0.91101  0.50629  0.66333  Biso   1.000  O
  O213     1.0000 0.97048  0.48724  0.66727  Biso   1.000  O
  O214     1.0000 0.96298  0.28540  0.55306  Biso   1.000  O
  O215     1.0000 0.97811  0.22557  0.57009  Biso   1.000  O
  O216     1.0000 0.89778  0.11877  0.57197  Biso   1.000  O
  O217     1.0000 0.84529  0.11889  0.54271  Biso   1.000  O
  C1165    1.0000 0.87440  0.13574  0.55680  Biso   1.000  C
  O218     1.0000 0.89552  0.11913  0.57179  Biso   1.000  O
  O219     1.0000 0.83838  0.12354  0.55328  Biso   1.000  O
  C1166    1.0000 0.86939  0.13689  0.55975  Biso   1.000  C
  O220     1.0000 0.01964  0.19350  0.61562  Biso   1.000  O
  O221     1.0000 0.04807  0.22048  0.65472  Biso   1.000  O
  O222     1.0000 0.92903  0.09609  0.62469  Biso   1.000  O
  O223     1.0000 0.91674  0.07030  0.66709  Biso   1.000  O
  O224     1.0000 0.05136  0.35596  0.65539  Biso   1.000  O
  O225     1.0000 0.06314  0.29578  0.67334  Biso   1.000  O
  O226     1.0000 0.01304  0.45977  0.71324  Biso   1.000  O
  O227     1.0000 0.99777  0.45235  0.75958  Biso   1.000  O
  O228     1.0000 0.72285  0.45142  0.58423  Biso   1.000  O
  O229     1.0000 0.66220  0.45352  0.58871  Biso   1.000  O
  O230     1.0000 0.61273  0.50487  0.68087  Biso   1.000  O
  O231     1.0000 0.65225  0.51664  0.71693  Biso   1.000  O
  O232     1.0000 0.63003  0.30646  0.50912  Biso   1.000  O
  O233     1.0000 0.69026  0.29512  0.50537  Biso   1.000  O
  O234     1.0000 0.55413  0.20941  0.55815  Biso   1.000  O
  O235     1.0000 0.58231  0.15495  0.57532  Biso   1.000  O
  O236     1.0000 0.02481  0.27567  0.88262  Biso   1.000  O
  O237     1.0000 0.99643  0.26236  0.92351  Biso   1.000  O
  O238     1.0000 0.91188  0.35915  0.96236  Biso   1.000  O
  O239     1.0000 0.89837  0.40965  0.93325  Biso   1.000  O
  O240     1.0000 0.93743  0.11461  0.83332  Biso   1.000  O
  O241     1.0000 0.91263  0.10675  0.87604  Biso   1.000  O
  O242     1.0000 0.78011  0.05807  0.87549  Biso   1.000  O
  O243     1.0000 0.75315  0.04375  0.83375  Biso   1.000  O
  N34      1.0000 0.78254  0.41187  0.56196  Biso   1.000  N
  N35      1.0000 0.76217  0.31952  0.51985  Biso   1.000  N
  N36      1.0000 0.98153  0.16317  0.79861  Biso   1.000  N
  N37      1.0000 0.02741  0.25271  0.82539  Biso   1.000  N
  N38      1.0000 0.85124  0.50883  0.70032  Biso   1.000  N
  N39      1.0000 0.77001  0.10727  0.55535  Biso   1.000  N
  N40      1.0000 0.99813  0.47270  0.81467  Biso   1.000  N
  C1167    1.0000 0.07546  0.36253  0.55346  Biso   1.000  C
  C1168    1.0000 0.10266  0.38883  0.56341  Biso   1.000  C
  C1169    1.0000 0.12069  0.41237  0.54449  Biso   1.000  C
  H1348    1.0000 0.13860  0.42950  0.55160  Biso   1.000  H
  C1170    1.0000 0.11286  0.41115  0.51558  Biso   1.000  C
  C1171    1.0000 0.08652  0.38589  0.50547  Biso   1.000  C
  H1349    1.0000 0.08110  0.38470  0.48580  Biso   1.000  H
  C1172    1.0000 0.06727  0.36160  0.52385  Biso   1.000  C
  C1173    1.0000 0.13317  0.43651  0.49483  Biso   1.000  C
  C1174    1.0000 0.13440  0.47896  0.50429  Biso   1.000  C
  H1350    1.0000 0.11010  0.48940  0.50400  Biso   1.000  H
  H1351    1.0000 0.14890  0.49380  0.49150  Biso   1.000  H
  H1352    1.0000 0.14510  0.48060  0.52340  Biso   1.000  H
  C1175    1.0000 0.17270  0.42580  0.49669  Biso   1.000  C
  H1353    1.0000 0.18160  0.42720  0.51630  Biso   1.000  H
  H1354    1.0000 0.18620  0.44380  0.48530  Biso   1.000  H
  H1355    1.0000 0.17570  0.39960  0.48960  Biso   1.000  H
  C1176    1.0000 0.11916  0.43440  0.46416  Biso   1.000  C
  H1356    1.0000 0.09370  0.44130  0.46300  Biso   1.000  H
  H1357    1.0000 0.12210  0.40830  0.45700  Biso   1.000  H
  H1358    1.0000 0.13260  0.45240  0.45280  Biso   1.000  H
  C1177    1.0000 0.05513  0.25727  0.52885  Biso   1.000  C
  C1178    1.0000 0.05745  0.28481  0.50696  Biso   1.000  C
  C1179    1.0000 0.07681  0.27633  0.48314  Biso   1.000  C
  H1359    1.0000 0.07820  0.29510  0.46870  Biso   1.000  H
  C1180    1.0000 0.09450  0.24046  0.47991  Biso   1.000  C
  C1181    1.0000 0.09149  0.21348  0.50166  Biso   1.000  C
  H1360    1.0000 0.10270  0.18920  0.50000  Biso   1.000  H
  C1182    1.0000 0.07252  0.22126  0.52566  Biso   1.000  C
  C1183    1.0000 0.11705  0.23179  0.45389  Biso   1.000  C
  C1184    1.0000 0.09014  0.21492  0.43232  Biso   1.000  C
  H1361    1.0000 0.07010  0.23280  0.42930  Biso   1.000  H
  H1362    1.0000 0.08120  0.19040  0.43930  Biso   1.000  H
  H1363    1.0000 0.10180  0.21080  0.41450  Biso   1.000  H
  C1185    1.0000 0.13179  0.26873  0.44030  Biso   1.000  C
  H1364    1.0000 0.14930  0.28080  0.45340  Biso   1.000  H
  H1365    1.0000 0.11210  0.28660  0.43610  Biso   1.000  H
  H1366    1.0000 0.14330  0.26200  0.42280  Biso   1.000  H
  C1186    1.0000 0.14970  0.20537  0.45990  Biso   1.000  C
  H1367    1.0000 0.16600  0.21760  0.47380  Biso   1.000  H
  H1368    1.0000 0.16210  0.20110  0.44250  Biso   1.000  H
  H1369    1.0000 0.14160  0.18070  0.46720  Biso   1.000  H
  C1187    1.0000 0.10753  0.21323  0.59760  Biso   1.000  C
  C1188    1.0000 0.10566  0.18545  0.57486  Biso   1.000  C
  C1189    1.0000 0.13368  0.15836  0.57290  Biso   1.000  C
  H1370    1.0000 0.13220  0.13980  0.55830  Biso   1.000  H
  C1190    1.0000 0.16434  0.15780  0.59220  Biso   1.000  C
  C1191    1.0000 0.16608  0.18612  0.61382  Biso   1.000  C
  H1371    1.0000 0.18600  0.18620  0.62680  Biso   1.000  H
  C1192    1.0000 0.13939  0.21371  0.61652  Biso   1.000  C
  C1193    1.0000 0.19373  0.12576  0.59074  Biso   1.000  C
  C1194    1.0000 0.18477  0.09494  0.56787  Biso   1.000  C
  H1372    1.0000 0.16220  0.08220  0.57200  Biso   1.000  H
  H1373    1.0000 0.20400  0.07590  0.56780  Biso   1.000  H
  H1374    1.0000 0.18240  0.10730  0.54940  Biso   1.000  H
  C1195    1.0000 0.22957  0.14590  0.58409  Biso   1.000  C
  H1375    1.0000 0.23530  0.16530  0.59850  Biso   1.000  H
  H1376    1.0000 0.22720  0.15830  0.56560  Biso   1.000  H
  H1377    1.0000 0.24880  0.12680  0.58400  Biso   1.000  H
  C1196    1.0000 0.19907  0.10390  0.61960  Biso   1.000  C
  H1378    1.0000 0.20480  0.12250  0.63460  Biso   1.000  H
  H1379    1.0000 0.21870  0.08540  0.61840  Biso   1.000  H
  H1380    1.0000 0.17700  0.09020  0.62370  Biso   1.000  H
  C1197    1.0000 0.20220  0.12710  0.55889  Biso   1.000  C
  H1381    1.0000 0.21290  0.15200  0.55450  Biso   1.000  H
  H1382    1.0000 0.18000  0.12380  0.54750  Biso   1.000  H
  H1383    1.0000 0.21890  0.10640  0.55470  Biso   1.000  H
  C1198    1.0000 0.17640  0.08673  0.59910  Biso   1.000  C
  H1384    1.0000 0.17160  0.08700  0.61910  Biso   1.000  H
  H1385    1.0000 0.19290  0.06570  0.59520  Biso   1.000  H
  H1386    1.0000 0.15400  0.08300  0.58800  Biso   1.000  H
  C1199    1.0000 0.22850  0.13290  0.60967  Biso   1.000  C
  H1387    1.0000 0.22260  0.13190  0.62950  Biso   1.000  H
  H1388    1.0000 0.23840  0.15820  0.60540  Biso   1.000  H
  H1389    1.0000 0.24620  0.11300  0.60590  Biso   1.000  H
  C1200    1.0000 0.13156  0.31994  0.62039  Biso   1.000  C
  C1201    1.0000 0.15701  0.29134  0.62991  Biso   1.000  C
  C1202    1.0000 0.19399  0.29966  0.62889  Biso   1.000  C
  H1390    1.0000 0.21080  0.28080  0.63510  Biso   1.000  H
  C1203    1.0000 0.20694  0.33647  0.61863  Biso   1.000  C
  C1204    1.0000 0.18072  0.36270  0.61002  Biso   1.000  C
  H1391    1.0000 0.18850  0.38700  0.60350  Biso   1.000  H
  C1205    1.0000 0.14446  0.35633  0.61019  Biso   1.000  C
  C1206    1.0000 0.24806  0.34479  0.61806  Biso   1.000  C
  C1207    1.0000 0.27104  0.31031  0.62847  Biso   1.000  C
  H1392    1.0000 0.26390  0.28730  0.61780  Biso   1.000  H
  H1393    1.0000 0.26750  0.30600  0.64850  Biso   1.000  H
  H1394    1.0000 0.29630  0.31580  0.62570  Biso   1.000  H
  C1208    1.0000 0.25700  0.35160  0.58658  Biso   1.000  C
  H1395    1.0000 0.25300  0.32790  0.57590  Biso   1.000  H
  H1396    1.0000 0.28210  0.35940  0.58560  Biso   1.000  H
  H1397    1.0000 0.24160  0.37200  0.57860  Biso   1.000  H
  C1209    1.0000 0.25540  0.38386  0.63239  Biso   1.000  C
  H1398    1.0000 0.23930  0.40330  0.62400  Biso   1.000  H
  H1399    1.0000 0.28030  0.39150  0.62970  Biso   1.000  H
  H1400    1.0000 0.25140  0.38170  0.65250  Biso   1.000  H
  C1210    1.0000 0.26740  0.31170  0.60297  Biso   1.000  C
  H1401    1.0000 0.29300  0.31730  0.60280  Biso   1.000  H
  H1402    1.0000 0.25760  0.30940  0.58360  Biso   1.000  H
  H1403    1.0000 0.26360  0.28750  0.61300  Biso   1.000  H
  C1211    1.0000 0.25650  0.38524  0.60524  Biso   1.000  C
  H1404    1.0000 0.24380  0.40520  0.61540  Biso   1.000  H
  H1405    1.0000 0.24870  0.38570  0.58530  Biso   1.000  H
  H1406    1.0000 0.28230  0.39010  0.60700  Biso   1.000  H
  C1212    1.0000 0.26150  0.34530  0.64983  Biso   1.000  C
  H1407    1.0000 0.24950  0.36600  0.65970  Biso   1.000  H
  H1408    1.0000 0.28740  0.34940  0.65100  Biso   1.000  H
  H1409    1.0000 0.25590  0.32060  0.65860  Biso   1.000  H
  C1213    1.0000 0.96081  0.58121  0.68132  Biso   1.000  C
  C1214    1.0000 0.93202  0.60480  0.66925  Biso   1.000  C
  C1215    1.0000 0.93909  0.63007  0.64740  Biso   1.000  C
  H1410    1.0000 0.91940  0.64330  0.63870  Biso   1.000  H
  C1216    1.0000 0.97368  0.63755  0.63720  Biso   1.000  C
  C1217    1.0000 0.00111  0.61209  0.64861  Biso   1.000  C
  H1411    1.0000 0.02410  0.61290  0.64090  Biso   1.000  H
  C1218    1.0000 0.99547  0.58665  0.67030  Biso   1.000  C
  C1219    1.0000 0.97831  0.66646  0.61170  Biso   1.000  C
  C1220    1.0000 0.95610  0.64960  0.58575  Biso   1.000  C
  H1412    1.0000 0.96660  0.62520  0.58010  Biso   1.000  H
  H1413    1.0000 0.95660  0.66780  0.57000  Biso   1.000  H
  H1414    1.0000 0.93130  0.64550  0.59090  Biso   1.000  H
  C1221    1.0000 0.01891  0.67190  0.60480  Biso   1.000  C
  H1415    1.0000 0.02830  0.64770  0.59750  Biso   1.000  H
  H1416    1.0000 0.03260  0.67920  0.62190  Biso   1.000  H
  H1417    1.0000 0.02100  0.69210  0.59060  Biso   1.000  H
  C1222    1.0000 0.96480  0.70577  0.62317  Biso   1.000  C
  H1418    1.0000 0.98020  0.71380  0.63920  Biso   1.000  H
  H1419    1.0000 0.94020  0.70290  0.62920  Biso   1.000  H
  H1420    1.0000 0.96540  0.72520  0.60830  Biso   1.000  H
  C1223    1.0000 0.98624  0.66794  0.61510  Biso   1.000  C
  C1224    1.0000 0.95598  0.69410  0.60180  Biso   1.000  C
  H1421    1.0000 0.93730  0.67790  0.59290  Biso   1.000  H
  H1422    1.0000 0.96600  0.71090  0.58770  Biso   1.000  H
  H1423    1.0000 0.94570  0.70970  0.61660  Biso   1.000  H
  C1225    1.0000 0.00170  0.64080  0.59209  Biso   1.000  C
  H1424    1.0000 0.02060  0.62460  0.60070  Biso   1.000  H
  H1425    1.0000 0.01160  0.65640  0.57720  Biso   1.000  H
  H1426    1.0000 0.98260  0.62440  0.58410  Biso   1.000  H
  C1226    1.0000 0.01590  0.69440  0.62920  Biso   1.000  C
  H1427    1.0000 0.03500  0.67850  0.63760  Biso   1.000  H
  H1428    1.0000 0.00540  0.71010  0.64380  Biso   1.000  H
  H1429    1.0000 0.02570  0.71130  0.61490  Biso   1.000  H
  C1227    1.0000 0.03430  0.55999  0.74133  Biso   1.000  C
  C1228    1.0000 0.04699  0.57544  0.71532  Biso   1.000  C
  C1229    1.0000 0.07365  0.60336  0.71437  Biso   1.000  C
  H1430    1.0000 0.08120  0.61190  0.69660  Biso   1.000  H
  C1230    1.0000 0.08978  0.61928  0.73917  Biso   1.000  C
  C1231    1.0000 0.07722  0.60577  0.76478  Biso   1.000  C
  H1431    1.0000 0.08650  0.61680  0.78180  Biso   1.000  H
  C1232    1.0000 0.05112  0.57625  0.76623  Biso   1.000  C
  C1233    1.0000 0.11960  0.65136  0.73849  Biso   1.000  C
  C1234    1.0000 0.10610  0.68513  0.75673  Biso   1.000  C
  H1432    1.0000 0.08510  0.69690  0.74730  Biso   1.000  H
  H1433    1.0000 0.12510  0.70440  0.75920  Biso   1.000  H
  H1434    1.0000 0.09970  0.67540  0.77520  Biso   1.000  H
  C1235    1.0000 0.15303  0.62960  0.75071  Biso   1.000  C
  H1435    1.0000 0.15940  0.60910  0.73780  Biso   1.000  H
  H1436    1.0000 0.14770  0.61860  0.76900  Biso   1.000  H
  H1437    1.0000 0.17310  0.64760  0.75300  Biso   1.000  H
  C1236    1.0000 0.12990  0.66550  0.70836  Biso   1.000  C
  H1438    1.0000 0.10970  0.67950  0.69950  Biso   1.000  H
  H1439    1.0000 0.13560  0.64320  0.69680  Biso   1.000  H
  H1440    1.0000 0.15070  0.68240  0.71010  Biso   1.000  H
  C1237    1.0000 0.12038  0.64932  0.73384  Biso   1.000  C
  C1238    1.0000 0.13620  0.66380  0.76258  Biso   1.000  C
  H1441    1.0000 0.11760  0.67700  0.77270  Biso   1.000  H
  H1442    1.0000 0.15600  0.68160  0.75940  Biso   1.000  H
  H1443    1.0000 0.14520  0.64190  0.77370  Biso   1.000  H
  C1239    1.0000 0.15004  0.62800  0.71744  Biso   1.000  C
  H1444    1.0000 0.13990  0.61900  0.69930  Biso   1.000  H
  H1445    1.0000 0.15900  0.60610  0.72850  Biso   1.000  H
  H1446    1.0000 0.16980  0.64580  0.71420  Biso   1.000  H
  C1240    1.0000 0.10550  0.68501  0.71642  Biso   1.000  C
  H1447    1.0000 0.09540  0.67630  0.69820  Biso   1.000  H
  H1448    1.0000 0.12510  0.70310  0.71340  Biso   1.000  H
  H1449    1.0000 0.08690  0.69780  0.72680  Biso   1.000  H
  C1241    1.0000 0.96540  0.57542  0.80090  Biso   1.000  C
  C1242    1.0000 0.00239  0.58628  0.80912  Biso   1.000  C
  C1243    1.0000 0.00915  0.61918  0.82502  Biso   1.000  C
  H1450    1.0000 0.03330  0.62390  0.83090  Biso   1.000  H
  C1244    1.0000 0.98277  0.64714  0.83360  Biso   1.000  C
  C1245    1.0000 0.94776  0.63615  0.82415  Biso   1.000  C
  H1451    1.0000 0.92860  0.65260  0.82860  Biso   1.000  H
  C1246    1.0000 0.93903  0.60198  0.80830  Biso   1.000  C
  C1247    1.0000 0.99463  0.68020  0.85480  Biso   1.000  C
  C1248    1.0000 0.02098  0.70460  0.83762  Biso   1.000  C
  H1452    1.0000 0.04260  0.68960  0.83460  Biso   1.000  H
  H1453    1.0000 0.02740  0.72800  0.84810  Biso   1.000  H
  H1454    1.0000 0.00950  0.71150  0.81940  Biso   1.000  H
  C1249    1.0000 0.96051  0.70440  0.85940  Biso   1.000  C
  H1455    1.0000 0.94370  0.68940  0.87020  Biso   1.000  H
  H1456    1.0000 0.94920  0.71130  0.84120  Biso   1.000  H
  H1457    1.0000 0.96710  0.72790  0.86980  Biso   1.000  H
  C1250    1.0000 0.01170  0.66230  0.88238  Biso   1.000  C
  H1458    1.0000 0.03300  0.64750  0.87790  Biso   1.000  H
  H1459    1.0000 0.99430  0.64540  0.89090  Biso   1.000  H
  H1460    1.0000 0.01850  0.68290  0.89560  Biso   1.000  H
  C1251    1.0000 0.99088  0.68647  0.84905  Biso   1.000  C
  C1252    1.0000 0.03056  0.69540  0.85820  Biso   1.000  C
  H1461    1.0000 0.03940  0.67580  0.87150  Biso   1.000  H
  H1462    1.0000 0.03200  0.72070  0.86720  Biso   1.000  H
  H1463    1.0000 0.04520  0.69530  0.84160  Biso   1.000  H
  C1253    1.0000 0.97560  0.71690  0.82781  Biso   1.000  C
  H1464    1.0000 0.95080  0.71060  0.82250  Biso   1.000  H
  H1465    1.0000 0.98990  0.71700  0.81100  Biso   1.000  H
  H1466    1.0000 0.97660  0.74240  0.83660  Biso   1.000  H
  C1254    1.0000 0.96850  0.68350  0.87602  Biso   1.000  C
  H1467    1.0000 0.97910  0.66400  0.88870  Biso   1.000  H
  H1468    1.0000 0.94390  0.67620  0.87060  Biso   1.000  H
  H1469    1.0000 0.96850  0.70840  0.88560  Biso   1.000  H
  C1255    1.0000 0.89025  0.59749  0.74003  Biso   1.000  C
  C1256    1.0000 0.88780  0.61862  0.76527  Biso   1.000  C
  C1257    1.0000 0.87978  0.65810  0.76587  Biso   1.000  C
  H1470    1.0000 0.87700  0.66990  0.78360  Biso   1.000  H
  C1258    1.0000 0.87558  0.68139  0.74115  Biso   1.000  C
  C1259    1.0000 0.87887  0.65779  0.71463  Biso   1.000  C
  H1471    1.0000 0.87660  0.67060  0.69700  Biso   1.000  H
  C1260    1.0000 0.88506  0.61818  0.71469  Biso   1.000  C
  C1261    1.0000 0.86706  0.72644  0.74014  Biso   1.000  C
  C1262    1.0000 0.86970  0.74730  0.76956  Biso   1.000  C
  H1472    1.0000 0.89420  0.74500  0.77760  Biso   1.000  H
  H1473    1.0000 0.85310  0.73530  0.78230  Biso   1.000  H
  H1474    1.0000 0.86360  0.77450  0.76710  Biso   1.000  H
  C1263    1.0000 0.89354  0.74620  0.71963  Biso   1.000  C
  H1475    1.0000 0.91810  0.74410  0.72750  Biso   1.000  H
  H1476    1.0000 0.88720  0.77330  0.71730  Biso   1.000  H
  H1477    1.0000 0.89180  0.73330  0.70130  Biso   1.000  H
  C1264    1.0000 0.82805  0.73000  0.72720  Biso   1.000  C
  H1478    1.0000 0.82640  0.71700  0.70900  Biso   1.000  H
  H1479    1.0000 0.82190  0.75720  0.72480  Biso   1.000  H
  H1480    1.0000 0.81140  0.71800  0.73990  Biso   1.000  H
  C1265    1.0000 0.86590  0.72579  0.74391  Biso   1.000  C
  C1266    1.0000 0.89461  0.74690  0.76362  Biso   1.000  C
  H1481    1.0000 0.91800  0.74550  0.75520  Biso   1.000  H
  H1482    1.0000 0.89590  0.73440  0.78210  Biso   1.000  H
  H1483    1.0000 0.88770  0.77390  0.76580  Biso   1.000  H
  C1267    1.0000 0.86290  0.74520  0.71416  Biso   1.000  C
  H1484    1.0000 0.88620  0.74400  0.70540  Biso   1.000  H
  H1485    1.0000 0.85580  0.77220  0.71620  Biso   1.000  H
  H1486    1.0000 0.84500  0.73170  0.70230  Biso   1.000  H
  C1268    1.0000 0.82858  0.72810  0.75743  Biso   1.000  C
  H1487    1.0000 0.83000  0.71610  0.77610  Biso   1.000  H
  H1488    1.0000 0.81070  0.71470  0.74540  Biso   1.000  H
  H1489    1.0000 0.82160  0.75510  0.75930  Biso   1.000  H
  C1269    1.0000 0.68741  0.49554  0.52421  Biso   1.000  C
  C1270    1.0000 0.72067  0.51417  0.51818  Biso   1.000  C
  C1271    1.0000 0.72179  0.55477  0.51215  Biso   1.000  C
  H1490    1.0000 0.74420  0.56610  0.50850  Biso   1.000  H
  C1272    1.0000 0.69148  0.57810  0.51146  Biso   1.000  C
  C1273    1.0000 0.65812  0.55883  0.51782  Biso   1.000  C
  H1491    1.0000 0.64150  0.56300  0.50140  Biso   1.000  H
  H1492    1.0000 0.64810  0.57300  0.53370  Biso   1.000  H
  C1274    1.0000 0.65609  0.51973  0.52452  Biso   1.000  C
  C1275    1.0000 0.69134  0.62068  0.50163  Biso   1.000  C
  C1276    1.0000 0.73027  0.63350  0.49555  Biso   1.000  C
  H1493    1.0000 0.73870  0.61930  0.47940  Biso   1.000  H
  H1494    1.0000 0.74600  0.62830  0.51210  Biso   1.000  H
  H1495    1.0000 0.73050  0.66110  0.49140  Biso   1.000  H
  C1277    1.0000 0.66843  0.62580  0.47340  Biso   1.000  C
  H1496    1.0000 0.67940  0.61120  0.45840  Biso   1.000  H
  H1497    1.0000 0.66750  0.65310  0.46830  Biso   1.000  H
  H1498    1.0000 0.64410  0.61630  0.47590  Biso   1.000  H
  C1278    1.0000 0.67680  0.64250  0.52716  Biso   1.000  C
  H1499    1.0000 0.67570  0.67010  0.52300  Biso   1.000  H
  H1500    1.0000 0.69270  0.63820  0.54370  Biso   1.000  H
  H1501    1.0000 0.65280  0.63310  0.53090  Biso   1.000  H
  C1279    1.0000 0.69449  0.62180  0.50487  Biso   1.000  C
  C1280    1.0000 0.71080  0.62450  0.47496  Biso   1.000  C
  H1502    1.0000 0.69310  0.61560  0.46060  Biso   1.000  H
  H1503    1.0000 0.73220  0.60830  0.47450  Biso   1.000  H
  H1504    1.0000 0.71730  0.65120  0.47110  Biso   1.000  H
  C1281    1.0000 0.72200  0.63560  0.52812  Biso   1.000  C
  H1505    1.0000 0.72600  0.66330  0.52600  Biso   1.000  H
  H1506    1.0000 0.74460  0.62190  0.52630  Biso   1.000  H
  H1507    1.0000 0.71260  0.63050  0.54670  Biso   1.000  H
  C1282    1.0000 0.65836  0.64420  0.50550  Biso   1.000  C
  H1508    1.0000 0.64190  0.63450  0.49050  Biso   1.000  H
  H1509    1.0000 0.66270  0.67160  0.50250  Biso   1.000  H
  H1510    1.0000 0.64770  0.64040  0.52380  Biso   1.000  H
  C1283    1.0000 0.60119  0.44160  0.49529  Biso   1.000  C
  C1284    1.0000 0.59473  0.48080  0.50255  Biso   1.000  C
  C1285    1.0000 0.57126  0.50366  0.48490  Biso   1.000  C
  H1511    1.0000 0.56700  0.52970  0.48980  Biso   1.000  H
  C1286    1.0000 0.55401  0.48793  0.45993  Biso   1.000  C
  C1287    1.0000 0.55989  0.44991  0.45394  Biso   1.000  C
  H1512    1.0000 0.54790  0.43890  0.43790  Biso   1.000  H
  C1288    1.0000 0.58399  0.42583  0.47139  Biso   1.000  C
  C1289    1.0000 0.52800  0.51142  0.43908  Biso   1.000  C
  C1290    1.0000 0.52000  0.48950  0.41091  Biso   1.000  C
  H1513    1.0000 0.50840  0.46500  0.41480  Biso   1.000  H
  H1514    1.0000 0.54240  0.48480  0.40160  Biso   1.000  H
  H1515    1.0000 0.50400  0.50510  0.39860  Biso   1.000  H
  C1291    1.0000 0.49236  0.51970  0.45415  Biso   1.000  C
  H1516    1.0000 0.48030  0.49530  0.45790  Biso   1.000  H
  H1517    1.0000 0.47670  0.53570  0.44200  Biso   1.000  H
  H1518    1.0000 0.49780  0.53310  0.47190  Biso   1.000  H
  C1292    1.0000 0.54640  0.55056  0.43340  Biso   1.000  C
  H1519    1.0000 0.55130  0.56390  0.45130  Biso   1.000  H
  H1520    1.0000 0.53060  0.56640  0.42120  Biso   1.000  H
  H1521    1.0000 0.56890  0.54610  0.42420  Biso   1.000  H
  C1293    1.0000 0.52163  0.51096  0.44603  Biso   1.000  C
  C1294    1.0000 0.48769  0.48450  0.44220  Biso   1.000  C
  H1522    1.0000 0.47850  0.47850  0.46070  Biso   1.000  H
  H1523    1.0000 0.49420  0.46060  0.43280  Biso   1.000  H
  H1524    1.0000 0.46920  0.49790  0.43080  Biso   1.000  H
  C1295    1.0000 0.51130  0.54879  0.46165  Biso   1.000  C
  H1525    1.0000 0.50280  0.54240  0.48030  Biso   1.000  H
  H1526    1.0000 0.49230  0.56210  0.45070  Biso   1.000  H
  H1527    1.0000 0.53230  0.56550  0.46370  Biso   1.000  H
  C1296    1.0000 0.53530  0.51980  0.41635  Biso   1.000  C
  H1528    1.0000 0.54150  0.49570  0.40710  Biso   1.000  H
  H1529    1.0000 0.55640  0.53630  0.41810  Biso   1.000  H
  H1530    1.0000 0.51650  0.53290  0.40510  Biso   1.000  H
  C1297    1.0000 0.66328  0.36707  0.45589  Biso   1.000  C
  C1298    1.0000 0.62897  0.37032  0.44278  Biso   1.000  C
  C1299    1.0000 0.62421  0.36920  0.41309  Biso   1.000  C
  H1531    1.0000 0.60070  0.37140  0.40490  Biso   1.000  H
  C1300    1.0000 0.65339  0.36490  0.39496  Biso   1.000  C
  C1301    1.0000 0.68797  0.35846  0.40819  Biso   1.000  C
  H1532    1.0000 0.70790  0.35350  0.39700  Biso   1.000  H
  C1302    1.0000 0.69264  0.35945  0.43775  Biso   1.000  C
  C1303    1.0000 0.64980  0.36483  0.36160  Biso   1.000  C
  C1304    1.0000 0.61116  0.37420  0.35020  Biso   1.000  C
  H1533    1.0000 0.60480  0.40040  0.35570  Biso   1.000  H
  H1534    1.0000 0.59430  0.35600  0.35810  Biso   1.000  H
  H1535    1.0000 0.61000  0.37210  0.32960  Biso   1.000  H
  C1305    1.0000 0.67676  0.39509  0.35033  Biso   1.000  C
  H1536    1.0000 0.70100  0.38900  0.35760  Biso   1.000  H
  H1537    1.0000 0.67010  0.42080  0.35660  Biso   1.000  H
  H1538    1.0000 0.67600  0.39440  0.32970  Biso   1.000  H
  C1306    1.0000 0.65850  0.32289  0.35230  Biso   1.000  C
  H1539    1.0000 0.68270  0.31610  0.35920  Biso   1.000  H
  H1540    1.0000 0.65700  0.32120  0.33170  Biso   1.000  H
  H1541    1.0000 0.64130  0.30510  0.36020  Biso   1.000  H
  C1307    1.0000 0.64619  0.36071  0.36205  Biso   1.000  C
  C1308    1.0000 0.68161  0.35840  0.34574  Biso   1.000  C
  H1542    1.0000 0.69600  0.38150  0.34960  Biso   1.000  H
  H1543    1.0000 0.67580  0.35670  0.32550  Biso   1.000  H
  H1544    1.0000 0.69520  0.33560  0.35190  Biso   1.000  H
  C1309    1.0000 0.62290  0.32419  0.35610  Biso   1.000  C
  H1545    1.0000 0.63670  0.30120  0.36170  Biso   1.000  H
  H1546    1.0000 0.61620  0.32280  0.33600  Biso   1.000  H
  H1547    1.0000 0.60130  0.32550  0.36700  Biso   1.000  H
  C1310    1.0000 0.62590  0.39858  0.35370  Biso   1.000  C
  H1548    1.0000 0.64140  0.42070  0.35770  Biso   1.000  H
  H1549    1.0000 0.60420  0.40070  0.36450  Biso   1.000  H
  H1550    1.0000 0.61920  0.39800  0.33350  Biso   1.000  H
  C1311    1.0000 0.74958  0.42010  0.48433  Biso   1.000  C
  C1312    1.0000 0.75066  0.40214  0.45785  Biso   1.000  C
  C1313    1.0000 0.76220  0.42300  0.43374  Biso   1.000  C
  H1551    1.0000 0.76260  0.41020  0.41610  Biso   1.000  H
  C1314    1.0000 0.77286  0.46130  0.43537  Biso   1.000  C
  C1315    1.0000 0.77128  0.47901  0.46129  Biso   1.000  C
  H1552    1.0000 0.77810  0.50520  0.46280  Biso   1.000  H
  C1316    1.0000 0.75980  0.45949  0.48609  Biso   1.000  C
  C1317    1.0000 0.78613  0.48268  0.40920  Biso   1.000  C
  C1318    1.0000 0.82742  0.47520  0.41070  Biso   1.000  C
  H1553    1.0000 0.83790  0.48590  0.42820  Biso   1.000  H
  H1554    1.0000 0.83830  0.48760  0.39470  Biso   1.000  H
  H1555    1.0000 0.83190  0.44750  0.41010  Biso   1.000  H
  C1319    1.0000 0.78050  0.52681  0.41110  Biso   1.000  C
  H1556    1.0000 0.78800  0.53570  0.43000  Biso   1.000  H
  H1557    1.0000 0.75510  0.53280  0.40750  Biso   1.000  H
  H1558    1.0000 0.79480  0.53970  0.39720  Biso   1.000  H
  C1320    1.0000 0.77560  0.46400  0.38067  Biso   1.000  C
  H1559    1.0000 0.78500  0.47940  0.36540  Biso   1.000  H
  H1560    1.0000 0.74940  0.46280  0.37840  Biso   1.000  H
  H1561    1.0000 0.78550  0.43800  0.38000  Biso   1.000  H
  C1321    1.0000 0.80790  0.51974  0.41500  Biso   1.000  C
  H1562    1.0000 0.81490  0.53090  0.39720  Biso   1.000  H
  H1563    1.0000 0.82940  0.51360  0.42670  Biso   1.000  H
  H1564    1.0000 0.79330  0.53820  0.42500  Biso   1.000  H
  C1322    1.0000 0.75152  0.49110  0.39105  Biso   1.000  C
  H1565    1.0000 0.73830  0.46710  0.38770  Biso   1.000  H
  H1566    1.0000 0.75790  0.50220  0.37300  Biso   1.000  H
  H1567    1.0000 0.73650  0.50930  0.40100  Biso   1.000  H
  C1323    1.0000 0.80910  0.45570  0.39098  Biso   1.000  C
  H1568    1.0000 0.79590  0.43180  0.38690  Biso   1.000  H
  H1569    1.0000 0.83170  0.44960  0.40130  Biso   1.000  H
  H1570    1.0000 0.81420  0.46850  0.37330  Biso   1.000  H
  C1324    1.0000 0.87426  0.02691  0.54484  Biso   1.000  C
  C1325    1.0000 0.91167  0.01909  0.54351  Biso   1.000  C
  C1326    1.0000 0.92518  0.00358  0.51848  Biso   1.000  C
  H1571    1.0000 0.95000  0.99840  0.51790  Biso   1.000  H
  C1327    1.0000 0.90310  0.99550  0.49440  Biso   1.000  C
  C1328    1.0000 0.86581  0.00343  0.49624  Biso   1.000  C
  H1572    1.0000 0.85010  0.99840  0.48050  Biso   1.000  H
  C1329    1.0000 0.85190  0.01830  0.52067  Biso   1.000  C
  C1330    1.0000 0.91876  0.97869  0.46657  Biso   1.000  C
  C1331    1.0000 0.95988  0.98450  0.46520  Biso   1.000  C
  H1573    1.0000 0.96570  0.01160  0.46840  Biso   1.000  H
  H1574    1.0000 0.96760  0.97670  0.44660  Biso   1.000  H
  H1575    1.0000 0.97220  0.96880  0.47970  Biso   1.000  H
  C1332    1.0000 0.90520  0.93672  0.46184  Biso   1.000  C
  H1576    1.0000 0.87910  0.93600  0.46310  Biso   1.000  H
  H1577    1.0000 0.91620  0.91990  0.47630  Biso   1.000  H
  H1578    1.0000 0.91170  0.92790  0.44320  Biso   1.000  H
  C1333    1.0000 0.90400  0.00420  0.44155  Biso   1.000  C
  H1579    1.0000 0.87780  0.00270  0.44040  Biso   1.000  H
  H1580    1.0000 0.91350  0.99490  0.42390  Biso   1.000  H
  H1581    1.0000 0.91130  0.03090  0.44470  Biso   1.000  H
  C1334    1.0000 0.89105  0.97350  0.44121  Biso   1.000  C
  H1582    1.0000 0.87200  0.95600  0.44660  Biso   1.000  H
  H1583    1.0000 0.90310  0.96270  0.42510  Biso   1.000  H
  H1584    1.0000 0.88070  0.99850  0.43600  Biso   1.000  H
  C1335    1.0000 0.93520  0.93732  0.47270  Biso   1.000  C
  H1585    1.0000 0.95280  0.93890  0.48850  Biso   1.000  H
  H1586    1.0000 0.94690  0.92800  0.45600  Biso   1.000  H
  H1587    1.0000 0.91610  0.91950  0.47750  Biso   1.000  H
  C1336    1.0000 0.94965  0.00660  0.45850  Biso   1.000  C
  H1588    1.0000 0.96670  0.00950  0.47460  Biso   1.000  H
  H1589    1.0000 0.93960  0.03180  0.45340  Biso   1.000  H
  H1590    1.0000 0.96200  0.99600  0.44250  Biso   1.000  H
  C1337    1.0000 0.77764  0.00084  0.57131  Biso   1.000  C
  C1338    1.0000 0.78341  0.99487  0.54168  Biso   1.000  C
  C1339    1.0000 0.77150  0.96181  0.52711  Biso   1.000  C
  H1591    1.0000 0.77610  0.95950  0.50770  Biso   1.000  H
  C1340    1.0000 0.75363  0.93299  0.53968  Biso   1.000  C
  C1341    1.0000 0.74879  0.93719  0.56938  Biso   1.000  C
  H1592    1.0000 0.73720  0.91710  0.57900  Biso   1.000  H
  C1342    1.0000 0.76029  0.96913  0.58464  Biso   1.000  C
  C1343    1.0000 0.73715  0.89677  0.52474  Biso   1.000  C
  C1344    1.0000 0.75270  0.85907  0.53801  Biso   1.000  C
  H1593    1.0000 0.74840  0.85870  0.55820  Biso   1.000  H
  H1594    1.0000 0.77850  0.85790  0.53530  Biso   1.000  H
  H1595    1.0000 0.74100  0.83690  0.52890  Biso   1.000  H
  C1345    1.0000 0.69579  0.89430  0.52625  Biso   1.000  C
  H1596    1.0000 0.68930  0.89320  0.54600  Biso   1.000  H
  H1597    1.0000 0.68710  0.87120  0.51640  Biso   1.000  H
  H1598    1.0000 0.68490  0.91710  0.51730  Biso   1.000  H
  C1346    1.0000 0.74340  0.89850  0.49279  Biso   1.000  C
  H1599    1.0000 0.76910  0.90010  0.48980  Biso   1.000  H
  H1600    1.0000 0.73150  0.92120  0.48460  Biso   1.000  H
  H1601    1.0000 0.73370  0.87530  0.48370  Biso   1.000  H
  C1347    1.0000 0.71230  0.87110  0.54301  Biso   1.000  C
  H1602    1.0000 0.69250  0.88670  0.54960  Biso   1.000  H
  H1603    1.0000 0.72630  0.86100  0.55930  Biso   1.000  H
  H1604    1.0000 0.70280  0.84970  0.53160  Biso   1.000  H
  C1348    1.0000 0.76881  0.87260  0.51410  Biso   1.000  C
  H1605    1.0000 0.75950  0.84950  0.50460  Biso   1.000  H
  H1606    1.0000 0.78460  0.86510  0.53020  Biso   1.000  H
  H1607    1.0000 0.78230  0.88790  0.50090  Biso   1.000  H
  C1349    1.0000 0.71390  0.91260  0.49915  Biso   1.000  C
  H1608    1.0000 0.69410  0.92780  0.50610  Biso   1.000  H
  H1609    1.0000 0.70440  0.89110  0.48790  Biso   1.000  H
  H1610    1.0000 0.72880  0.92890  0.48750  Biso   1.000  H
  C1350    1.0000 0.82307  0.97163  0.64734  Biso   1.000  C
  C1351    1.0000 0.79327  0.94785  0.63730  Biso   1.000  C
  C1352    1.0000 0.79403  0.90738  0.63827  Biso   1.000  C
  H1611    1.0000 0.77360  0.89340  0.63170  Biso   1.000  H
  C1353    1.0000 0.82520  0.88666  0.64907  Biso   1.000  C
  C1354    1.0000 0.85447  0.90860  0.65894  Biso   1.000  C
  H1612    1.0000 0.87540  0.89580  0.66600  Biso   1.000  H
  C1355    1.0000 0.85391  0.94973  0.65869  Biso   1.000  C
  C1356    1.0000 0.82640  0.84173  0.64953  Biso   1.000  C
  C1357    1.0000 0.82680  0.83470  0.68208  Biso   1.000  C
  H1613    1.0000 0.84690  0.84880  0.69110  Biso   1.000  H
  H1614    1.0000 0.82960  0.80720  0.68590  Biso   1.000  H
  H1615    1.0000 0.80430  0.84380  0.68950  Biso   1.000  H
  C1358    1.0000 0.86357  0.82940  0.63870  Biso   1.000  C
  H1616    1.0000 0.88270  0.84150  0.65030  Biso   1.000  H
  H1617    1.0000 0.86540  0.83750  0.61910  Biso   1.000  H
  H1618    1.0000 0.86590  0.80140  0.63990  Biso   1.000  H
  C1359    1.0000 0.79670  0.82210  0.63060  Biso   1.000  C
  H1619    1.0000 0.77310  0.82950  0.63710  Biso   1.000  H
  H1620    1.0000 0.79930  0.79410  0.63190  Biso   1.000  H
  H1621    1.0000 0.79880  0.83030  0.61110  Biso   1.000  H
  C1360    1.0000 0.86308  0.82300  0.65870  Biso   1.000  C
  H1622    1.0000 0.86980  0.83090  0.67800  Biso   1.000  H
  H1623    1.0000 0.88150  0.83150  0.64600  Biso   1.000  H
  H1624    1.0000 0.86090  0.79500  0.65790  Biso   1.000  H
  C1361    1.0000 0.79823  0.82660  0.67045  Biso   1.000  C
  H1625    1.0000 0.80410  0.83660  0.68930  Biso   1.000  H
  H1626    1.0000 0.79880  0.79850  0.67090  Biso   1.000  H
  H1627    1.0000 0.77430  0.83540  0.66420  Biso   1.000  H
  C1362    1.0000 0.81900  0.82710  0.61897  Biso   1.000  C
  H1628    1.0000 0.81960  0.79900  0.61880  Biso   1.000  H
  H1629    1.0000 0.83740  0.83720  0.60680  Biso   1.000  H
  H1630    1.0000 0.79540  0.83600  0.61210  Biso   1.000  H
  C1363    1.0000 0.91739  0.99700  0.62073  Biso   1.000  C
  C1364    1.0000 0.92241  0.96916  0.64263  Biso   1.000  C
  C1365    1.0000 0.95088  0.94292  0.64313  Biso   1.000  C
  H1631    1.0000 0.95360  0.92570  0.65850  Biso   1.000  H
  C1366    1.0000 0.97568  0.94112  0.62161  Biso   1.000  C
  C1367    1.0000 0.97087  0.96876  0.59971  Biso   1.000  C
  H1632    1.0000 0.98700  0.96880  0.58490  Biso   1.000  H
  C1368    1.0000 0.94294  0.99625  0.59924  Biso   1.000  C
  C1369    1.0000 0.00561  0.91019  0.62204  Biso   1.000  C
  C1370    1.0000 0.03173  0.91380  0.59801  Biso   1.000  C
  H1633    1.0000 0.01880  0.90940  0.58000  Biso   1.000  H
  H1634    1.0000 0.05080  0.89460  0.60060  Biso   1.000  H
  H1635    1.0000 0.04220  0.93960  0.59820  Biso   1.000  H
  C1371    1.0000 0.98930  0.86936  0.62310  Biso   1.000  C
  H1636    1.0000 0.97470  0.86470  0.60580  Biso   1.000  H
  H1637    1.0000 0.97420  0.86730  0.63930  Biso   1.000  H
  H1638    1.0000 0.00850  0.85030  0.62470  Biso   1.000  H
  C1372    1.0000 0.02840  0.91740  0.64919  Biso   1.000  C
  H1639    1.0000 0.01330  0.91560  0.66540  Biso   1.000  H
  H1640    1.0000 0.03900  0.94320  0.64850  Biso   1.000  H
  H1641    1.0000 0.04750  0.89820  0.65090  Biso   1.000  H
  C1373    1.0000 0.00753  0.91176  0.62427  Biso   1.000  C
  C1374    1.0000 0.00230  0.88610  0.59740  Biso   1.000  C
  H1642    1.0000 0.98050  0.87070  0.59880  Biso   1.000  H
  H1643    1.0000 0.02290  0.86890  0.59590  Biso   1.000  H
  H1644    1.0000 0.00020  0.90250  0.58070  Biso   1.000  H
  C1375    1.0000 0.04203  0.93650  0.62270  Biso   1.000  C
  H1645    1.0000 0.04490  0.95240  0.63960  Biso   1.000  H
  H1646    1.0000 0.04010  0.95310  0.60610  Biso   1.000  H
  H1647    1.0000 0.06280  0.91960  0.62130  Biso   1.000  H
  C1376    1.0000 0.01040  0.88600  0.65124  Biso   1.000  C
  H1648    1.0000 0.98880  0.87030  0.65230  Biso   1.000  H
  H1649    1.0000 0.01300  0.90230  0.66800  Biso   1.000  H
  H1650    1.0000 0.03130  0.86910  0.65030  Biso   1.000  H
  C1377    1.0000 0.00183  0.07214  0.87633  Biso   1.000  C
  C1378    1.0000 0.02046  0.05522  0.85431  Biso   1.000  C
  C1379    1.0000 0.03208  0.01790  0.85349  Biso   1.000  C
  H1651    1.0000 0.04460  0.00920  0.83770  Biso   1.000  H
  C1380    1.0000 0.02569  0.99191  0.87599  Biso   1.000  C
  C1381    1.0000 0.00592  0.00836  0.89874  Biso   1.000  C
  H1652    1.0000 0.00020  0.99230  0.91410  Biso   1.000  H
  C1382    1.0000 0.99501  0.04677  0.89903  Biso   1.000  C
  C1383    1.0000 0.03990  0.94900  0.87667  Biso   1.000  C
  C1384    1.0000 0.02750  0.92390  0.90153  Biso   1.000  C
  H1653    1.0000 0.03750  0.93440  0.91930  Biso   1.000  H
  H1654    1.0000 0.03580  0.89750  0.89920  Biso   1.000  H
  H1655    1.0000 0.00130  0.92420  0.90170  Biso   1.000  H
  C1385    1.0000 0.02200  0.92890  0.85051  Biso   1.000  C
  H1656    1.0000 0.02830  0.94270  0.83340  Biso   1.000  H
  H1657    1.0000 0.99600  0.92900  0.85210  Biso   1.000  H
  H1658    1.0000 0.03050  0.90230  0.84950  Biso   1.000  H
  C1386    1.0000 0.08158  0.94820  0.87510  Biso   1.000  C
  H1659    1.0000 0.09250  0.96090  0.89170  Biso   1.000  H
  H1660    1.0000 0.08860  0.96160  0.85810  Biso   1.000  H
  H1661    1.0000 0.08980  0.92150  0.87450  Biso   1.000  H
  C1387    1.0000 0.04007  0.94934  0.87820  Biso   1.000  C
  C1388    1.0000 0.00723  0.92240  0.88000  Biso   1.000  C
  H1662    1.0000 0.99360  0.92940  0.89630  Biso   1.000  H
  H1663    1.0000 0.01540  0.89570  0.88190  Biso   1.000  H
  H1664    1.0000 0.99200  0.92500  0.86280  Biso   1.000  H
  C1389    1.0000 0.06490  0.94400  0.90508  Biso   1.000  C
  H1665    1.0000 0.08570  0.96100  0.90400  Biso   1.000  H
  H1666    1.0000 0.07300  0.91720  0.90630  Biso   1.000  H
  H1667    1.0000 0.05160  0.95040  0.92180  Biso   1.000  H
  C1390    1.0000 0.06100  0.93720  0.85204  Biso   1.000  C
  H1668    1.0000 0.08190  0.95380  0.85040  Biso   1.000  H
  H1669    1.0000 0.04540  0.93970  0.83510  Biso   1.000  H
  H1670    1.0000 0.06880  0.91040  0.85420  Biso   1.000  H
  C1391    1.0000 0.00869  0.12667  0.94883  Biso   1.000  C
  C1392    1.0000 0.00267  0.08728  0.95141  Biso   1.000  C
  C1393    1.0000 0.02124  0.06560  0.97266  Biso   1.000  C
  H1671    1.0000 0.01650  0.03890  0.97400  Biso   1.000  H
  C1394    1.0000 0.04633  0.08216  0.99170  Biso   1.000  C
  C1395    1.0000 0.05121  0.12217  0.98951  Biso   1.000  C
  H1672    1.0000 0.06740  0.13450  0.00250  Biso   1.000  H
  C1396    1.0000 0.03289  0.14494  0.96873  Biso   1.000  C
  C1397    1.0000 0.06641  0.05671  0.01405  Biso   1.000  C
  C1398    1.0000 0.04481  0.05960  0.04097  Biso   1.000  C
  H1673    1.0000 0.02060  0.04980  0.03710  Biso   1.000  H
  H1674    1.0000 0.04360  0.08650  0.04690  Biso   1.000  H
  H1675    1.0000 0.05660  0.04430  0.05600  Biso   1.000  H
  C1399    1.0000 0.10508  0.07200  0.01921  Biso   1.000  C
  H1676    1.0000 0.11810  0.06980  0.00180  Biso   1.000  H
  H1677    1.0000 0.11730  0.05680  0.03410  Biso   1.000  H
  H1678    1.0000 0.10430  0.09900  0.02500  Biso   1.000  H
  C1400    1.0000 0.06680  0.01248  0.00568  Biso   1.000  C
  H1679    1.0000 0.08020  0.00910  0.98860  Biso   1.000  H
  H1680    1.0000 0.04210  0.00350  0.00220  Biso   1.000  H
  H1681    1.0000 0.07810  0.99760  0.02110  Biso   1.000  H
  C1401    1.0000 0.04480  0.02560  0.02880  Biso   1.000  C
  H1682    1.0000 0.03240  0.00930  0.01470  Biso   1.000  H
  H1683    1.0000 0.02720  0.03780  0.04060  Biso   1.000  H
  H1684    1.0000 0.06100  0.00970  0.04070  Biso   1.000  H
  C1402    1.0000 0.08600  0.08240  0.03617  Biso   1.000  C
  H1685    1.0000 0.09970  0.10220  0.02660  Biso   1.000  H
  H1686    1.0000 0.10230  0.06670  0.04800  Biso   1.000  H
  H1687    1.0000 0.06840  0.09480  0.04790  Biso   1.000  H
  C1403    1.0000 0.10059  0.04240  0.00010  Biso   1.000  C
  H1688    1.0000 0.11250  0.06420  0.99130  Biso   1.000  H
  H1689    1.0000 0.09410  0.02320  0.98580  Biso   1.000  H
  H1690    1.0000 0.11690  0.03090  0.01440  Biso   1.000  H
  C1404    1.0000 0.07328  0.20512  0.91838  Biso   1.000  C
  C1405    1.0000 0.07675  0.20389  0.94796  Biso   1.000  C
  C1406    1.0000 0.11036  0.21077  0.96185  Biso   1.000  C
  H1691    1.0000 0.11210  0.21040  0.98180  Biso   1.000  H
  C1407    1.0000 0.14122  0.21810  0.94692  Biso   1.000  C
  C1408    1.0000 0.13772  0.21967  0.91738  Biso   1.000  C
  H1692    1.0000 0.15810  0.22500  0.90690  Biso   1.000  H
  C1409    1.0000 0.10422  0.21341  0.90304  Biso   1.000  C
  C1410    1.0000 0.17780  0.22629  0.96164  Biso   1.000  C
  C1411    1.0000 0.17683  0.22570  0.99386  Biso   1.000  C
  H1693    1.0000 0.15970  0.24490  0.00000  Biso   1.000  H
  H1694    1.0000 0.20070  0.23160  0.00200  Biso   1.000  H
  H1695    1.0000 0.16950  0.20010  0.00010  Biso   1.000  H
  C1412    1.0000 0.20517  0.19548  0.95482  Biso   1.000  C
  H1696    1.0000 0.19650  0.17030  0.96080  Biso   1.000  H
  H1697    1.0000 0.22800  0.20120  0.96480  Biso   1.000  H
  H1698    1.0000 0.20850  0.19510  0.93450  Biso   1.000  H
  C1413    1.0000 0.19355  0.26427  0.95158  Biso   1.000  C
  H1699    1.0000 0.17710  0.28530  0.95540  Biso   1.000  H
  H1700    1.0000 0.19710  0.26280  0.93130  Biso   1.000  H
  H1701    1.0000 0.21660  0.26890  0.96160  Biso   1.000  H
  C1414    1.0000 0.06755  0.14986  0.84468  Biso   1.000  C
  C1415    1.0000 0.10038  0.16797  0.85271  Biso   1.000  C
  C1416    1.0000 0.13324  0.14887  0.85001  Biso   1.000  C
  H1702    1.0000 0.15490  0.16180  0.85510  Biso   1.000  H
  C1417    1.0000 0.13438  0.11072  0.83988  Biso   1.000  C
  C1418    1.0000 0.10217  0.09363  0.83180  Biso   1.000  C
  H1703    1.0000 0.10250  0.06850  0.82410  Biso   1.000  H
  C1419    1.0000 0.06908  0.11173  0.83453  Biso   1.000  C
  C1420    1.0000 0.17062  0.08926  0.83606  Biso   1.000  C
  C1421    1.0000 0.20356  0.11050  0.84966  Biso   1.000  C
  H1704    1.0000 0.22530  0.09560  0.84650  Biso   1.000  H
  H1705    1.0000 0.20050  0.11330  0.86990  Biso   1.000  H
  H1706    1.0000 0.20570  0.13600  0.84110  Biso   1.000  H
  C1422    1.0000 0.16700  0.04703  0.84775  Biso   1.000  C
  H1707    1.0000 0.14600  0.03470  0.83870  Biso   1.000  H
  H1708    1.0000 0.16430  0.04790  0.86810  Biso   1.000  H
  H1709    1.0000 0.18850  0.03230  0.84370  Biso   1.000  H
  C1423    1.0000 0.17490  0.08650  0.80342  Biso   1.000  C
  H1710    1.0000 0.15420  0.07320  0.79480  Biso   1.000  H
  H1711    1.0000 0.19670  0.07230  0.79960  Biso   1.000  H
  H1712    1.0000 0.17640  0.11240  0.79550  Biso   1.000  H
  C1424    1.0000 0.19550  0.11620  0.81990  Biso   1.000  C
  H1713    1.0000 0.19760  0.14100  0.82960  Biso   1.000  H
  H1714    1.0000 0.18550  0.12020  0.80070  Biso   1.000  H
  H1715    1.0000 0.21920  0.10450  0.81900  Biso   1.000  H
  C1425    1.0000 0.16710  0.05007  0.82090  Biso   1.000  C
  H1716    1.0000 0.15130  0.03330  0.83130  Biso   1.000  H
  H1717    1.0000 0.19070  0.03820  0.82010  Biso   1.000  H
  H1718    1.0000 0.15700  0.05390  0.80180  Biso   1.000  H
  C1426    1.0000 0.18740  0.08590  0.86673  Biso   1.000  C
  H1719    1.0000 0.18900  0.11150  0.87530  Biso   1.000  H
  H1720    1.0000 0.21130  0.07470  0.86610  Biso   1.000  H
  H1721    1.0000 0.17220  0.06940  0.87800  Biso   1.000  H
  C1427    1.0000 0.93240  0.45849  0.63072  Biso   1.000  C
  C1428    1.0000 0.89804  0.45332  0.61841  Biso   1.000  C
  H1722    1.0000 0.87860  0.46830  0.62450  Biso   1.000  H
  C1429    1.0000 0.89244  0.42565  0.59684  Biso   1.000  C
  C1430    1.0000 0.92204  0.40491  0.58666  Biso   1.000  C
  H1723    1.0000 0.91870  0.38740  0.57150  Biso   1.000  H
  C1431    1.0000 0.95638  0.41054  0.59927  Biso   1.000  C
  C1432    1.0000 0.96124  0.43660  0.62142  Biso   1.000  C
  H1724    1.0000 0.98430  0.43960  0.63030  Biso   1.000  H
  C1433    1.0000 0.93874  0.48695  0.65595  Biso   1.000  C
  C1434    1.0000 0.98752  0.38417  0.59047  Biso   1.000  C
  C1435    1.0000 0.81135  0.41368  0.54518  Biso   1.000  C
  H1725    1.0000 0.80680  0.41300  0.52540  Biso   1.000  H
  C1436    1.0000 0.84738  0.41652  0.55512  Biso   1.000  C
  H1726    1.0000 0.86620  0.41730  0.54230  Biso   1.000  H
  C1437    1.0000 0.85499  0.41820  0.58468  Biso   1.000  C
  C1438    1.0000 0.82565  0.41254  0.60220  Biso   1.000  C
  H1727    1.0000 0.82970  0.41090  0.62200  Biso   1.000  H
  C1439    1.0000 0.78980  0.40925  0.59029  Biso   1.000  C
  H1728    1.0000 0.77070  0.40520  0.60240  Biso   1.000  H
  C1440    1.0000 0.91818  0.23523  0.55337  Biso   1.000  C
  C1441    1.0000 0.88909  0.25972  0.54529  Biso   1.000  C
  H1729    1.0000 0.89340  0.28630  0.54250  Biso   1.000  H
  C1442    1.0000 0.85320  0.24516  0.54120  Biso   1.000  C
  C1443    1.0000 0.84876  0.20529  0.54404  Biso   1.000  C
  H1730    1.0000 0.82560  0.19500  0.54020  Biso   1.000  H
  C1444    1.0000 0.87648  0.17929  0.55231  Biso   1.000  C
  C1445    1.0000 0.91135  0.19547  0.55705  Biso   1.000  C
  H1731    1.0000 0.93060  0.17910  0.56290  Biso   1.000  H
  C1446    1.0000 0.95708  0.25103  0.55904  Biso   1.000  C
  C1447    1.0000 0.76058  0.29077  0.53915  Biso   1.000  C
  H1732    1.0000 0.73860  0.28700  0.54800  Biso   1.000  H
  C1448    1.0000 0.78876  0.26664  0.54673  Biso   1.000  C
  H1733    1.0000 0.78530  0.24700  0.56020  Biso   1.000  H
  C1449    1.0000 0.82296  0.27059  0.53470  Biso   1.000  C
  C1450    1.0000 0.82509  0.30273  0.51751  Biso   1.000  C
  H1734    1.0000 0.84750  0.30950  0.51040  Biso   1.000  H
  C1451    1.0000 0.79434  0.32610  0.51018  Biso   1.000  C
  H1735    1.0000 0.79720  0.34720  0.49790  Biso   1.000  H
  C1452    1.0000 0.00309  0.17220  0.66075  Biso   1.000  C
  C1453    1.0000 0.97981  0.14504  0.64861  Biso   1.000  C
  H1736    1.0000 0.97890  0.14160  0.62880  Biso   1.000  H
  C1454    1.0000 0.95738  0.12244  0.66538  Biso   1.000  C
  C1455    1.0000 0.95742  0.12916  0.69448  Biso   1.000  C
  H1737    1.0000 0.94230  0.11430  0.70570  Biso   1.000  H
  C1456    1.0000 0.97924  0.15716  0.70711  Biso   1.000  C
  C1457    1.0000 0.00364  0.17815  0.69044  Biso   1.000  C
  H1738    1.0000 0.02000  0.19580  0.69910  Biso   1.000  H
  C1458    1.0000 0.02548  0.19734  0.64189  Biso   1.000  C
  C1459    1.0000 0.93234  0.09408  0.65103  Biso   1.000  C
  C1460    1.0000 0.01154  0.16668  0.78417  Biso   1.000  C
  H1739    1.0000 0.03370  0.16900  0.79450  Biso   1.000  H
  C1461    1.0000 0.01194  0.16703  0.75444  Biso   1.000  C
  H1740    1.0000 0.03370  0.17040  0.74520  Biso   1.000  H
  C1462    1.0000 0.98005  0.16239  0.73896  Biso   1.000  C
  C1463    1.0000 0.94829  0.16133  0.75329  Biso   1.000  C
  H1741    1.0000 0.92570  0.16060  0.74350  Biso   1.000  H
  C1464    1.0000 0.95105  0.16143  0.78326  Biso   1.000  C
  H1742    1.0000 0.92950  0.16020  0.79300  Biso   1.000  H
  C1465    1.0000 0.04269  0.34490  0.70432  Biso   1.000  C
  C1466    1.0000 0.03310  0.38331  0.70796  Biso   1.000  C
  H1743    1.0000 0.03400  0.40060  0.69260  Biso   1.000  H
  C1467    1.0000 0.02210  0.39673  0.73400  Biso   1.000  C
  C1468    1.0000 0.02034  0.37182  0.75683  Biso   1.000  C
  H1744    1.0000 0.01180  0.38090  0.77410  Biso   1.000  H
  C1469    1.0000 0.03116  0.33323  0.75442  Biso   1.000  C
  C1470    1.0000 0.04209  0.32006  0.72784  Biso   1.000  C
  H1745    1.0000 0.04910  0.29400  0.72580  Biso   1.000  H
  C1471    1.0000 0.05377  0.33119  0.67492  Biso   1.000  C
  C1472    1.0000 0.01139  0.43974  0.73519  Biso   1.000  C
  C1473    1.0000 0.00262  0.28189  0.82166  Biso   1.000  C
  H1746    1.0000 0.98480  0.28470  0.83510  Biso   1.000  H
  C1474    1.0000 0.00252  0.30739  0.79901  Biso   1.000  C
  H1747    1.0000 0.98430  0.32630  0.79730  Biso   1.000  H
  C1475    1.0000 0.02885  0.30569  0.77869  Biso   1.000  C
  C1476    1.0000 0.05402  0.27557  0.78247  Biso   1.000  C
  H1748    1.0000 0.07200  0.27220  0.76920  Biso   1.000  H
  C1477    1.0000 0.05264  0.25003  0.80610  Biso   1.000  C
  H1749    1.0000 0.07020  0.23050  0.80820  Biso   1.000  H
  C1478    1.0000 0.69999  0.47140  0.62840  Biso   1.000  C
  C1479    1.0000 0.67140  0.48018  0.64536  Biso   1.000  C
  H1750    1.0000 0.64780  0.47670  0.63770  Biso   1.000  H
  C1480    1.0000 0.67575  0.49372  0.67284  Biso   1.000  C
  C1481    1.0000 0.71089  0.49887  0.68442  Biso   1.000  C
  H1751    1.0000 0.71420  0.50960  0.70270  Biso   1.000  H
  C1482    1.0000 0.74182  0.48819  0.66906  Biso   1.000  C
  C1483    1.0000 0.73438  0.47530  0.64079  Biso   1.000  C
  H1752    1.0000 0.75410  0.46900  0.62980  Biso   1.000  H
  C1484    1.0000 0.69467  0.45772  0.59819  Biso   1.000  C
  C1485    1.0000 0.64520  0.50557  0.69129  Biso   1.000  C
  C1486    1.0000 0.82380  0.52871  0.70978  Biso   1.000  C
  H1753    1.0000 0.82860  0.54830  0.72330  Biso   1.000  H
  C1487    1.0000 0.78799  0.52200  0.70061  Biso   1.000  C
  H1754    1.0000 0.76950  0.53690  0.70820  Biso   1.000  H
  C1488    1.0000 0.77948  0.49456  0.68103  Biso   1.000  C
  C1489    1.0000 0.80753  0.46834  0.67482  Biso   1.000  C
  H1755    1.0000 0.80250  0.44600  0.66390  Biso   1.000  H
  C1490    1.0000 0.84337  0.47604  0.68524  Biso   1.000  C
  H1756    1.0000 0.86190  0.45830  0.68170  Biso   1.000  H
  C1491    1.0000 0.65322  0.24435  0.52318  Biso   1.000  C
  C1492    1.0000 0.61915  0.23373  0.53413  Biso   1.000  C
  H1757    1.0000 0.59940  0.25090  0.53250  Biso   1.000  H
  C1493    1.0000 0.61540  0.19806  0.54715  Biso   1.000  C
  C1494    1.0000 0.64483  0.17361  0.55023  Biso   1.000  C
  H1758    1.0000 0.64240  0.14980  0.55970  Biso   1.000  H
  C1495    1.0000 0.67830  0.18368  0.53952  Biso   1.000  C
  C1496    1.0000 0.68279  0.21836  0.52635  Biso   1.000  C
  H1759    1.0000 0.70540  0.22510  0.51940  Biso   1.000  H
  C1497    1.0000 0.65842  0.28558  0.51123  Biso   1.000  C
  C1498    1.0000 0.58055  0.18701  0.56117  Biso   1.000  C
  C1499    1.0000 0.76635  0.12776  0.53152  Biso   1.000  C
  H1760    1.0000 0.78440  0.12540  0.51820  Biso   1.000  H
  C1500    1.0000 0.73678  0.15308  0.52491  Biso   1.000  C
  H1761    1.0000 0.73560  0.16670  0.50760  Biso   1.000  H
  C1501    1.0000 0.70962  0.15758  0.54424  Biso   1.000  C
  C1502    1.0000 0.71293  0.13446  0.56718  Biso   1.000  C
  H1762    1.0000 0.69440  0.13460  0.58020  Biso   1.000  H
  C1503    1.0000 0.74366  0.10953  0.57257  Biso   1.000  C
  H1763    1.0000 0.74470  0.09440  0.58920  Biso   1.000  H
  C1504    1.0000 0.98938  0.32504  0.90340  Biso   1.000  C
  C1505    1.0000 0.96383  0.33423  0.92281  Biso   1.000  C
  H1764    1.0000 0.95840  0.31610  0.93690  Biso   1.000  H
  C1506    1.0000 0.94593  0.36958  0.92208  Biso   1.000  C
  C1507    1.0000 0.95414  0.39539  0.90079  Biso   1.000  C
  H1765    1.0000 0.94180  0.41920  0.89970  Biso   1.000  H
  C1508    1.0000 0.98059  0.38721  0.88037  Biso   1.000  C
  C1509    1.0000 0.99839  0.35159  0.88265  Biso   1.000  C
  H1766    1.0000 0.01660  0.34550  0.87010  Biso   1.000  H
  C1510    1.0000 0.00500  0.28496  0.90340  Biso   1.000  C
  C1511    1.0000 0.91663  0.37996  0.94154  Biso   1.000  C
  C1512    1.0000 0.02466  0.45056  0.82615  Biso   1.000  C
  H1767    1.0000 0.04790  0.45390  0.81920  Biso   1.000  H
  C1513    1.0000 0.02099  0.42365  0.84701  Biso   1.000  C
  H1768    1.0000 0.04120  0.40970  0.85420  Biso   1.000  H
  C1514    1.0000 0.98757  0.41700  0.85748  Biso   1.000  C
  C1515    1.0000 0.95976  0.44087  0.84590  Biso   1.000  C
  H1769    1.0000 0.93630  0.43860  0.85250  Biso   1.000  H
  C1516    1.0000 0.96665  0.46777  0.82483  Biso   1.000  C
  H1770    1.0000 0.94740  0.48310  0.81760  Biso   1.000  H
  C1517    1.0000 0.87704  0.08964  0.83389  Biso   1.000  C
  C1518    1.0000 0.84663  0.08056  0.84837  Biso   1.000  C
  H1771    1.0000 0.84660  0.08400  0.86820  Biso   1.000  H
  C1519    1.0000 0.81596  0.06631  0.83385  Biso   1.000  C
  C1520    1.0000 0.81569  0.06099  0.80440  Biso   1.000  C
  H1772    1.0000 0.79500  0.05130  0.79460  Biso   1.000  H
  C1521    1.0000 0.84709  0.07031  0.78938  Biso   1.000  C
  C1522    1.0000 0.87727  0.08502  0.80475  Biso   1.000  C
  H1773    1.0000 0.89800  0.09190  0.79510  Biso   1.000  H
  C1523    1.0000 0.91161  0.10471  0.84922  Biso   1.000  C
  C1524    1.0000 0.78106  0.05508  0.84850  Biso   1.000  C
  N41      1.0000 0.85829  0.04351  0.70056  Biso   1.000  N
  C1525    1.0000 0.82580  0.05250  0.71180  Biso   1.000  C
  H1774    1.0000 0.80520  0.05370  0.69950  Biso   1.000  H
  C1526    1.0000 0.82200  0.05979  0.74007  Biso   1.000  C
  H1775    1.0000 0.79900  0.06530  0.74660  Biso   1.000  H
  C1527    1.0000 0.85030  0.05930  0.75854  Biso   1.000  C
  C1528    1.0000 0.88400  0.04830  0.74899  Biso   1.000  C
  H1776    1.0000 0.90400  0.04560  0.76180  Biso   1.000  H
  C1529    1.0000 0.88730  0.04160  0.72035  Biso   1.000  C
  H1777    1.0000 0.91030  0.03540  0.71380  Biso   1.000  H
  N42      1.0000 0.85009  0.05870  0.69803  Biso   1.000  N
  C1530    1.0000 0.83319  0.03180  0.71276  Biso   1.000  C
  H1778    1.0000 0.82300  0.01020  0.70330  Biso   1.000  H
  C1531    1.0000 0.83019  0.03520  0.74267  Biso   1.000  C
  H1779    1.0000 0.81790  0.01630  0.75290  Biso   1.000  H
  C1532    1.0000 0.84660  0.06870  0.75728  Biso   1.000  C
  C1533    1.0000 0.86210  0.09610  0.73932  Biso   1.000  C
  H1780    1.0000 0.87210  0.11880  0.74750  Biso   1.000  H
  C1534    1.0000 0.86340  0.09130  0.71039  Biso   1.000  C
  H1781    1.0000 0.87360  0.11080  0.69920  Biso   1.000  H
  O244     1.0000 0.93374  0.48576  0.72100  Biso   1.000  O
  O245     1.0000 0.91243  0.47781  0.76408  Biso   1.000  O
  C1535    1.0000 0.92546  0.46487  0.74159  Biso   1.000  C
  H1782    1.0000 0.92920  0.43800  0.74020  Biso   1.000  H
  O246     1.0000 0.92790  0.35200  0.66071  Biso   1.000  O
  H1783    1.0000 0.93250  0.33420  0.64890  Biso   1.000  H
  O247     1.0000 0.95254  0.30853  0.69008  Biso   1.000  O
  N43      1.0000 0.89901  0.28183  0.83906  Biso   1.000  N
  C1536    1.0000 0.92223  0.42065  0.73706  Biso   1.000  C
  C1537    1.0000 0.92645  0.40305  0.71030  Biso   1.000  C
  H1784    1.0000 0.92900  0.41680  0.69330  Biso   1.000  H
  C1538    1.0000 0.92637  0.36246  0.71231  Biso   1.000  C
  C1539    1.0000 0.92041  0.34140  0.73711  Biso   1.000  C
  H1785    1.0000 0.91960  0.31420  0.73590  Biso   1.000  H
  C1540    1.0000 0.91558  0.35887  0.76371  Biso   1.000  C
  C1541    1.0000 0.91610  0.39921  0.76146  Biso   1.000  C
  H1786    1.0000 0.91190  0.41330  0.77810  Biso   1.000  H
  C1542    1.0000 0.92344  0.46447  0.74008  Biso   1.000  C
  C1543    1.0000 0.93375  0.33969  0.68558  Biso   1.000  C
  C1544    1.0000 0.90280  0.26860  0.81185  Biso   1.000  C
  H1787    1.0000 0.90280  0.24160  0.80900  Biso   1.000  H
  C1545    1.0000 0.90670  0.29298  0.78740  Biso   1.000  C
  H1788    1.0000 0.90800  0.28120  0.76950  Biso   1.000  H
  C1546    1.0000 0.90850  0.33377  0.78908  Biso   1.000  C
  C1547    1.0000 0.90680  0.34896  0.81631  Biso   1.000  C
  H1789    1.0000 0.90760  0.37580  0.81970  Biso   1.000  H
  C1548    1.0000 0.90390  0.32147  0.83909  Biso   1.000  C
  H1790    1.0000 0.90570  0.33260  0.85730  Biso   1.000  H
  O248     1.0000 0.79271  0.09088  0.63161  Biso   1.000  O
  O249     1.0000 0.83856  0.09487  0.60231  Biso   1.000  O
  O250     1.0000 0.84883  0.09068  0.64929  Biso   1.000  O
  C1549    1.0000 0.82600  0.09580  0.62694  Biso   1.000  C
  O251     1.0000 0.79990  0.08890  0.63301  Biso   1.000  O
  O252     1.0000 0.85320  0.08610  0.62775  Biso   1.000  O
  C1550    1.0000 0.82760  0.11469  0.62888  Biso   1.000  C
  N44      1.0000 0.83061  0.15466  0.63202  Biso   1.000  N
  C1551    1.0000 0.86204  0.18210  0.63820  Biso   1.000  C
  H1791    1.0000 0.85320  0.20860  0.63880  Biso   1.000  H
  H1792    1.0000 0.87930  0.17970  0.62340  Biso   1.000  H
  H1793    1.0000 0.87370  0.17550  0.65640  Biso   1.000  H
  C1552    1.0000 0.79925  0.18270  0.62690  Biso   1.000  C
  H1794    1.0000 0.80760  0.20900  0.63040  Biso   1.000  H
  H1795    1.0000 0.78020  0.17660  0.63980  Biso   1.000  H
  H1796    1.0000 0.79000  0.18030  0.60750  Biso   1.000  H
