data_image0
_cell_length_a       18.6731
_cell_length_b       18.6731
_cell_length_c       30.862
_cell_angle_alpha    90
_cell_angle_beta     90
_cell_angle_gamma    90

_symmetry_space_group_name_H-M    "P 1"
_symmetry_int_tables_number       1

loop_
  _symmetry_equiv_pos_as_xyz
  'x, y, z'

loop_
  _atom_site_label
  _atom_site_occupancy
  _atom_site_fract_x
  _atom_site_fract_y
  _atom_site_fract_z
  _atom_site_thermal_displace_type
  _atom_site_B_iso_or_equiv
  _atom_site_type_symbol
  O1       1.0000 0.99840  0.62790  0.39540  Biso   1.000  O
  C1       1.0000 0.94410  0.53240  0.35990  Biso   1.000  C
  H1       1.0000 0.90470  0.53390  0.37930  Biso   1.000  H
  C2       1.0000 0.94540  0.48220  0.32670  Biso   1.000  C
  H2       1.0000 0.90690  0.44940  0.32340  Biso   1.000  H
  N1       1.0000 0.00310  0.47990  0.29820  Biso   1.000  N
  C3       1.0000 0.94050  0.52790  0.30310  Biso   1.000  C
  H3       1.0000 0.90110  0.52640  0.28360  Biso   1.000  H
  C4       1.0000 0.05810  0.57810  0.33630  Biso   1.000  C
  H4       1.0000 0.09670  0.61090  0.33960  Biso   1.000  H
  C5       1.0000 0.00300  0.43140  0.26300  Biso   1.000  C
  C6       1.0000 0.06310  0.39040  0.25340  Biso   1.000  C
  H5       1.0000 0.10520  0.39510  0.27050  Biso   1.000  H
  C7       1.0000 0.06160  0.34260  0.21890  Biso   1.000  C
  H6       1.0000 0.10270  0.31460  0.21240  Biso   1.000  H
  C8       1.0000 0.06010  0.37670  0.20350  Biso   1.000  C
  H7       1.0000 0.10220  0.37200  0.18650  Biso   1.000  H
  C9       1.0000 0.94140  0.42450  0.23800  Biso   1.000  C
  H8       1.0000 0.90030  0.45250  0.24450  Biso   1.000  H
  O2       1.0000 0.93210  0.77480  0.33000  Biso   1.000  O
  C10      1.0000 0.87730  0.77020  0.30410  Biso   1.000  C
  C11      1.0000 0.82220  0.72270  0.31390  Biso   1.000  C
  H9       1.0000 0.82480  0.69410  0.33930  Biso   1.000  H
  C12      1.0000 0.76340  0.71710  0.28650  Biso   1.000  C
  H10      1.0000 0.72580  0.68470  0.29320  Biso   1.000  H
  N2       1.0000 0.24030  0.75900  0.24930  Biso   1.000  N
  C13      1.0000 0.18530  0.80640  0.23950  Biso   1.000  C
  H11      1.0000 0.81220  0.83500  0.21410  Biso   1.000  H
  C14      1.0000 0.87350  0.81200  0.26700  Biso   1.000  C
  H12      1.0000 0.91110  0.84440  0.26030  Biso   1.000  H
  C15      1.0000 0.20170  0.75280  0.27880  Biso   1.000  C
  C16      1.0000 0.13680  0.78440  0.26810  Biso   1.000  C
  H13      1.0000 0.62990  0.80400  0.26010  Biso   1.000  H
  C17      1.0000 0.08180  0.78740  0.29840  Biso   1.000  C
  H14      1.0000 0.53740  0.80900  0.20900  Biso   1.000  H
  N3       1.0000 0.09190  0.75880  0.33950  Biso   1.000  N
  C18      1.0000 0.15690  0.72710  0.35030  Biso   1.000  C
  H15      1.0000 0.66370  0.70750  0.12160  Biso   1.000  H
  C19      1.0000 0.21180  0.72410  0.32000  Biso   1.000  C
  H16      1.0000 0.25620  0.70250  0.32730  Biso   1.000  H
  O3       1.0000 0.49840  0.12790  0.89540  Biso   1.000  O
  C20      1.0000 0.44410  0.03240  0.85990  Biso   1.000  C
  H17      1.0000 0.40470  0.03390  0.87930  Biso   1.000  H
  C21      1.0000 0.44540  0.98220  0.82670  Biso   1.000  C
  H18      1.0000 0.40690  0.94940  0.82340  Biso   1.000  H
  N4       1.0000 0.50310  0.97990  0.79820  Biso   1.000  N
  C22      1.0000 0.44050  0.02790  0.80310  Biso   1.000  C
  H19      1.0000 0.40110  0.02640  0.78360  Biso   1.000  H
  C23      1.0000 0.55810  0.07810  0.83630  Biso   1.000  C
  H20      1.0000 0.59670  0.11090  0.83960  Biso   1.000  H
  C24      1.0000 0.50300  0.93140  0.76300  Biso   1.000  C
  C25      1.0000 0.56310  0.89040  0.75340  Biso   1.000  C
  H21      1.0000 0.60520  0.89510  0.77050  Biso   1.000  H
  C26      1.0000 0.56160  0.84260  0.71890  Biso   1.000  C
  H22      1.0000 0.60270  0.81460  0.71240  Biso   1.000  H
  C27      1.0000 0.56010  0.87670  0.70350  Biso   1.000  C
  H23      1.0000 0.60220  0.87200  0.68650  Biso   1.000  H
  C28      1.0000 0.44140  0.92450  0.73800  Biso   1.000  C
  H24      1.0000 0.40030  0.95250  0.74450  Biso   1.000  H
  O4       1.0000 0.43210  0.27480  0.83000  Biso   1.000  O
  C29      1.0000 0.37730  0.27020  0.80410  Biso   1.000  C
  C30      1.0000 0.32220  0.22270  0.81390  Biso   1.000  C
  H25      1.0000 0.32480  0.19410  0.83930  Biso   1.000  H
  C31      1.0000 0.26340  0.21710  0.78650  Biso   1.000  C
  H26      1.0000 0.22580  0.18470  0.79320  Biso   1.000  H
  N5       1.0000 0.74030  0.25900  0.74930  Biso   1.000  N
  C32      1.0000 0.68530  0.30640  0.73950  Biso   1.000  C
  H27      1.0000 0.31220  0.33500  0.71410  Biso   1.000  H
  C33      1.0000 0.37350  0.31200  0.76700  Biso   1.000  C
  H28      1.0000 0.41110  0.34440  0.76030  Biso   1.000  H
  C34      1.0000 0.70170  0.25280  0.77880  Biso   1.000  C
  C35      1.0000 0.63680  0.28440  0.76810  Biso   1.000  C
  H29      1.0000 0.12990  0.30400  0.76010  Biso   1.000  H
  C36      1.0000 0.58180  0.28740  0.79840  Biso   1.000  C
  H30      1.0000 0.03740  0.30900  0.70900  Biso   1.000  H
  N6       1.0000 0.59190  0.25880  0.83950  Biso   1.000  N
  C37      1.0000 0.65690  0.22710  0.85030  Biso   1.000  C
  H31      1.0000 0.16370  0.20750  0.62160  Biso   1.000  H
  C38      1.0000 0.71180  0.22410  0.82000  Biso   1.000  C
  H32      1.0000 0.75620  0.20250  0.82730  Biso   1.000  H
  O5       1.0000 0.50160  0.37210  0.89540  Biso   1.000  O
  C39      1.0000 0.55590  0.46760  0.85990  Biso   1.000  C
  H33      1.0000 0.59530  0.46610  0.87930  Biso   1.000  H
  C40      1.0000 0.55460  0.51780  0.82670  Biso   1.000  C
  H34      1.0000 0.59310  0.55060  0.82340  Biso   1.000  H
  N7       1.0000 0.49690  0.52010  0.79820  Biso   1.000  N
  C41      1.0000 0.55950  0.47210  0.80310  Biso   1.000  C
  H35      1.0000 0.59890  0.47360  0.78360  Biso   1.000  H
  C42      1.0000 0.44190  0.42190  0.83630  Biso   1.000  C
  H36      1.0000 0.40330  0.38910  0.83960  Biso   1.000  H
  C43      1.0000 0.49700  0.56860  0.76300  Biso   1.000  C
  C44      1.0000 0.43690  0.60960  0.75340  Biso   1.000  C
  H37      1.0000 0.39480  0.60490  0.77050  Biso   1.000  H
  C45      1.0000 0.43840  0.65740  0.71890  Biso   1.000  C
  H38      1.0000 0.39730  0.68540  0.71240  Biso   1.000  H
  C46      1.0000 0.43990  0.62330  0.70350  Biso   1.000  C
  H39      1.0000 0.39780  0.62800  0.68650  Biso   1.000  H
  C47      1.0000 0.55860  0.57550  0.73800  Biso   1.000  C
  H40      1.0000 0.59970  0.54750  0.74450  Biso   1.000  H
  O6       1.0000 0.56790  0.22520  0.83000  Biso   1.000  O
  C48      1.0000 0.62270  0.22980  0.80410  Biso   1.000  C
  C49      1.0000 0.67780  0.27730  0.81390  Biso   1.000  C
  H41      1.0000 0.67520  0.30590  0.83930  Biso   1.000  H
  C50      1.0000 0.73660  0.28290  0.78650  Biso   1.000  C
  H42      1.0000 0.77420  0.31530  0.79320  Biso   1.000  H
  N8       1.0000 0.25970  0.24100  0.74930  Biso   1.000  N
  C51      1.0000 0.31470  0.19360  0.73950  Biso   1.000  C
  H43      1.0000 0.68780  0.16500  0.71410  Biso   1.000  H
  C52      1.0000 0.62650  0.18800  0.76700  Biso   1.000  C
  H44      1.0000 0.58890  0.15560  0.76030  Biso   1.000  H
  C53      1.0000 0.29830  0.24720  0.77880  Biso   1.000  C
  C54      1.0000 0.36320  0.21560  0.76810  Biso   1.000  C
  H45      1.0000 0.87010  0.19600  0.76010  Biso   1.000  H
  C55      1.0000 0.41820  0.21260  0.79840  Biso   1.000  C
  H46      1.0000 0.96260  0.19100  0.70900  Biso   1.000  H
  N9       1.0000 0.40810  0.24120  0.83950  Biso   1.000  N
  C56      1.0000 0.34310  0.27290  0.85030  Biso   1.000  C
  H47      1.0000 0.83630  0.29250  0.62160  Biso   1.000  H
  C57      1.0000 0.28820  0.27590  0.82000  Biso   1.000  C
  H48      1.0000 0.24380  0.29750  0.82730  Biso   1.000  H
  O7       1.0000 0.00160  0.87210  0.39540  Biso   1.000  O
  C58      1.0000 0.05590  0.96760  0.35990  Biso   1.000  C
  H49      1.0000 0.09530  0.96610  0.37930  Biso   1.000  H
  C59      1.0000 0.05460  0.01780  0.32670  Biso   1.000  C
  H50      1.0000 0.09310  0.05060  0.32340  Biso   1.000  H
  N10      1.0000 0.99690  0.02010  0.29820  Biso   1.000  N
  C60      1.0000 0.05950  0.97210  0.30310  Biso   1.000  C
  H51      1.0000 0.09890  0.97360  0.28360  Biso   1.000  H
  C61      1.0000 0.94190  0.92190  0.33630  Biso   1.000  C
  H52      1.0000 0.90330  0.88910  0.33960  Biso   1.000  H
  C62      1.0000 0.99700  0.06860  0.26300  Biso   1.000  C
  C63      1.0000 0.93690  0.10960  0.25340  Biso   1.000  C
  H53      1.0000 0.89480  0.10490  0.27050  Biso   1.000  H
  C64      1.0000 0.93840  0.15740  0.21890  Biso   1.000  C
  H54      1.0000 0.89730  0.18540  0.21240  Biso   1.000  H
  C65      1.0000 0.93990  0.12330  0.20350  Biso   1.000  C
  H55      1.0000 0.89780  0.12800  0.18650  Biso   1.000  H
  C66      1.0000 0.05860  0.07550  0.23800  Biso   1.000  C
  H56      1.0000 0.09970  0.04750  0.24450  Biso   1.000  H
  O8       1.0000 0.06790  0.72520  0.33000  Biso   1.000  O
  C67      1.0000 0.12270  0.72980  0.30410  Biso   1.000  C
  C68      1.0000 0.17780  0.77730  0.31390  Biso   1.000  C
  H57      1.0000 0.17520  0.80590  0.33930  Biso   1.000  H
  C69      1.0000 0.23660  0.78290  0.28650  Biso   1.000  C
  H58      1.0000 0.27420  0.81530  0.29320  Biso   1.000  H
  N11      1.0000 0.75970  0.74100  0.24930  Biso   1.000  N
  C70      1.0000 0.81470  0.69360  0.23950  Biso   1.000  C
  H59      1.0000 0.18780  0.66500  0.21410  Biso   1.000  H
  C71      1.0000 0.12650  0.68800  0.26700  Biso   1.000  C
  H60      1.0000 0.08890  0.65560  0.26030  Biso   1.000  H
  C72      1.0000 0.79830  0.74720  0.27880  Biso   1.000  C
  C73      1.0000 0.86320  0.71560  0.26810  Biso   1.000  C
  H61      1.0000 0.37010  0.69600  0.26010  Biso   1.000  H
  C74      1.0000 0.91820  0.71260  0.29840  Biso   1.000  C
  H62      1.0000 0.46260  0.69100  0.20900  Biso   1.000  H
  N12      1.0000 0.90810  0.74120  0.33950  Biso   1.000  N
  C75      1.0000 0.84310  0.77290  0.35030  Biso   1.000  C
  H63      1.0000 0.33630  0.79250  0.12160  Biso   1.000  H
  C76      1.0000 0.78820  0.77590  0.32000  Biso   1.000  C
  H64      1.0000 0.74380  0.79750  0.32730  Biso   1.000  H
  O9       1.0000 0.62210  0.74840  0.64540  Biso   1.000  O
  C77      1.0000 0.71760  0.69410  0.60990  Biso   1.000  C
  H65      1.0000 0.71610  0.65470  0.62930  Biso   1.000  H
  C78      1.0000 0.76780  0.69540  0.57670  Biso   1.000  C
  H66      1.0000 0.80060  0.65690  0.57340  Biso   1.000  H
  N13      1.0000 0.77010  0.75310  0.54820  Biso   1.000  N
  C79      1.0000 0.72210  0.69050  0.55310  Biso   1.000  C
  H67      1.0000 0.72360  0.65110  0.53360  Biso   1.000  H
  C80      1.0000 0.67190  0.80810  0.58630  Biso   1.000  C
  H68      1.0000 0.63910  0.84670  0.58960  Biso   1.000  H
  C81      1.0000 0.81860  0.75300  0.51300  Biso   1.000  C
  C82      1.0000 0.85960  0.81310  0.50340  Biso   1.000  C
  H69      1.0000 0.85490  0.85520  0.52050  Biso   1.000  H
  C83      1.0000 0.90740  0.81160  0.46890  Biso   1.000  C
  H70      1.0000 0.93540  0.85270  0.46240  Biso   1.000  H
  C84      1.0000 0.87330  0.81010  0.45350  Biso   1.000  C
  H71      1.0000 0.87800  0.85220  0.43650  Biso   1.000  H
  C85      1.0000 0.82550  0.69140  0.48800  Biso   1.000  C
  H72      1.0000 0.79750  0.65030  0.49450  Biso   1.000  H
  O10      1.0000 0.47520  0.68210  0.58000  Biso   1.000  O
  C86      1.0000 0.47980  0.62730  0.55410  Biso   1.000  C
  C87      1.0000 0.52730  0.57220  0.56390  Biso   1.000  C
  H73      1.0000 0.55590  0.57480  0.58930  Biso   1.000  H
  C88      1.0000 0.53290  0.51340  0.53650  Biso   1.000  C
  H74      1.0000 0.56530  0.47580  0.54320  Biso   1.000  H
  N14      1.0000 0.49100  0.99030  0.49930  Biso   1.000  N
  C89      1.0000 0.44360  0.93530  0.48950  Biso   1.000  C
  H75      1.0000 0.41500  0.56220  0.46410  Biso   1.000  H
  C90      1.0000 0.43800  0.62350  0.51700  Biso   1.000  C
  H76      1.0000 0.40560  0.66110  0.51030  Biso   1.000  H
  C91      1.0000 0.49720  0.95170  0.52880  Biso   1.000  C
  C92      1.0000 0.46560  0.88680  0.51810  Biso   1.000  C
  H77      1.0000 0.44600  0.37990  0.51010  Biso   1.000  H
  C93      1.0000 0.46260  0.83180  0.54840  Biso   1.000  C
  H78      1.0000 0.44100  0.28740  0.45900  Biso   1.000  H
  N15      1.0000 0.49120  0.84190  0.58950  Biso   1.000  N
  C94      1.0000 0.52290  0.90690  0.60030  Biso   1.000  C
  H79      1.0000 0.54250  0.41370  0.37160  Biso   1.000  H
  C95      1.0000 0.52590  0.96180  0.57000  Biso   1.000  C
  H80      1.0000 0.54750  0.00620  0.57730  Biso   1.000  H
  O11      1.0000 0.12210  0.24840  0.14540  Biso   1.000  O
  C96      1.0000 0.21760  0.19410  0.10990  Biso   1.000  C
  H81      1.0000 0.21610  0.15470  0.12930  Biso   1.000  H
  C97      1.0000 0.26780  0.19540  0.07670  Biso   1.000  C
  H82      1.0000 0.30060  0.15690  0.07340  Biso   1.000  H
  N16      1.0000 0.27010  0.25310  0.04820  Biso   1.000  N
  C98      1.0000 0.22210  0.19050  0.05310  Biso   1.000  C
  H83      1.0000 0.22360  0.15110  0.03360  Biso   1.000  H
  C99      1.0000 0.17190  0.30810  0.08630  Biso   1.000  C
  H84      1.0000 0.13910  0.34670  0.08960  Biso   1.000  H
  C100     1.0000 0.31860  0.25300  0.01300  Biso   1.000  C
  C101     1.0000 0.35960  0.31310  0.00340  Biso   1.000  C
  H85      1.0000 0.35490  0.35520  0.02050  Biso   1.000  H
  C102     1.0000 0.40740  0.31160  0.96890  Biso   1.000  C
  H86      1.0000 0.43540  0.35270  0.96240  Biso   1.000  H
  C103     1.0000 0.37330  0.31010  0.95350  Biso   1.000  C
  H87      1.0000 0.37800  0.35220  0.93650  Biso   1.000  H
  C104     1.0000 0.32550  0.19140  0.98800  Biso   1.000  C
  H88      1.0000 0.29750  0.15030  0.99450  Biso   1.000  H
  O12      1.0000 0.97520  0.18210  0.08000  Biso   1.000  O
  C105     1.0000 0.97980  0.12730  0.05410  Biso   1.000  C
  C106     1.0000 0.02730  0.07220  0.06390  Biso   1.000  C
  H89      1.0000 0.05590  0.07480  0.08930  Biso   1.000  H
  C107     1.0000 0.03290  0.01340  0.03650  Biso   1.000  C
  H90      1.0000 0.06530  0.97580  0.04320  Biso   1.000  H
  N17      1.0000 0.99100  0.49030  0.99930  Biso   1.000  N
  C108     1.0000 0.94360  0.43530  0.98950  Biso   1.000  C
  H91      1.0000 0.91500  0.06220  0.96410  Biso   1.000  H
  C109     1.0000 0.93800  0.12350  0.01700  Biso   1.000  C
  H92      1.0000 0.90560  0.16110  0.01030  Biso   1.000  H
  C110     1.0000 0.99720  0.45170  0.02880  Biso   1.000  C
  C111     1.0000 0.96560  0.38680  0.01810  Biso   1.000  C
  H93      1.0000 0.94600  0.87990  0.01010  Biso   1.000  H
  C112     1.0000 0.96260  0.33180  0.04840  Biso   1.000  C
  H94      1.0000 0.94100  0.78740  0.95900  Biso   1.000  H
  N18      1.0000 0.99120  0.34190  0.08950  Biso   1.000  N
  C113     1.0000 0.02290  0.40690  0.10030  Biso   1.000  C
  H95      1.0000 0.04250  0.91370  0.87160  Biso   1.000  H
  C114     1.0000 0.02590  0.46180  0.07000  Biso   1.000  C
  H96      1.0000 0.04750  0.50620  0.07730  Biso   1.000  H
  O13      1.0000 0.87790  0.25160  0.14540  Biso   1.000  O
  C115     1.0000 0.78240  0.30590  0.10990  Biso   1.000  C
  H97      1.0000 0.78390  0.34530  0.12930  Biso   1.000  H
  C116     1.0000 0.73220  0.30460  0.07670  Biso   1.000  C
  H98      1.0000 0.69940  0.34310  0.07340  Biso   1.000  H
  N19      1.0000 0.72990  0.24690  0.04820  Biso   1.000  N
  C117     1.0000 0.77790  0.30950  0.05310  Biso   1.000  C
  H99      1.0000 0.77640  0.34890  0.03360  Biso   1.000  H
  C118     1.0000 0.82810  0.19190  0.08630  Biso   1.000  C
  H100     1.0000 0.86090  0.15330  0.08960  Biso   1.000  H
  C119     1.0000 0.68140  0.24700  0.01300  Biso   1.000  C
  C120     1.0000 0.64040  0.18690  0.00340  Biso   1.000  C
  H101     1.0000 0.64510  0.14480  0.02050  Biso   1.000  H
  C121     1.0000 0.59260  0.18840  0.96890  Biso   1.000  C
  H102     1.0000 0.56460  0.14730  0.96240  Biso   1.000  H
  C122     1.0000 0.62670  0.18990  0.95350  Biso   1.000  C
  H103     1.0000 0.62200  0.14780  0.93650  Biso   1.000  H
  C123     1.0000 0.67450  0.30860  0.98800  Biso   1.000  C
  H104     1.0000 0.70250  0.34970  0.99450  Biso   1.000  H
  O14      1.0000 0.02480  0.31790  0.08000  Biso   1.000  O
  C124     1.0000 0.02020  0.37270  0.05410  Biso   1.000  C
  C125     1.0000 0.97270  0.42780  0.06390  Biso   1.000  C
  H105     1.0000 0.94410  0.42520  0.08930  Biso   1.000  H
  C126     1.0000 0.96710  0.48660  0.03650  Biso   1.000  C
  H106     1.0000 0.93470  0.52420  0.04320  Biso   1.000  H
  N20      1.0000 0.00900  0.00970  0.99930  Biso   1.000  N
  C127     1.0000 0.05640  0.06470  0.98950  Biso   1.000  C
  H107     1.0000 0.08500  0.43780  0.96410  Biso   1.000  H
  C128     1.0000 0.06200  0.37650  0.01700  Biso   1.000  C
  H108     1.0000 0.09440  0.33890  0.01030  Biso   1.000  H
  C129     1.0000 0.00280  0.04830  0.02880  Biso   1.000  C
  C130     1.0000 0.03440  0.11320  0.01810  Biso   1.000  C
  H109     1.0000 0.05400  0.62010  0.01010  Biso   1.000  H
  C131     1.0000 0.03740  0.16820  0.04840  Biso   1.000  C
  H110     1.0000 0.05900  0.71260  0.95900  Biso   1.000  H
  N21      1.0000 0.00880  0.15810  0.08950  Biso   1.000  N
  C132     1.0000 0.97710  0.09310  0.10030  Biso   1.000  C
  H111     1.0000 0.95750  0.58630  0.87160  Biso   1.000  H
  C133     1.0000 0.97410  0.03820  0.07000  Biso   1.000  C
  H112     1.0000 0.95250  0.99380  0.07730  Biso   1.000  H
  O15      1.0000 0.37790  0.75160  0.64540  Biso   1.000  O
  C134     1.0000 0.28240  0.80590  0.60990  Biso   1.000  C
  H113     1.0000 0.28390  0.84530  0.62930  Biso   1.000  H
  C135     1.0000 0.23220  0.80460  0.57670  Biso   1.000  C
  H114     1.0000 0.19940  0.84310  0.57340  Biso   1.000  H
  N22      1.0000 0.22990  0.74690  0.54820  Biso   1.000  N
  C136     1.0000 0.27790  0.80950  0.55310  Biso   1.000  C
  H115     1.0000 0.27640  0.84890  0.53360  Biso   1.000  H
  C137     1.0000 0.32810  0.69190  0.58630  Biso   1.000  C
  H116     1.0000 0.36090  0.65330  0.58960  Biso   1.000  H
  C138     1.0000 0.18140  0.74700  0.51300  Biso   1.000  C
  C139     1.0000 0.14040  0.68690  0.50340  Biso   1.000  C
  H117     1.0000 0.14510  0.64480  0.52050  Biso   1.000  H
  C140     1.0000 0.09260  0.68840  0.46890  Biso   1.000  C
  H118     1.0000 0.06460  0.64730  0.46240  Biso   1.000  H
  C141     1.0000 0.12670  0.68990  0.45350  Biso   1.000  C
  H119     1.0000 0.12200  0.64780  0.43650  Biso   1.000  H
  C142     1.0000 0.17450  0.80860  0.48800  Biso   1.000  C
  H120     1.0000 0.20250  0.84970  0.49450  Biso   1.000  H
  O16      1.0000 0.52480  0.81790  0.58000  Biso   1.000  O
  C143     1.0000 0.52020  0.87270  0.55410  Biso   1.000  C
  C144     1.0000 0.47270  0.92780  0.56390  Biso   1.000  C
  H121     1.0000 0.44410  0.92520  0.58930  Biso   1.000  H
  C145     1.0000 0.46710  0.98660  0.53650  Biso   1.000  C
  H122     1.0000 0.43470  0.02420  0.54320  Biso   1.000  H
  N23      1.0000 0.50900  0.50970  0.49930  Biso   1.000  N
  C146     1.0000 0.55640  0.56470  0.48950  Biso   1.000  C
  H123     1.0000 0.58500  0.93780  0.46410  Biso   1.000  H
  C147     1.0000 0.56200  0.87650  0.51700  Biso   1.000  C
  H124     1.0000 0.59440  0.83890  0.51030  Biso   1.000  H
  C148     1.0000 0.50280  0.54830  0.52880  Biso   1.000  C
  C149     1.0000 0.53440  0.61320  0.51810  Biso   1.000  C
  H125     1.0000 0.55400  0.12010  0.51010  Biso   1.000  H
  C150     1.0000 0.53740  0.66820  0.54840  Biso   1.000  C
  H126     1.0000 0.55900  0.21260  0.45900  Biso   1.000  H
  N24      1.0000 0.50880  0.65810  0.58950  Biso   1.000  N
  C151     1.0000 0.47710  0.59310  0.60030  Biso   1.000  C
  H127     1.0000 0.45750  0.08630  0.37160  Biso   1.000  H
  C152     1.0000 0.47410  0.53820  0.57000  Biso   1.000  C
  H128     1.0000 0.45250  0.49380  0.57730  Biso   1.000  H
  O17      1.0000 0.50160  0.62790  0.10460  Biso   1.000  O
  C153     1.0000 0.55590  0.53240  0.14010  Biso   1.000  C
  H129     1.0000 0.59530  0.53390  0.12070  Biso   1.000  H
  C154     1.0000 0.55460  0.48220  0.17330  Biso   1.000  C
  H130     1.0000 0.59310  0.44940  0.17660  Biso   1.000  H
  N25      1.0000 0.49690  0.47990  0.20180  Biso   1.000  N
  C155     1.0000 0.55950  0.52790  0.19690  Biso   1.000  C
  H131     1.0000 0.59890  0.52640  0.21640  Biso   1.000  H
  C156     1.0000 0.44190  0.57810  0.16370  Biso   1.000  C
  H132     1.0000 0.40330  0.61090  0.16040  Biso   1.000  H
  C157     1.0000 0.49700  0.43140  0.23700  Biso   1.000  C
  C158     1.0000 0.43690  0.39040  0.24660  Biso   1.000  C
  H133     1.0000 0.39480  0.39510  0.22950  Biso   1.000  H
  C159     1.0000 0.43840  0.34260  0.28110  Biso   1.000  C
  H134     1.0000 0.39730  0.31460  0.28760  Biso   1.000  H
  C160     1.0000 0.43990  0.37670  0.29650  Biso   1.000  C
  H135     1.0000 0.39780  0.37200  0.31350  Biso   1.000  H
  C161     1.0000 0.55860  0.42450  0.26200  Biso   1.000  C
  H136     1.0000 0.59970  0.45250  0.25550  Biso   1.000  H
  O18      1.0000 0.56790  0.77480  0.17000  Biso   1.000  O
  C162     1.0000 0.62270  0.77020  0.19590  Biso   1.000  C
  C163     1.0000 0.67780  0.72270  0.18610  Biso   1.000  C
  H137     1.0000 0.67520  0.69410  0.16070  Biso   1.000  H
  C164     1.0000 0.73660  0.71710  0.21350  Biso   1.000  C
  H138     1.0000 0.77420  0.68470  0.20680  Biso   1.000  H
  N26      1.0000 0.25970  0.75900  0.25070  Biso   1.000  N
  C165     1.0000 0.31470  0.80640  0.26050  Biso   1.000  C
  H139     1.0000 0.68780  0.83500  0.28590  Biso   1.000  H
  C166     1.0000 0.62650  0.81200  0.23300  Biso   1.000  C
  H140     1.0000 0.58890  0.84440  0.23970  Biso   1.000  H
  C167     1.0000 0.29830  0.75280  0.22120  Biso   1.000  C
  C168     1.0000 0.36320  0.78440  0.23190  Biso   1.000  C
  H141     1.0000 0.87010  0.80400  0.23990  Biso   1.000  H
  C169     1.0000 0.41820  0.78740  0.20160  Biso   1.000  C
  H142     1.0000 0.96260  0.80900  0.29100  Biso   1.000  H
  N27      1.0000 0.40810  0.75880  0.16050  Biso   1.000  N
  C170     1.0000 0.34310  0.72710  0.14970  Biso   1.000  C
  H143     1.0000 0.83630  0.70750  0.37840  Biso   1.000  H
  C171     1.0000 0.28820  0.72410  0.18000  Biso   1.000  C
  H144     1.0000 0.24380  0.70250  0.17270  Biso   1.000  H
  O19      1.0000 0.00160  0.12790  0.60460  Biso   1.000  O
  C172     1.0000 0.05590  0.03240  0.64010  Biso   1.000  C
  H145     1.0000 0.09530  0.03390  0.62070  Biso   1.000  H
  C173     1.0000 0.05460  0.98220  0.67330  Biso   1.000  C
  H146     1.0000 0.09310  0.94940  0.67660  Biso   1.000  H
  N28      1.0000 0.99690  0.97990  0.70180  Biso   1.000  N
  C174     1.0000 0.05950  0.02790  0.69690  Biso   1.000  C
  H147     1.0000 0.09890  0.02640  0.71640  Biso   1.000  H
  C175     1.0000 0.94190  0.07810  0.66370  Biso   1.000  C
  H148     1.0000 0.90330  0.11090  0.66040  Biso   1.000  H
  C176     1.0000 0.99700  0.93140  0.73700  Biso   1.000  C
  C177     1.0000 0.93690  0.89040  0.74660  Biso   1.000  C
  H149     1.0000 0.89480  0.89510  0.72950  Biso   1.000  H
  C178     1.0000 0.93840  0.84260  0.78110  Biso   1.000  C
  H150     1.0000 0.89730  0.81460  0.78760  Biso   1.000  H
  C179     1.0000 0.93990  0.87670  0.79650  Biso   1.000  C
  H151     1.0000 0.89780  0.87200  0.81350  Biso   1.000  H
  C180     1.0000 0.05860  0.92450  0.76200  Biso   1.000  C
  H152     1.0000 0.09970  0.95250  0.75550  Biso   1.000  H
  O20      1.0000 0.06790  0.27480  0.67000  Biso   1.000  O
  C181     1.0000 0.12270  0.27020  0.69590  Biso   1.000  C
  C182     1.0000 0.17780  0.22270  0.68610  Biso   1.000  C
  H153     1.0000 0.17520  0.19410  0.66070  Biso   1.000  H
  C183     1.0000 0.23660  0.21710  0.71350  Biso   1.000  C
  H154     1.0000 0.27420  0.18470  0.70680  Biso   1.000  H
  N29      1.0000 0.75970  0.25900  0.75070  Biso   1.000  N
  C184     1.0000 0.81470  0.30640  0.76050  Biso   1.000  C
  H155     1.0000 0.18780  0.33500  0.78590  Biso   1.000  H
  C185     1.0000 0.12650  0.31200  0.73300  Biso   1.000  C
  H156     1.0000 0.08890  0.34440  0.73970  Biso   1.000  H
  C186     1.0000 0.79830  0.25280  0.72120  Biso   1.000  C
  C187     1.0000 0.86320  0.28440  0.73190  Biso   1.000  C
  H157     1.0000 0.37010  0.30400  0.73990  Biso   1.000  H
  C188     1.0000 0.91820  0.28740  0.70160  Biso   1.000  C
  H158     1.0000 0.46260  0.30900  0.79100  Biso   1.000  H
  N30      1.0000 0.90810  0.25880  0.66050  Biso   1.000  N
  C189     1.0000 0.84310  0.22710  0.64970  Biso   1.000  C
  H159     1.0000 0.33630  0.20750  0.87840  Biso   1.000  H
  C190     1.0000 0.78820  0.22410  0.68000  Biso   1.000  C
  H160     1.0000 0.74380  0.20250  0.67270  Biso   1.000  H
  O21      1.0000 0.99840  0.37210  0.60460  Biso   1.000  O
  C191     1.0000 0.94410  0.46760  0.64010  Biso   1.000  C
  H161     1.0000 0.90470  0.46610  0.62070  Biso   1.000  H
  C192     1.0000 0.94540  0.51780  0.67330  Biso   1.000  C
  H162     1.0000 0.90690  0.55060  0.67660  Biso   1.000  H
  N31      1.0000 0.00310  0.52010  0.70180  Biso   1.000  N
  C193     1.0000 0.94050  0.47210  0.69690  Biso   1.000  C
  H163     1.0000 0.90110  0.47360  0.71640  Biso   1.000  H
  C194     1.0000 0.05810  0.42190  0.66370  Biso   1.000  C
  H164     1.0000 0.09670  0.38910  0.66040  Biso   1.000  H
  C195     1.0000 0.00300  0.56860  0.73700  Biso   1.000  C
  C196     1.0000 0.06310  0.60960  0.74660  Biso   1.000  C
  H165     1.0000 0.10520  0.60490  0.72950  Biso   1.000  H
  C197     1.0000 0.06160  0.65740  0.78110  Biso   1.000  C
  H166     1.0000 0.10270  0.68540  0.78760  Biso   1.000  H
  C198     1.0000 0.06010  0.62330  0.79650  Biso   1.000  C
  H167     1.0000 0.10220  0.62800  0.81350  Biso   1.000  H
  C199     1.0000 0.94140  0.57550  0.76200  Biso   1.000  C
  H168     1.0000 0.90030  0.54750  0.75550  Biso   1.000  H
  O22      1.0000 0.93210  0.22520  0.67000  Biso   1.000  O
  C200     1.0000 0.87730  0.22980  0.69590  Biso   1.000  C
  C201     1.0000 0.82220  0.27730  0.68610  Biso   1.000  C
  H169     1.0000 0.82480  0.30590  0.66070  Biso   1.000  H
  C202     1.0000 0.76340  0.28290  0.71350  Biso   1.000  C
  H170     1.0000 0.72580  0.31530  0.70680  Biso   1.000  H
  N32      1.0000 0.24030  0.24100  0.75070  Biso   1.000  N
  C203     1.0000 0.18530  0.19360  0.76050  Biso   1.000  C
  H171     1.0000 0.81220  0.16500  0.78590  Biso   1.000  H
  C204     1.0000 0.87350  0.18800  0.73300  Biso   1.000  C
  H172     1.0000 0.91110  0.15560  0.73970  Biso   1.000  H
  C205     1.0000 0.20170  0.24720  0.72120  Biso   1.000  C
  C206     1.0000 0.13680  0.21560  0.73190  Biso   1.000  C
  H173     1.0000 0.62990  0.19600  0.73990  Biso   1.000  H
  C207     1.0000 0.08180  0.21260  0.70160  Biso   1.000  C
  H174     1.0000 0.53740  0.19100  0.79100  Biso   1.000  H
  N33      1.0000 0.09190  0.24120  0.66050  Biso   1.000  N
  C208     1.0000 0.15690  0.27290  0.64970  Biso   1.000  C
  H175     1.0000 0.66370  0.29250  0.87840  Biso   1.000  H
  C209     1.0000 0.21180  0.27590  0.68000  Biso   1.000  C
  H176     1.0000 0.25620  0.29750  0.67270  Biso   1.000  H
  O23      1.0000 0.49840  0.87210  0.10460  Biso   1.000  O
  C210     1.0000 0.44410  0.96760  0.14010  Biso   1.000  C
  H177     1.0000 0.40470  0.96610  0.12070  Biso   1.000  H
  C211     1.0000 0.44540  0.01780  0.17330  Biso   1.000  C
  H178     1.0000 0.40690  0.05060  0.17660  Biso   1.000  H
  N34      1.0000 0.50310  0.02010  0.20180  Biso   1.000  N
  C212     1.0000 0.44050  0.97210  0.19690  Biso   1.000  C
  H179     1.0000 0.40110  0.97360  0.21640  Biso   1.000  H
  C213     1.0000 0.55810  0.92190  0.16370  Biso   1.000  C
  H180     1.0000 0.59670  0.88910  0.16040  Biso   1.000  H
  C214     1.0000 0.50300  0.06860  0.23700  Biso   1.000  C
  C215     1.0000 0.56310  0.10960  0.24660  Biso   1.000  C
  H181     1.0000 0.60520  0.10490  0.22950  Biso   1.000  H
  C216     1.0000 0.56160  0.15740  0.28110  Biso   1.000  C
  H182     1.0000 0.60270  0.18540  0.28760  Biso   1.000  H
  C217     1.0000 0.56010  0.12330  0.29650  Biso   1.000  C
  H183     1.0000 0.60220  0.12800  0.31350  Biso   1.000  H
  C218     1.0000 0.44140  0.07550  0.26200  Biso   1.000  C
  H184     1.0000 0.40030  0.04750  0.25550  Biso   1.000  H
  O24      1.0000 0.43210  0.72520  0.17000  Biso   1.000  O
  C219     1.0000 0.37730  0.72980  0.19590  Biso   1.000  C
  C220     1.0000 0.32220  0.77730  0.18610  Biso   1.000  C
  H185     1.0000 0.32480  0.80590  0.16070  Biso   1.000  H
  C221     1.0000 0.26340  0.78290  0.21350  Biso   1.000  C
  H186     1.0000 0.22580  0.81530  0.20680  Biso   1.000  H
  N35      1.0000 0.74030  0.74100  0.25070  Biso   1.000  N
  C222     1.0000 0.68530  0.69360  0.26050  Biso   1.000  C
  H187     1.0000 0.31220  0.66500  0.28590  Biso   1.000  H
  C223     1.0000 0.37350  0.68800  0.23300  Biso   1.000  C
  H188     1.0000 0.41110  0.65560  0.23970  Biso   1.000  H
  C224     1.0000 0.70170  0.74720  0.22120  Biso   1.000  C
  C225     1.0000 0.63680  0.71560  0.23190  Biso   1.000  C
  H189     1.0000 0.12990  0.69600  0.23990  Biso   1.000  H
  C226     1.0000 0.58180  0.71260  0.20160  Biso   1.000  C
  H190     1.0000 0.03740  0.69100  0.29100  Biso   1.000  H
  N36      1.0000 0.59190  0.74120  0.16050  Biso   1.000  N
  C227     1.0000 0.65690  0.77290  0.14970  Biso   1.000  C
  H191     1.0000 0.16370  0.79250  0.37840  Biso   1.000  H
  C228     1.0000 0.71180  0.77590  0.18000  Biso   1.000  C
  H192     1.0000 0.75620  0.79750  0.17270  Biso   1.000  H
  O25      1.0000 0.87790  0.74840  0.85460  Biso   1.000  O
  C229     1.0000 0.78240  0.69410  0.89010  Biso   1.000  C
  H193     1.0000 0.78390  0.65470  0.87070  Biso   1.000  H
  C230     1.0000 0.73220  0.69540  0.92330  Biso   1.000  C
  H194     1.0000 0.69940  0.65690  0.92660  Biso   1.000  H
  N37      1.0000 0.72990  0.75310  0.95180  Biso   1.000  N
  C231     1.0000 0.77790  0.69050  0.94690  Biso   1.000  C
  H195     1.0000 0.77640  0.65110  0.96640  Biso   1.000  H
  C232     1.0000 0.82810  0.80810  0.91370  Biso   1.000  C
  H196     1.0000 0.86090  0.84670  0.91040  Biso   1.000  H
  C233     1.0000 0.68140  0.75300  0.98700  Biso   1.000  C
  C234     1.0000 0.64040  0.81310  0.99660  Biso   1.000  C
  H197     1.0000 0.64510  0.85520  0.97950  Biso   1.000  H
  C235     1.0000 0.59260  0.81160  0.03110  Biso   1.000  C
  H198     1.0000 0.56460  0.85270  0.03760  Biso   1.000  H
  C236     1.0000 0.62670  0.81010  0.04650  Biso   1.000  C
  H199     1.0000 0.62200  0.85220  0.06350  Biso   1.000  H
  C237     1.0000 0.67450  0.69140  0.01200  Biso   1.000  C
  H200     1.0000 0.70250  0.65030  0.00550  Biso   1.000  H
  O26      1.0000 0.02480  0.68210  0.92000  Biso   1.000  O
  C238     1.0000 0.02020  0.62730  0.94590  Biso   1.000  C
  C239     1.0000 0.97270  0.57220  0.93610  Biso   1.000  C
  H201     1.0000 0.94410  0.57480  0.91070  Biso   1.000  H
  C240     1.0000 0.96710  0.51340  0.96350  Biso   1.000  C
  H202     1.0000 0.93470  0.47580  0.95680  Biso   1.000  H
  N38      1.0000 0.00900  0.99030  0.00070  Biso   1.000  N
  C241     1.0000 0.05640  0.93530  0.01050  Biso   1.000  C
  H203     1.0000 0.08500  0.56220  0.03590  Biso   1.000  H
  C242     1.0000 0.06200  0.62350  0.98300  Biso   1.000  C
  H204     1.0000 0.09440  0.66110  0.98970  Biso   1.000  H
  C243     1.0000 0.00280  0.95170  0.97120  Biso   1.000  C
  C244     1.0000 0.03440  0.88680  0.98190  Biso   1.000  C
  H205     1.0000 0.05400  0.37990  0.98990  Biso   1.000  H
  C245     1.0000 0.03740  0.83180  0.95160  Biso   1.000  C
  H206     1.0000 0.05900  0.28740  0.04100  Biso   1.000  H
  N39      1.0000 0.00880  0.84190  0.91050  Biso   1.000  N
  C246     1.0000 0.97710  0.90690  0.89970  Biso   1.000  C
  H207     1.0000 0.95750  0.41370  0.12840  Biso   1.000  H
  C247     1.0000 0.97410  0.96180  0.93000  Biso   1.000  C
  H208     1.0000 0.95250  0.00620  0.92270  Biso   1.000  H
  O27      1.0000 0.37790  0.24840  0.35460  Biso   1.000  O
  C248     1.0000 0.28240  0.19410  0.39010  Biso   1.000  C
  H209     1.0000 0.28390  0.15470  0.37070  Biso   1.000  H
  C249     1.0000 0.23220  0.19540  0.42330  Biso   1.000  C
  H210     1.0000 0.19940  0.15690  0.42660  Biso   1.000  H
  N40      1.0000 0.22990  0.25310  0.45180  Biso   1.000  N
  C250     1.0000 0.27790  0.19050  0.44690  Biso   1.000  C
  H211     1.0000 0.27640  0.15110  0.46640  Biso   1.000  H
  C251     1.0000 0.32810  0.30810  0.41370  Biso   1.000  C
  H212     1.0000 0.36090  0.34670  0.41040  Biso   1.000  H
  C252     1.0000 0.18140  0.25300  0.48700  Biso   1.000  C
  C253     1.0000 0.14040  0.31310  0.49660  Biso   1.000  C
  H213     1.0000 0.14510  0.35520  0.47950  Biso   1.000  H
  C254     1.0000 0.09260  0.31160  0.53110  Biso   1.000  C
  H214     1.0000 0.06460  0.35270  0.53760  Biso   1.000  H
  C255     1.0000 0.12670  0.31010  0.54650  Biso   1.000  C
  H215     1.0000 0.12200  0.35220  0.56350  Biso   1.000  H
  C256     1.0000 0.17450  0.19140  0.51200  Biso   1.000  C
  H216     1.0000 0.20250  0.15030  0.50550  Biso   1.000  H
  O28      1.0000 0.52480  0.18210  0.42000  Biso   1.000  O
  C257     1.0000 0.52020  0.12730  0.44590  Biso   1.000  C
  C258     1.0000 0.47270  0.07220  0.43610  Biso   1.000  C
  H217     1.0000 0.44410  0.07480  0.41070  Biso   1.000  H
  C259     1.0000 0.46710  0.01340  0.46350  Biso   1.000  C
  H218     1.0000 0.43470  0.97580  0.45680  Biso   1.000  H
  N41      1.0000 0.50900  0.49030  0.50070  Biso   1.000  N
  C260     1.0000 0.55640  0.43530  0.51050  Biso   1.000  C
  H219     1.0000 0.58500  0.06220  0.53590  Biso   1.000  H
  C261     1.0000 0.56200  0.12350  0.48300  Biso   1.000  C
  H220     1.0000 0.59440  0.16110  0.48970  Biso   1.000  H
  C262     1.0000 0.50280  0.45170  0.47120  Biso   1.000  C
  C263     1.0000 0.53440  0.38680  0.48190  Biso   1.000  C
  H221     1.0000 0.55400  0.87990  0.48990  Biso   1.000  H
  C264     1.0000 0.53740  0.33180  0.45160  Biso   1.000  C
  H222     1.0000 0.55900  0.78740  0.54100  Biso   1.000  H
  N42      1.0000 0.50880  0.34190  0.41050  Biso   1.000  N
  C265     1.0000 0.47710  0.40690  0.39970  Biso   1.000  C
  H223     1.0000 0.45750  0.91370  0.62840  Biso   1.000  H
  C266     1.0000 0.47410  0.46180  0.43000  Biso   1.000  C
  H224     1.0000 0.45250  0.50620  0.42270  Biso   1.000  H
  O29      1.0000 0.62210  0.25160  0.35460  Biso   1.000  O
  C267     1.0000 0.71760  0.30590  0.39010  Biso   1.000  C
  H225     1.0000 0.71610  0.34530  0.37070  Biso   1.000  H
  C268     1.0000 0.76780  0.30460  0.42330  Biso   1.000  C
  H226     1.0000 0.80060  0.34310  0.42660  Biso   1.000  H
  N43      1.0000 0.77010  0.24690  0.45180  Biso   1.000  N
  C269     1.0000 0.72210  0.30950  0.44690  Biso   1.000  C
  H227     1.0000 0.72360  0.34890  0.46640  Biso   1.000  H
  C270     1.0000 0.67190  0.19190  0.41370  Biso   1.000  C
  H228     1.0000 0.63910  0.15330  0.41040  Biso   1.000  H
  C271     1.0000 0.81860  0.24700  0.48700  Biso   1.000  C
  C272     1.0000 0.85960  0.18690  0.49660  Biso   1.000  C
  H229     1.0000 0.85490  0.14480  0.47950  Biso   1.000  H
  C273     1.0000 0.90740  0.18840  0.53110  Biso   1.000  C
  H230     1.0000 0.93540  0.14730  0.53760  Biso   1.000  H
  C274     1.0000 0.87330  0.18990  0.54650  Biso   1.000  C
  H231     1.0000 0.87800  0.14780  0.56350  Biso   1.000  H
  C275     1.0000 0.82550  0.30860  0.51200  Biso   1.000  C
  H232     1.0000 0.79750  0.34970  0.50550  Biso   1.000  H
  O30      1.0000 0.47520  0.31790  0.42000  Biso   1.000  O
  C276     1.0000 0.47980  0.37270  0.44590  Biso   1.000  C
  C277     1.0000 0.52730  0.42780  0.43610  Biso   1.000  C
  H233     1.0000 0.55590  0.42520  0.41070  Biso   1.000  H
  C278     1.0000 0.53290  0.48660  0.46350  Biso   1.000  C
  H234     1.0000 0.56530  0.52420  0.45680  Biso   1.000  H
  N44      1.0000 0.49100  0.00970  0.50070  Biso   1.000  N
  C279     1.0000 0.44360  0.06470  0.51050  Biso   1.000  C
  H235     1.0000 0.41500  0.43780  0.53590  Biso   1.000  H
  C280     1.0000 0.43800  0.37650  0.48300  Biso   1.000  C
  H236     1.0000 0.40560  0.33890  0.48970  Biso   1.000  H
  C281     1.0000 0.49720  0.04830  0.47120  Biso   1.000  C
  C282     1.0000 0.46560  0.11320  0.48190  Biso   1.000  C
  H237     1.0000 0.44600  0.62010  0.48990  Biso   1.000  H
  C283     1.0000 0.46260  0.16820  0.45160  Biso   1.000  C
  H238     1.0000 0.44100  0.71260  0.54100  Biso   1.000  H
  N45      1.0000 0.49120  0.15810  0.41050  Biso   1.000  N
  C284     1.0000 0.52290  0.09310  0.39970  Biso   1.000  C
  H239     1.0000 0.54250  0.58630  0.62840  Biso   1.000  H
  C285     1.0000 0.52590  0.03820  0.43000  Biso   1.000  C
  H240     1.0000 0.54750  0.99380  0.42270  Biso   1.000  H
  O31      1.0000 0.12210  0.75160  0.85460  Biso   1.000  O
  C286     1.0000 0.21760  0.80590  0.89010  Biso   1.000  C
  H241     1.0000 0.21610  0.84530  0.87070  Biso   1.000  H
  C287     1.0000 0.26780  0.80460  0.92330  Biso   1.000  C
  H242     1.0000 0.30060  0.84310  0.92660  Biso   1.000  H
  N46      1.0000 0.27010  0.74690  0.95180  Biso   1.000  N
  C288     1.0000 0.22210  0.80950  0.94690  Biso   1.000  C
  H243     1.0000 0.22360  0.84890  0.96640  Biso   1.000  H
  C289     1.0000 0.17190  0.69190  0.91370  Biso   1.000  C
  H244     1.0000 0.13910  0.65330  0.91040  Biso   1.000  H
  C290     1.0000 0.31860  0.74700  0.98700  Biso   1.000  C
  C291     1.0000 0.35960  0.68690  0.99660  Biso   1.000  C
  H245     1.0000 0.35490  0.64480  0.97950  Biso   1.000  H
  C292     1.0000 0.40740  0.68840  0.03110  Biso   1.000  C
  H246     1.0000 0.43540  0.64730  0.03760  Biso   1.000  H
  C293     1.0000 0.37330  0.68990  0.04650  Biso   1.000  C
  H247     1.0000 0.37800  0.64780  0.06350  Biso   1.000  H
  C294     1.0000 0.32550  0.80860  0.01200  Biso   1.000  C
  H248     1.0000 0.29750  0.84970  0.00550  Biso   1.000  H
  O32      1.0000 0.97520  0.81790  0.92000  Biso   1.000  O
  C295     1.0000 0.97980  0.87270  0.94590  Biso   1.000  C
  C296     1.0000 0.02730  0.92780  0.93610  Biso   1.000  C
  H249     1.0000 0.05590  0.92520  0.91070  Biso   1.000  H
  C297     1.0000 0.03290  0.98660  0.96350  Biso   1.000  C
  H250     1.0000 0.06530  0.02420  0.95680  Biso   1.000  H
  N47      1.0000 0.99100  0.50970  0.00070  Biso   1.000  N
  C298     1.0000 0.94360  0.56470  0.01050  Biso   1.000  C
  H251     1.0000 0.91500  0.93780  0.03590  Biso   1.000  H
  C299     1.0000 0.93800  0.87650  0.98300  Biso   1.000  C
  H252     1.0000 0.90560  0.83890  0.98970  Biso   1.000  H
  C300     1.0000 0.99720  0.54830  0.97120  Biso   1.000  C
  C301     1.0000 0.96560  0.61320  0.98190  Biso   1.000  C
  H253     1.0000 0.94600  0.12010  0.98990  Biso   1.000  H
  C302     1.0000 0.96260  0.66820  0.95160  Biso   1.000  C
  H254     1.0000 0.94100  0.21260  0.04100  Biso   1.000  H
  N48      1.0000 0.99120  0.65810  0.91050  Biso   1.000  N
  C303     1.0000 0.02290  0.59310  0.89970  Biso   1.000  C
  H255     1.0000 0.04250  0.08630  0.12840  Biso   1.000  H
  C304     1.0000 0.02590  0.53820  0.93000  Biso   1.000  C
  H256     1.0000 0.04750  0.49380  0.92270  Biso   1.000  H
  O33      1.0000 0.00160  0.37210  0.60460  Biso   1.000  O
  C305     1.0000 0.05590  0.46760  0.64010  Biso   1.000  C
  H257     1.0000 0.09530  0.46610  0.62070  Biso   1.000  H
  C306     1.0000 0.05460  0.51780  0.67330  Biso   1.000  C
  H258     1.0000 0.09310  0.55060  0.67660  Biso   1.000  H
  N49      1.0000 0.99690  0.52010  0.70180  Biso   1.000  N
  C307     1.0000 0.05950  0.47210  0.69690  Biso   1.000  C
  H259     1.0000 0.09890  0.47360  0.71640  Biso   1.000  H
  C308     1.0000 0.94190  0.42190  0.66370  Biso   1.000  C
  H260     1.0000 0.90330  0.38910  0.66040  Biso   1.000  H
  C309     1.0000 0.99700  0.56860  0.73700  Biso   1.000  C
  C310     1.0000 0.93690  0.60960  0.74660  Biso   1.000  C
  H261     1.0000 0.89480  0.60490  0.72950  Biso   1.000  H
  C311     1.0000 0.93840  0.65740  0.78110  Biso   1.000  C
  H262     1.0000 0.89730  0.68540  0.78760  Biso   1.000  H
  C312     1.0000 0.93990  0.62330  0.79650  Biso   1.000  C
  H263     1.0000 0.89780  0.62800  0.81350  Biso   1.000  H
  C313     1.0000 0.05860  0.57550  0.76200  Biso   1.000  C
  H264     1.0000 0.09970  0.54750  0.75550  Biso   1.000  H
  O34      1.0000 0.06790  0.22520  0.67000  Biso   1.000  O
  C314     1.0000 0.12270  0.22980  0.69590  Biso   1.000  C
  C315     1.0000 0.17780  0.27730  0.68610  Biso   1.000  C
  H265     1.0000 0.17520  0.30590  0.66070  Biso   1.000  H
  C316     1.0000 0.23660  0.28290  0.71350  Biso   1.000  C
  H266     1.0000 0.27420  0.31530  0.70680  Biso   1.000  H
  N50      1.0000 0.75970  0.24100  0.75070  Biso   1.000  N
  C317     1.0000 0.81470  0.19360  0.76050  Biso   1.000  C
  H267     1.0000 0.18780  0.16500  0.78590  Biso   1.000  H
  C318     1.0000 0.12650  0.18800  0.73300  Biso   1.000  C
  H268     1.0000 0.08890  0.15560  0.73970  Biso   1.000  H
  C319     1.0000 0.79830  0.24720  0.72120  Biso   1.000  C
  C320     1.0000 0.86320  0.21560  0.73190  Biso   1.000  C
  H269     1.0000 0.37010  0.19600  0.73990  Biso   1.000  H
  C321     1.0000 0.91820  0.21260  0.70160  Biso   1.000  C
  H270     1.0000 0.46260  0.19100  0.79100  Biso   1.000  H
  N51      1.0000 0.90810  0.24120  0.66050  Biso   1.000  N
  C322     1.0000 0.84310  0.27290  0.64970  Biso   1.000  C
  H271     1.0000 0.33630  0.29250  0.87840  Biso   1.000  H
  C323     1.0000 0.78820  0.27590  0.68000  Biso   1.000  C
  H272     1.0000 0.74380  0.29750  0.67270  Biso   1.000  H
  O35      1.0000 0.50160  0.87210  0.10460  Biso   1.000  O
  C324     1.0000 0.55590  0.96760  0.14010  Biso   1.000  C
  H273     1.0000 0.59530  0.96610  0.12070  Biso   1.000  H
  C325     1.0000 0.55460  0.01780  0.17330  Biso   1.000  C
  H274     1.0000 0.59310  0.05060  0.17660  Biso   1.000  H
  N52      1.0000 0.49690  0.02010  0.20180  Biso   1.000  N
  C326     1.0000 0.55950  0.97210  0.19690  Biso   1.000  C
  H275     1.0000 0.59890  0.97360  0.21640  Biso   1.000  H
  C327     1.0000 0.44190  0.92190  0.16370  Biso   1.000  C
  H276     1.0000 0.40330  0.88910  0.16040  Biso   1.000  H
  C328     1.0000 0.49700  0.06860  0.23700  Biso   1.000  C
  C329     1.0000 0.43690  0.10960  0.24660  Biso   1.000  C
  H277     1.0000 0.39480  0.10490  0.22950  Biso   1.000  H
  C330     1.0000 0.43840  0.15740  0.28110  Biso   1.000  C
  H278     1.0000 0.39730  0.18540  0.28760  Biso   1.000  H
  C331     1.0000 0.43990  0.12330  0.29650  Biso   1.000  C
  H279     1.0000 0.39780  0.12800  0.31350  Biso   1.000  H
  C332     1.0000 0.55860  0.07550  0.26200  Biso   1.000  C
  H280     1.0000 0.59970  0.04750  0.25550  Biso   1.000  H
  O36      1.0000 0.56790  0.72520  0.17000  Biso   1.000  O
  C333     1.0000 0.62270  0.72980  0.19590  Biso   1.000  C
  C334     1.0000 0.67780  0.77730  0.18610  Biso   1.000  C
  H281     1.0000 0.67520  0.80590  0.16070  Biso   1.000  H
  C335     1.0000 0.73660  0.78290  0.21350  Biso   1.000  C
  H282     1.0000 0.77420  0.81530  0.20680  Biso   1.000  H
  N53      1.0000 0.25970  0.74100  0.25070  Biso   1.000  N
  C336     1.0000 0.31470  0.69360  0.26050  Biso   1.000  C
  H283     1.0000 0.68780  0.66500  0.28590  Biso   1.000  H
  C337     1.0000 0.62650  0.68800  0.23300  Biso   1.000  C
  H284     1.0000 0.58890  0.65560  0.23970  Biso   1.000  H
  C338     1.0000 0.29830  0.74720  0.22120  Biso   1.000  C
  C339     1.0000 0.36320  0.71560  0.23190  Biso   1.000  C
  H285     1.0000 0.87010  0.69600  0.23990  Biso   1.000  H
  C340     1.0000 0.41820  0.71260  0.20160  Biso   1.000  C
  H286     1.0000 0.96260  0.69100  0.29100  Biso   1.000  H
  N54      1.0000 0.40810  0.74120  0.16050  Biso   1.000  N
  C341     1.0000 0.34310  0.77290  0.14970  Biso   1.000  C
  H287     1.0000 0.83630  0.79250  0.37840  Biso   1.000  H
  C342     1.0000 0.28820  0.77590  0.18000  Biso   1.000  C
  H288     1.0000 0.24380  0.79750  0.17270  Biso   1.000  H
  O37      1.0000 0.49840  0.62790  0.10460  Biso   1.000  O
  C343     1.0000 0.44410  0.53240  0.14010  Biso   1.000  C
  H289     1.0000 0.40470  0.53390  0.12070  Biso   1.000  H
  C344     1.0000 0.44540  0.48220  0.17330  Biso   1.000  C
  H290     1.0000 0.40690  0.44940  0.17660  Biso   1.000  H
  N55      1.0000 0.50310  0.47990  0.20180  Biso   1.000  N
  C345     1.0000 0.44050  0.52790  0.19690  Biso   1.000  C
  H291     1.0000 0.40110  0.52640  0.21640  Biso   1.000  H
  C346     1.0000 0.55810  0.57810  0.16370  Biso   1.000  C
  H292     1.0000 0.59670  0.61090  0.16040  Biso   1.000  H
  C347     1.0000 0.50300  0.43140  0.23700  Biso   1.000  C
  C348     1.0000 0.56310  0.39040  0.24660  Biso   1.000  C
  H293     1.0000 0.60520  0.39510  0.22950  Biso   1.000  H
  C349     1.0000 0.56160  0.34260  0.28110  Biso   1.000  C
  H294     1.0000 0.60270  0.31460  0.28760  Biso   1.000  H
  C350     1.0000 0.56010  0.37670  0.29650  Biso   1.000  C
  H295     1.0000 0.60220  0.37200  0.31350  Biso   1.000  H
  C351     1.0000 0.44140  0.42450  0.26200  Biso   1.000  C
  H296     1.0000 0.40030  0.45250  0.25550  Biso   1.000  H
  O38      1.0000 0.43210  0.77480  0.17000  Biso   1.000  O
  C352     1.0000 0.37730  0.77020  0.19590  Biso   1.000  C
  C353     1.0000 0.32220  0.72270  0.18610  Biso   1.000  C
  H297     1.0000 0.32480  0.69410  0.16070  Biso   1.000  H
  C354     1.0000 0.26340  0.71710  0.21350  Biso   1.000  C
  H298     1.0000 0.22580  0.68470  0.20680  Biso   1.000  H
  N56      1.0000 0.74030  0.75900  0.25070  Biso   1.000  N
  C355     1.0000 0.68530  0.80640  0.26050  Biso   1.000  C
  H299     1.0000 0.31220  0.83500  0.28590  Biso   1.000  H
  C356     1.0000 0.37350  0.81200  0.23300  Biso   1.000  C
  H300     1.0000 0.41110  0.84440  0.23970  Biso   1.000  H
  C357     1.0000 0.70170  0.75280  0.22120  Biso   1.000  C
  C358     1.0000 0.63680  0.78440  0.23190  Biso   1.000  C
  H301     1.0000 0.12990  0.80400  0.23990  Biso   1.000  H
  C359     1.0000 0.58180  0.78740  0.20160  Biso   1.000  C
  H302     1.0000 0.03740  0.80900  0.29100  Biso   1.000  H
  N57      1.0000 0.59190  0.75880  0.16050  Biso   1.000  N
  C360     1.0000 0.65690  0.72710  0.14970  Biso   1.000  C
  H303     1.0000 0.16370  0.70750  0.37840  Biso   1.000  H
  C361     1.0000 0.71180  0.72410  0.18000  Biso   1.000  C
  H304     1.0000 0.75620  0.70250  0.17270  Biso   1.000  H
  O39      1.0000 0.99840  0.12790  0.60460  Biso   1.000  O
  C362     1.0000 0.94410  0.03240  0.64010  Biso   1.000  C
  H305     1.0000 0.90470  0.03390  0.62070  Biso   1.000  H
  C363     1.0000 0.94540  0.98220  0.67330  Biso   1.000  C
  H306     1.0000 0.90690  0.94940  0.67660  Biso   1.000  H
  N58      1.0000 0.00310  0.97990  0.70180  Biso   1.000  N
  C364     1.0000 0.94050  0.02790  0.69690  Biso   1.000  C
  H307     1.0000 0.90110  0.02640  0.71640  Biso   1.000  H
  C365     1.0000 0.05810  0.07810  0.66370  Biso   1.000  C
  H308     1.0000 0.09670  0.11090  0.66040  Biso   1.000  H
  C366     1.0000 0.00300  0.93140  0.73700  Biso   1.000  C
  C367     1.0000 0.06310  0.89040  0.74660  Biso   1.000  C
  H309     1.0000 0.10520  0.89510  0.72950  Biso   1.000  H
  C368     1.0000 0.06160  0.84260  0.78110  Biso   1.000  C
  H310     1.0000 0.10270  0.81460  0.78760  Biso   1.000  H
  C369     1.0000 0.06010  0.87670  0.79650  Biso   1.000  C
  H311     1.0000 0.10220  0.87200  0.81350  Biso   1.000  H
  C370     1.0000 0.94140  0.92450  0.76200  Biso   1.000  C
  H312     1.0000 0.90030  0.95250  0.75550  Biso   1.000  H
  O40      1.0000 0.93210  0.27480  0.67000  Biso   1.000  O
  C371     1.0000 0.87730  0.27020  0.69590  Biso   1.000  C
  C372     1.0000 0.82220  0.22270  0.68610  Biso   1.000  C
  H313     1.0000 0.82480  0.19410  0.66070  Biso   1.000  H
  C373     1.0000 0.76340  0.21710  0.71350  Biso   1.000  C
  H314     1.0000 0.72580  0.18470  0.70680  Biso   1.000  H
  N59      1.0000 0.24030  0.25900  0.75070  Biso   1.000  N
  C374     1.0000 0.18530  0.30640  0.76050  Biso   1.000  C
  H315     1.0000 0.81220  0.33500  0.78590  Biso   1.000  H
  C375     1.0000 0.87350  0.31200  0.73300  Biso   1.000  C
  H316     1.0000 0.91110  0.34440  0.73970  Biso   1.000  H
  C376     1.0000 0.20170  0.25280  0.72120  Biso   1.000  C
  C377     1.0000 0.13680  0.28440  0.73190  Biso   1.000  C
  H317     1.0000 0.62990  0.30400  0.73990  Biso   1.000  H
  C378     1.0000 0.08180  0.28740  0.70160  Biso   1.000  C
  H318     1.0000 0.53740  0.30900  0.79100  Biso   1.000  H
  N60      1.0000 0.09190  0.25880  0.66050  Biso   1.000  N
  C379     1.0000 0.15690  0.22710  0.64970  Biso   1.000  C
  H319     1.0000 0.66370  0.20750  0.87840  Biso   1.000  H
  C380     1.0000 0.21180  0.22410  0.68000  Biso   1.000  C
  H320     1.0000 0.25620  0.20250  0.67270  Biso   1.000  H
  O41      1.0000 0.37790  0.25160  0.35460  Biso   1.000  O
  C381     1.0000 0.28240  0.30590  0.39010  Biso   1.000  C
  H321     1.0000 0.28390  0.34530  0.37070  Biso   1.000  H
  C382     1.0000 0.23220  0.30460  0.42330  Biso   1.000  C
  H322     1.0000 0.19940  0.34310  0.42660  Biso   1.000  H
  N61      1.0000 0.22990  0.24690  0.45180  Biso   1.000  N
  C383     1.0000 0.27790  0.30950  0.44690  Biso   1.000  C
  H323     1.0000 0.27640  0.34890  0.46640  Biso   1.000  H
  C384     1.0000 0.32810  0.19190  0.41370  Biso   1.000  C
  H324     1.0000 0.36090  0.15330  0.41040  Biso   1.000  H
  C385     1.0000 0.18140  0.24700  0.48700  Biso   1.000  C
  C386     1.0000 0.14040  0.18690  0.49660  Biso   1.000  C
  H325     1.0000 0.14510  0.14480  0.47950  Biso   1.000  H
  C387     1.0000 0.09260  0.18840  0.53110  Biso   1.000  C
  H326     1.0000 0.06460  0.14730  0.53760  Biso   1.000  H
  C388     1.0000 0.12670  0.18990  0.54650  Biso   1.000  C
  H327     1.0000 0.12200  0.14780  0.56350  Biso   1.000  H
  C389     1.0000 0.17450  0.30860  0.51200  Biso   1.000  C
  H328     1.0000 0.20250  0.34970  0.50550  Biso   1.000  H
  O42      1.0000 0.52480  0.31790  0.42000  Biso   1.000  O
  C390     1.0000 0.52020  0.37270  0.44590  Biso   1.000  C
  C391     1.0000 0.47270  0.42780  0.43610  Biso   1.000  C
  H329     1.0000 0.44410  0.42520  0.41070  Biso   1.000  H
  C392     1.0000 0.46710  0.48660  0.46350  Biso   1.000  C
  H330     1.0000 0.43470  0.52420  0.45680  Biso   1.000  H
  N62      1.0000 0.50900  0.00970  0.50070  Biso   1.000  N
  C393     1.0000 0.55640  0.06470  0.51050  Biso   1.000  C
  H331     1.0000 0.58500  0.43780  0.53590  Biso   1.000  H
  C394     1.0000 0.56200  0.37650  0.48300  Biso   1.000  C
  H332     1.0000 0.59440  0.33890  0.48970  Biso   1.000  H
  C395     1.0000 0.50280  0.04830  0.47120  Biso   1.000  C
  C396     1.0000 0.53440  0.11320  0.48190  Biso   1.000  C
  H333     1.0000 0.55400  0.62010  0.48990  Biso   1.000  H
  C397     1.0000 0.53740  0.16820  0.45160  Biso   1.000  C
  H334     1.0000 0.55900  0.71260  0.54100  Biso   1.000  H
  N63      1.0000 0.50880  0.15810  0.41050  Biso   1.000  N
  C398     1.0000 0.47710  0.09310  0.39970  Biso   1.000  C
  H335     1.0000 0.45750  0.58630  0.62840  Biso   1.000  H
  C399     1.0000 0.47410  0.03820  0.43000  Biso   1.000  C
  H336     1.0000 0.45250  0.99380  0.42270  Biso   1.000  H
  O43      1.0000 0.87790  0.75160  0.85460  Biso   1.000  O
  C400     1.0000 0.78240  0.80590  0.89010  Biso   1.000  C
  H337     1.0000 0.78390  0.84530  0.87070  Biso   1.000  H
  C401     1.0000 0.73220  0.80460  0.92330  Biso   1.000  C
  H338     1.0000 0.69940  0.84310  0.92660  Biso   1.000  H
  N64      1.0000 0.72990  0.74690  0.95180  Biso   1.000  N
  C402     1.0000 0.77790  0.80950  0.94690  Biso   1.000  C
  H339     1.0000 0.77640  0.84890  0.96640  Biso   1.000  H
  C403     1.0000 0.82810  0.69190  0.91370  Biso   1.000  C
  H340     1.0000 0.86090  0.65330  0.91040  Biso   1.000  H
  C404     1.0000 0.68140  0.74700  0.98700  Biso   1.000  C
  C405     1.0000 0.64040  0.68690  0.99660  Biso   1.000  C
  H341     1.0000 0.64510  0.64480  0.97950  Biso   1.000  H
  C406     1.0000 0.59260  0.68840  0.03110  Biso   1.000  C
  H342     1.0000 0.56460  0.64730  0.03760  Biso   1.000  H
  C407     1.0000 0.62670  0.68990  0.04650  Biso   1.000  C
  H343     1.0000 0.62200  0.64780  0.06350  Biso   1.000  H
  C408     1.0000 0.67450  0.80860  0.01200  Biso   1.000  C
  H344     1.0000 0.70250  0.84970  0.00550  Biso   1.000  H
  O44      1.0000 0.02480  0.81790  0.92000  Biso   1.000  O
  C409     1.0000 0.02020  0.87270  0.94590  Biso   1.000  C
  C410     1.0000 0.97270  0.92780  0.93610  Biso   1.000  C
  H345     1.0000 0.94410  0.92520  0.91070  Biso   1.000  H
  C411     1.0000 0.96710  0.98660  0.96350  Biso   1.000  C
  H346     1.0000 0.93470  0.02420  0.95680  Biso   1.000  H
  N65      1.0000 0.00900  0.50970  0.00070  Biso   1.000  N
  C412     1.0000 0.05640  0.56470  0.01050  Biso   1.000  C
  H347     1.0000 0.08500  0.93780  0.03590  Biso   1.000  H
  C413     1.0000 0.06200  0.87650  0.98300  Biso   1.000  C
  H348     1.0000 0.09440  0.83890  0.98970  Biso   1.000  H
  C414     1.0000 0.00280  0.54830  0.97120  Biso   1.000  C
  C415     1.0000 0.03440  0.61320  0.98190  Biso   1.000  C
  H349     1.0000 0.05400  0.12010  0.98990  Biso   1.000  H
  C416     1.0000 0.03740  0.66820  0.95160  Biso   1.000  C
  H350     1.0000 0.05900  0.21260  0.04100  Biso   1.000  H
  N66      1.0000 0.00880  0.65810  0.91050  Biso   1.000  N
  C417     1.0000 0.97710  0.59310  0.89970  Biso   1.000  C
  H351     1.0000 0.95750  0.08630  0.12840  Biso   1.000  H
  C418     1.0000 0.97410  0.53820  0.93000  Biso   1.000  C
  H352     1.0000 0.95250  0.49380  0.92270  Biso   1.000  H
  O45      1.0000 0.12210  0.74840  0.85460  Biso   1.000  O
  C419     1.0000 0.21760  0.69410  0.89010  Biso   1.000  C
  H353     1.0000 0.21610  0.65470  0.87070  Biso   1.000  H
  C420     1.0000 0.26780  0.69540  0.92330  Biso   1.000  C
  H354     1.0000 0.30060  0.65690  0.92660  Biso   1.000  H
  N67      1.0000 0.27010  0.75310  0.95180  Biso   1.000  N
  C421     1.0000 0.22210  0.69050  0.94690  Biso   1.000  C
  H355     1.0000 0.22360  0.65110  0.96640  Biso   1.000  H
  C422     1.0000 0.17190  0.80810  0.91370  Biso   1.000  C
  H356     1.0000 0.13910  0.84670  0.91040  Biso   1.000  H
  C423     1.0000 0.31860  0.75300  0.98700  Biso   1.000  C
  C424     1.0000 0.35960  0.81310  0.99660  Biso   1.000  C
  H357     1.0000 0.35490  0.85520  0.97950  Biso   1.000  H
  C425     1.0000 0.40740  0.81160  0.03110  Biso   1.000  C
  H358     1.0000 0.43540  0.85270  0.03760  Biso   1.000  H
  C426     1.0000 0.37330  0.81010  0.04650  Biso   1.000  C
  H359     1.0000 0.37800  0.85220  0.06350  Biso   1.000  H
  C427     1.0000 0.32550  0.69140  0.01200  Biso   1.000  C
  H360     1.0000 0.29750  0.65030  0.00550  Biso   1.000  H
  O46      1.0000 0.97520  0.68210  0.92000  Biso   1.000  O
  C428     1.0000 0.97980  0.62730  0.94590  Biso   1.000  C
  C429     1.0000 0.02730  0.57220  0.93610  Biso   1.000  C
  H361     1.0000 0.05590  0.57480  0.91070  Biso   1.000  H
  C430     1.0000 0.03290  0.51340  0.96350  Biso   1.000  C
  H362     1.0000 0.06530  0.47580  0.95680  Biso   1.000  H
  N68      1.0000 0.99100  0.99030  0.00070  Biso   1.000  N
  C431     1.0000 0.94360  0.93530  0.01050  Biso   1.000  C
  H363     1.0000 0.91500  0.56220  0.03590  Biso   1.000  H
  C432     1.0000 0.93800  0.62350  0.98300  Biso   1.000  C
  H364     1.0000 0.90560  0.66110  0.98970  Biso   1.000  H
  C433     1.0000 0.99720  0.95170  0.97120  Biso   1.000  C
  C434     1.0000 0.96560  0.88680  0.98190  Biso   1.000  C
  H365     1.0000 0.94600  0.37990  0.98990  Biso   1.000  H
  C435     1.0000 0.96260  0.83180  0.95160  Biso   1.000  C
  H366     1.0000 0.94100  0.28740  0.04100  Biso   1.000  H
  N69      1.0000 0.99120  0.84190  0.91050  Biso   1.000  N
  C436     1.0000 0.02290  0.90690  0.89970  Biso   1.000  C
  H367     1.0000 0.04250  0.41370  0.12840  Biso   1.000  H
  C437     1.0000 0.02590  0.96180  0.93000  Biso   1.000  C
  H368     1.0000 0.04750  0.00620  0.92270  Biso   1.000  H
  O47      1.0000 0.62210  0.24840  0.35460  Biso   1.000  O
  C438     1.0000 0.71760  0.19410  0.39010  Biso   1.000  C
  H369     1.0000 0.71610  0.15470  0.37070  Biso   1.000  H
  C439     1.0000 0.76780  0.19540  0.42330  Biso   1.000  C
  H370     1.0000 0.80060  0.15690  0.42660  Biso   1.000  H
  N70      1.0000 0.77010  0.25310  0.45180  Biso   1.000  N
  C440     1.0000 0.72210  0.19050  0.44690  Biso   1.000  C
  H371     1.0000 0.72360  0.15110  0.46640  Biso   1.000  H
  C441     1.0000 0.67190  0.30810  0.41370  Biso   1.000  C
  H372     1.0000 0.63910  0.34670  0.41040  Biso   1.000  H
  C442     1.0000 0.81860  0.25300  0.48700  Biso   1.000  C
  C443     1.0000 0.85960  0.31310  0.49660  Biso   1.000  C
  H373     1.0000 0.85490  0.35520  0.47950  Biso   1.000  H
  C444     1.0000 0.90740  0.31160  0.53110  Biso   1.000  C
  H374     1.0000 0.93540  0.35270  0.53760  Biso   1.000  H
  C445     1.0000 0.87330  0.31010  0.54650  Biso   1.000  C
  H375     1.0000 0.87800  0.35220  0.56350  Biso   1.000  H
  C446     1.0000 0.82550  0.19140  0.51200  Biso   1.000  C
  H376     1.0000 0.79750  0.15030  0.50550  Biso   1.000  H
  O48      1.0000 0.47520  0.18210  0.42000  Biso   1.000  O
  C447     1.0000 0.47980  0.12730  0.44590  Biso   1.000  C
  C448     1.0000 0.52730  0.07220  0.43610  Biso   1.000  C
  H377     1.0000 0.55590  0.07480  0.41070  Biso   1.000  H
  C449     1.0000 0.53290  0.01340  0.46350  Biso   1.000  C
  H378     1.0000 0.56530  0.97580  0.45680  Biso   1.000  H
  N71      1.0000 0.49100  0.49030  0.50070  Biso   1.000  N
  C450     1.0000 0.44360  0.43530  0.51050  Biso   1.000  C
  H379     1.0000 0.41500  0.06220  0.53590  Biso   1.000  H
  C451     1.0000 0.43800  0.12350  0.48300  Biso   1.000  C
  H380     1.0000 0.40560  0.16110  0.48970  Biso   1.000  H
  C452     1.0000 0.49720  0.45170  0.47120  Biso   1.000  C
  C453     1.0000 0.46560  0.38680  0.48190  Biso   1.000  C
  H381     1.0000 0.44600  0.87990  0.48990  Biso   1.000  H
  C454     1.0000 0.46260  0.33180  0.45160  Biso   1.000  C
  H382     1.0000 0.44100  0.78740  0.54100  Biso   1.000  H
  N72      1.0000 0.49120  0.34190  0.41050  Biso   1.000  N
  C455     1.0000 0.52290  0.40690  0.39970  Biso   1.000  C
  H383     1.0000 0.54250  0.91370  0.62840  Biso   1.000  H
  C456     1.0000 0.52590  0.46180  0.43000  Biso   1.000  C
  H384     1.0000 0.54750  0.50620  0.42270  Biso   1.000  H
  O49      1.0000 0.49840  0.37210  0.89540  Biso   1.000  O
  C457     1.0000 0.44410  0.46760  0.85990  Biso   1.000  C
  H385     1.0000 0.40470  0.46610  0.87930  Biso   1.000  H
  C458     1.0000 0.44540  0.51780  0.82670  Biso   1.000  C
  H386     1.0000 0.40690  0.55060  0.82340  Biso   1.000  H
  N73      1.0000 0.50310  0.52010  0.79820  Biso   1.000  N
  C459     1.0000 0.44050  0.47210  0.80310  Biso   1.000  C
  H387     1.0000 0.40110  0.47360  0.78360  Biso   1.000  H
  C460     1.0000 0.55810  0.42190  0.83630  Biso   1.000  C
  H388     1.0000 0.59670  0.38910  0.83960  Biso   1.000  H
  C461     1.0000 0.50300  0.56860  0.76300  Biso   1.000  C
  C462     1.0000 0.56310  0.60960  0.75340  Biso   1.000  C
  H389     1.0000 0.60520  0.60490  0.77050  Biso   1.000  H
  C463     1.0000 0.56160  0.65740  0.71890  Biso   1.000  C
  H390     1.0000 0.60270  0.68540  0.71240  Biso   1.000  H
  C464     1.0000 0.56010  0.62330  0.70350  Biso   1.000  C
  H391     1.0000 0.60220  0.62800  0.68650  Biso   1.000  H
  C465     1.0000 0.44140  0.57550  0.73800  Biso   1.000  C
  H392     1.0000 0.40030  0.54750  0.74450  Biso   1.000  H
  O50      1.0000 0.43210  0.22520  0.83000  Biso   1.000  O
  C466     1.0000 0.37730  0.22980  0.80410  Biso   1.000  C
  C467     1.0000 0.32220  0.27730  0.81390  Biso   1.000  C
  H393     1.0000 0.32480  0.30590  0.83930  Biso   1.000  H
  C468     1.0000 0.26340  0.28290  0.78650  Biso   1.000  C
  H394     1.0000 0.22580  0.31530  0.79320  Biso   1.000  H
  N74      1.0000 0.74030  0.24100  0.74930  Biso   1.000  N
  C469     1.0000 0.68530  0.19360  0.73950  Biso   1.000  C
  H395     1.0000 0.31220  0.16500  0.71410  Biso   1.000  H
  C470     1.0000 0.37350  0.18800  0.76700  Biso   1.000  C
  H396     1.0000 0.41110  0.15560  0.76030  Biso   1.000  H
  C471     1.0000 0.70170  0.24720  0.77880  Biso   1.000  C
  C472     1.0000 0.63680  0.21560  0.76810  Biso   1.000  C
  H397     1.0000 0.12990  0.19600  0.76010  Biso   1.000  H
  C473     1.0000 0.58180  0.21260  0.79840  Biso   1.000  C
  H398     1.0000 0.03740  0.19100  0.70900  Biso   1.000  H
  N75      1.0000 0.59190  0.24120  0.83950  Biso   1.000  N
  C474     1.0000 0.65690  0.27290  0.85030  Biso   1.000  C
  H399     1.0000 0.16370  0.29250  0.62160  Biso   1.000  H
  C475     1.0000 0.71180  0.27590  0.82000  Biso   1.000  C
  H400     1.0000 0.75620  0.29750  0.82730  Biso   1.000  H
  O51      1.0000 0.99840  0.87210  0.39540  Biso   1.000  O
  C476     1.0000 0.94410  0.96760  0.35990  Biso   1.000  C
  H401     1.0000 0.90470  0.96610  0.37930  Biso   1.000  H
  C477     1.0000 0.94540  0.01780  0.32670  Biso   1.000  C
  H402     1.0000 0.90690  0.05060  0.32340  Biso   1.000  H
  N76      1.0000 0.00310  0.02010  0.29820  Biso   1.000  N
  C478     1.0000 0.94050  0.97210  0.30310  Biso   1.000  C
  H403     1.0000 0.90110  0.97360  0.28360  Biso   1.000  H
  C479     1.0000 0.05810  0.92190  0.33630  Biso   1.000  C
  H404     1.0000 0.09670  0.88910  0.33960  Biso   1.000  H
  C480     1.0000 0.00300  0.06860  0.26300  Biso   1.000  C
  C481     1.0000 0.06310  0.10960  0.25340  Biso   1.000  C
  H405     1.0000 0.10520  0.10490  0.27050  Biso   1.000  H
  C482     1.0000 0.06160  0.15740  0.21890  Biso   1.000  C
  H406     1.0000 0.10270  0.18540  0.21240  Biso   1.000  H
  C483     1.0000 0.06010  0.12330  0.20350  Biso   1.000  C
  H407     1.0000 0.10220  0.12800  0.18650  Biso   1.000  H
  C484     1.0000 0.94140  0.07550  0.23800  Biso   1.000  C
  H408     1.0000 0.90030  0.04750  0.24450  Biso   1.000  H
  O52      1.0000 0.93210  0.72520  0.33000  Biso   1.000  O
  C485     1.0000 0.87730  0.72980  0.30410  Biso   1.000  C
  C486     1.0000 0.82220  0.77730  0.31390  Biso   1.000  C
  H409     1.0000 0.82480  0.80590  0.33930  Biso   1.000  H
  C487     1.0000 0.76340  0.78290  0.28650  Biso   1.000  C
  H410     1.0000 0.72580  0.81530  0.29320  Biso   1.000  H
  N77      1.0000 0.24030  0.74100  0.24930  Biso   1.000  N
  C488     1.0000 0.18530  0.69360  0.23950  Biso   1.000  C
  H411     1.0000 0.81220  0.66500  0.21410  Biso   1.000  H
  C489     1.0000 0.87350  0.68800  0.26700  Biso   1.000  C
  H412     1.0000 0.91110  0.65560  0.26030  Biso   1.000  H
  C490     1.0000 0.20170  0.74720  0.27880  Biso   1.000  C
  C491     1.0000 0.13680  0.71560  0.26810  Biso   1.000  C
  H413     1.0000 0.62990  0.69600  0.26010  Biso   1.000  H
  C492     1.0000 0.08180  0.71260  0.29840  Biso   1.000  C
  H414     1.0000 0.53740  0.69100  0.20900  Biso   1.000  H
  N78      1.0000 0.09190  0.74120  0.33950  Biso   1.000  N
  C493     1.0000 0.15690  0.77290  0.35030  Biso   1.000  C
  H415     1.0000 0.66370  0.79250  0.12160  Biso   1.000  H
  C494     1.0000 0.21180  0.77590  0.32000  Biso   1.000  C
  H416     1.0000 0.25620  0.79750  0.32730  Biso   1.000  H
  O53      1.0000 0.00160  0.62790  0.39540  Biso   1.000  O
  C495     1.0000 0.05590  0.53240  0.35990  Biso   1.000  C
  H417     1.0000 0.09530  0.53390  0.37930  Biso   1.000  H
  C496     1.0000 0.05460  0.48220  0.32670  Biso   1.000  C
  H418     1.0000 0.09310  0.44940  0.32340  Biso   1.000  H
  N79      1.0000 0.99690  0.47990  0.29820  Biso   1.000  N
  C497     1.0000 0.05950  0.52790  0.30310  Biso   1.000  C
  H419     1.0000 0.09890  0.52640  0.28360  Biso   1.000  H
  C498     1.0000 0.94190  0.57810  0.33630  Biso   1.000  C
  H420     1.0000 0.90330  0.61090  0.33960  Biso   1.000  H
  C499     1.0000 0.99700  0.43140  0.26300  Biso   1.000  C
  C500     1.0000 0.93690  0.39040  0.25340  Biso   1.000  C
  H421     1.0000 0.89480  0.39510  0.27050  Biso   1.000  H
  C501     1.0000 0.93840  0.34260  0.21890  Biso   1.000  C
  H422     1.0000 0.89730  0.31460  0.21240  Biso   1.000  H
  C502     1.0000 0.93990  0.37670  0.20350  Biso   1.000  C
  H423     1.0000 0.89780  0.37200  0.18650  Biso   1.000  H
  C503     1.0000 0.05860  0.42450  0.23800  Biso   1.000  C
  H424     1.0000 0.09970  0.45250  0.24450  Biso   1.000  H
  O54      1.0000 0.06790  0.77480  0.33000  Biso   1.000  O
  C504     1.0000 0.12270  0.77020  0.30410  Biso   1.000  C
  C505     1.0000 0.17780  0.72270  0.31390  Biso   1.000  C
  H425     1.0000 0.17520  0.69410  0.33930  Biso   1.000  H
  C506     1.0000 0.23660  0.71710  0.28650  Biso   1.000  C
  H426     1.0000 0.27420  0.68470  0.29320  Biso   1.000  H
  N80      1.0000 0.75970  0.75900  0.24930  Biso   1.000  N
  C507     1.0000 0.81470  0.80640  0.23950  Biso   1.000  C
  H427     1.0000 0.18780  0.83500  0.21410  Biso   1.000  H
  C508     1.0000 0.12650  0.81200  0.26700  Biso   1.000  C
  H428     1.0000 0.08890  0.84440  0.26030  Biso   1.000  H
  C509     1.0000 0.79830  0.75280  0.27880  Biso   1.000  C
  C510     1.0000 0.86320  0.78440  0.26810  Biso   1.000  C
  H429     1.0000 0.37010  0.80400  0.26010  Biso   1.000  H
  C511     1.0000 0.91820  0.78740  0.29840  Biso   1.000  C
  H430     1.0000 0.46260  0.80900  0.20900  Biso   1.000  H
  N81      1.0000 0.90810  0.75880  0.33950  Biso   1.000  N
  C512     1.0000 0.84310  0.72710  0.35030  Biso   1.000  C
  H431     1.0000 0.33630  0.70750  0.12160  Biso   1.000  H
  C513     1.0000 0.78820  0.72410  0.32000  Biso   1.000  C
  H432     1.0000 0.74380  0.70250  0.32730  Biso   1.000  H
  O55      1.0000 0.50160  0.12790  0.89540  Biso   1.000  O
  C514     1.0000 0.55590  0.03240  0.85990  Biso   1.000  C
  H433     1.0000 0.59530  0.03390  0.87930  Biso   1.000  H
  C515     1.0000 0.55460  0.98220  0.82670  Biso   1.000  C
  H434     1.0000 0.59310  0.94940  0.82340  Biso   1.000  H
  N82      1.0000 0.49690  0.97990  0.79820  Biso   1.000  N
  C516     1.0000 0.55950  0.02790  0.80310  Biso   1.000  C
  H435     1.0000 0.59890  0.02640  0.78360  Biso   1.000  H
  C517     1.0000 0.44190  0.07810  0.83630  Biso   1.000  C
  H436     1.0000 0.40330  0.11090  0.83960  Biso   1.000  H
  C518     1.0000 0.49700  0.93140  0.76300  Biso   1.000  C
  C519     1.0000 0.43690  0.89040  0.75340  Biso   1.000  C
  H437     1.0000 0.39480  0.89510  0.77050  Biso   1.000  H
  C520     1.0000 0.43840  0.84260  0.71890  Biso   1.000  C
  H438     1.0000 0.39730  0.81460  0.71240  Biso   1.000  H
  C521     1.0000 0.43990  0.87670  0.70350  Biso   1.000  C
  H439     1.0000 0.39780  0.87200  0.68650  Biso   1.000  H
  C522     1.0000 0.55860  0.92450  0.73800  Biso   1.000  C
  H440     1.0000 0.59970  0.95250  0.74450  Biso   1.000  H
  O56      1.0000 0.56790  0.27480  0.83000  Biso   1.000  O
  C523     1.0000 0.62270  0.27020  0.80410  Biso   1.000  C
  C524     1.0000 0.67780  0.22270  0.81390  Biso   1.000  C
  H441     1.0000 0.67520  0.19410  0.83930  Biso   1.000  H
  C525     1.0000 0.73660  0.21710  0.78650  Biso   1.000  C
  H442     1.0000 0.77420  0.18470  0.79320  Biso   1.000  H
  N83      1.0000 0.25970  0.25900  0.74930  Biso   1.000  N
  C526     1.0000 0.31470  0.30640  0.73950  Biso   1.000  C
  H443     1.0000 0.68780  0.33500  0.71410  Biso   1.000  H
  C527     1.0000 0.62650  0.31200  0.76700  Biso   1.000  C
  H444     1.0000 0.58890  0.34440  0.76030  Biso   1.000  H
  C528     1.0000 0.29830  0.25280  0.77880  Biso   1.000  C
  C529     1.0000 0.36320  0.28440  0.76810  Biso   1.000  C
  H445     1.0000 0.87010  0.30400  0.76010  Biso   1.000  H
  C530     1.0000 0.41820  0.28740  0.79840  Biso   1.000  C
  H446     1.0000 0.96260  0.30900  0.70900  Biso   1.000  H
  N84      1.0000 0.40810  0.25880  0.83950  Biso   1.000  N
  C531     1.0000 0.34310  0.22710  0.85030  Biso   1.000  C
  H447     1.0000 0.83630  0.20750  0.62160  Biso   1.000  H
  C532     1.0000 0.28820  0.22410  0.82000  Biso   1.000  C
  H448     1.0000 0.24380  0.20250  0.82730  Biso   1.000  H
  O57      1.0000 0.12210  0.25160  0.14540  Biso   1.000  O
  C533     1.0000 0.21760  0.30590  0.10990  Biso   1.000  C
  H449     1.0000 0.21610  0.34530  0.12930  Biso   1.000  H
  C534     1.0000 0.26780  0.30460  0.07670  Biso   1.000  C
  H450     1.0000 0.30060  0.34310  0.07340  Biso   1.000  H
  N85      1.0000 0.27010  0.24690  0.04820  Biso   1.000  N
  C535     1.0000 0.22210  0.30950  0.05310  Biso   1.000  C
  H451     1.0000 0.22360  0.34890  0.03360  Biso   1.000  H
  C536     1.0000 0.17190  0.19190  0.08630  Biso   1.000  C
  H452     1.0000 0.13910  0.15330  0.08960  Biso   1.000  H
  C537     1.0000 0.31860  0.24700  0.01300  Biso   1.000  C
  C538     1.0000 0.35960  0.18690  0.00340  Biso   1.000  C
  H453     1.0000 0.35490  0.14480  0.02050  Biso   1.000  H
  C539     1.0000 0.40740  0.18840  0.96890  Biso   1.000  C
  H454     1.0000 0.43540  0.14730  0.96240  Biso   1.000  H
  C540     1.0000 0.37330  0.18990  0.95350  Biso   1.000  C
  H455     1.0000 0.37800  0.14780  0.93650  Biso   1.000  H
  C541     1.0000 0.32550  0.30860  0.98800  Biso   1.000  C
  H456     1.0000 0.29750  0.34970  0.99450  Biso   1.000  H
  O58      1.0000 0.97520  0.31790  0.08000  Biso   1.000  O
  C542     1.0000 0.97980  0.37270  0.05410  Biso   1.000  C
  C543     1.0000 0.02730  0.42780  0.06390  Biso   1.000  C
  H457     1.0000 0.05590  0.42520  0.08930  Biso   1.000  H
  C544     1.0000 0.03290  0.48660  0.03650  Biso   1.000  C
  H458     1.0000 0.06530  0.52420  0.04320  Biso   1.000  H
  N86      1.0000 0.99100  0.00970  0.99930  Biso   1.000  N
  C545     1.0000 0.94360  0.06470  0.98950  Biso   1.000  C
  H459     1.0000 0.91500  0.43780  0.96410  Biso   1.000  H
  C546     1.0000 0.93800  0.37650  0.01700  Biso   1.000  C
  H460     1.0000 0.90560  0.33890  0.01030  Biso   1.000  H
  C547     1.0000 0.99720  0.04830  0.02880  Biso   1.000  C
  C548     1.0000 0.96560  0.11320  0.01810  Biso   1.000  C
  H461     1.0000 0.94600  0.62010  0.01010  Biso   1.000  H
  C549     1.0000 0.96260  0.16820  0.04840  Biso   1.000  C
  H462     1.0000 0.94100  0.71260  0.95900  Biso   1.000  H
  N87      1.0000 0.99120  0.15810  0.08950  Biso   1.000  N
  C550     1.0000 0.02290  0.09310  0.10030  Biso   1.000  C
  H463     1.0000 0.04250  0.58630  0.87160  Biso   1.000  H
  C551     1.0000 0.02590  0.03820  0.07000  Biso   1.000  C
  H464     1.0000 0.04750  0.99380  0.07730  Biso   1.000  H
  O59      1.0000 0.62210  0.75160  0.64540  Biso   1.000  O
  C552     1.0000 0.71760  0.80590  0.60990  Biso   1.000  C
  H465     1.0000 0.71610  0.84530  0.62930  Biso   1.000  H
  C553     1.0000 0.76780  0.80460  0.57670  Biso   1.000  C
  H466     1.0000 0.80060  0.84310  0.57340  Biso   1.000  H
  N88      1.0000 0.77010  0.74690  0.54820  Biso   1.000  N
  C554     1.0000 0.72210  0.80950  0.55310  Biso   1.000  C
  H467     1.0000 0.72360  0.84890  0.53360  Biso   1.000  H
  C555     1.0000 0.67190  0.69190  0.58630  Biso   1.000  C
  H468     1.0000 0.63910  0.65330  0.58960  Biso   1.000  H
  C556     1.0000 0.81860  0.74700  0.51300  Biso   1.000  C
  C557     1.0000 0.85960  0.68690  0.50340  Biso   1.000  C
  H469     1.0000 0.85490  0.64480  0.52050  Biso   1.000  H
  C558     1.0000 0.90740  0.68840  0.46890  Biso   1.000  C
  H470     1.0000 0.93540  0.64730  0.46240  Biso   1.000  H
  C559     1.0000 0.87330  0.68990  0.45350  Biso   1.000  C
  H471     1.0000 0.87800  0.64780  0.43650  Biso   1.000  H
  C560     1.0000 0.82550  0.80860  0.48800  Biso   1.000  C
  H472     1.0000 0.79750  0.84970  0.49450  Biso   1.000  H
  O60      1.0000 0.47520  0.81790  0.58000  Biso   1.000  O
  C561     1.0000 0.47980  0.87270  0.55410  Biso   1.000  C
  C562     1.0000 0.52730  0.92780  0.56390  Biso   1.000  C
  H473     1.0000 0.55590  0.92520  0.58930  Biso   1.000  H
  C563     1.0000 0.53290  0.98660  0.53650  Biso   1.000  C
  H474     1.0000 0.56530  0.02420  0.54320  Biso   1.000  H
  N89      1.0000 0.49100  0.50970  0.49930  Biso   1.000  N
  C564     1.0000 0.44360  0.56470  0.48950  Biso   1.000  C
  H475     1.0000 0.41500  0.93780  0.46410  Biso   1.000  H
  C565     1.0000 0.43800  0.87650  0.51700  Biso   1.000  C
  H476     1.0000 0.40560  0.83890  0.51030  Biso   1.000  H
  C566     1.0000 0.49720  0.54830  0.52880  Biso   1.000  C
  C567     1.0000 0.46560  0.61320  0.51810  Biso   1.000  C
  H477     1.0000 0.44600  0.12010  0.51010  Biso   1.000  H
  C568     1.0000 0.46260  0.66820  0.54840  Biso   1.000  C
  H478     1.0000 0.44100  0.21260  0.45900  Biso   1.000  H
  N90      1.0000 0.49120  0.65810  0.58950  Biso   1.000  N
  C569     1.0000 0.52290  0.59310  0.60030  Biso   1.000  C
  H479     1.0000 0.54250  0.08630  0.37160  Biso   1.000  H
  C570     1.0000 0.52590  0.53820  0.57000  Biso   1.000  C
  H480     1.0000 0.54750  0.49380  0.57730  Biso   1.000  H
  O61      1.0000 0.37790  0.74840  0.64540  Biso   1.000  O
  C571     1.0000 0.28240  0.69410  0.60990  Biso   1.000  C
  H481     1.0000 0.28390  0.65470  0.62930  Biso   1.000  H
  C572     1.0000 0.23220  0.69540  0.57670  Biso   1.000  C
  H482     1.0000 0.19940  0.65690  0.57340  Biso   1.000  H
  N91      1.0000 0.22990  0.75310  0.54820  Biso   1.000  N
  C573     1.0000 0.27790  0.69050  0.55310  Biso   1.000  C
  H483     1.0000 0.27640  0.65110  0.53360  Biso   1.000  H
  C574     1.0000 0.32810  0.80810  0.58630  Biso   1.000  C
  H484     1.0000 0.36090  0.84670  0.58960  Biso   1.000  H
  C575     1.0000 0.18140  0.75300  0.51300  Biso   1.000  C
  C576     1.0000 0.14040  0.81310  0.50340  Biso   1.000  C
  H485     1.0000 0.14510  0.85520  0.52050  Biso   1.000  H
  C577     1.0000 0.09260  0.81160  0.46890  Biso   1.000  C
  H486     1.0000 0.06460  0.85270  0.46240  Biso   1.000  H
  C578     1.0000 0.12670  0.81010  0.45350  Biso   1.000  C
  H487     1.0000 0.12200  0.85220  0.43650  Biso   1.000  H
  C579     1.0000 0.17450  0.69140  0.48800  Biso   1.000  C
  H488     1.0000 0.20250  0.65030  0.49450  Biso   1.000  H
  O62      1.0000 0.52480  0.68210  0.58000  Biso   1.000  O
  C580     1.0000 0.52020  0.62730  0.55410  Biso   1.000  C
  C581     1.0000 0.47270  0.57220  0.56390  Biso   1.000  C
  H489     1.0000 0.44410  0.57480  0.58930  Biso   1.000  H
  C582     1.0000 0.46710  0.51340  0.53650  Biso   1.000  C
  H490     1.0000 0.43470  0.47580  0.54320  Biso   1.000  H
  N92      1.0000 0.50900  0.99030  0.49930  Biso   1.000  N
  C583     1.0000 0.55640  0.93530  0.48950  Biso   1.000  C
  H491     1.0000 0.58500  0.56220  0.46410  Biso   1.000  H
  C584     1.0000 0.56200  0.62350  0.51700  Biso   1.000  C
  H492     1.0000 0.59440  0.66110  0.51030  Biso   1.000  H
  C585     1.0000 0.50280  0.95170  0.52880  Biso   1.000  C
  C586     1.0000 0.53440  0.88680  0.51810  Biso   1.000  C
  H493     1.0000 0.55400  0.37990  0.51010  Biso   1.000  H
  C587     1.0000 0.53740  0.83180  0.54840  Biso   1.000  C
  H494     1.0000 0.55900  0.28740  0.45900  Biso   1.000  H
  N93      1.0000 0.50880  0.84190  0.58950  Biso   1.000  N
  C588     1.0000 0.47710  0.90690  0.60030  Biso   1.000  C
  H495     1.0000 0.45750  0.41370  0.37160  Biso   1.000  H
  C589     1.0000 0.47410  0.96180  0.57000  Biso   1.000  C
  H496     1.0000 0.45250  0.00620  0.57730  Biso   1.000  H
  O63      1.0000 0.87790  0.24840  0.14540  Biso   1.000  O
  C590     1.0000 0.78240  0.19410  0.10990  Biso   1.000  C
  H497     1.0000 0.78390  0.15470  0.12930  Biso   1.000  H
  C591     1.0000 0.73220  0.19540  0.07670  Biso   1.000  C
  H498     1.0000 0.69940  0.15690  0.07340  Biso   1.000  H
  N94      1.0000 0.72990  0.25310  0.04820  Biso   1.000  N
  C592     1.0000 0.77790  0.19050  0.05310  Biso   1.000  C
  H499     1.0000 0.77640  0.15110  0.03360  Biso   1.000  H
  C593     1.0000 0.82810  0.30810  0.08630  Biso   1.000  C
  H500     1.0000 0.86090  0.34670  0.08960  Biso   1.000  H
  C594     1.0000 0.68140  0.25300  0.01300  Biso   1.000  C
  C595     1.0000 0.64040  0.31310  0.00340  Biso   1.000  C
  H501     1.0000 0.64510  0.35520  0.02050  Biso   1.000  H
  C596     1.0000 0.59260  0.31160  0.96890  Biso   1.000  C
  H502     1.0000 0.56460  0.35270  0.96240  Biso   1.000  H
  C597     1.0000 0.62670  0.31010  0.95350  Biso   1.000  C
  H503     1.0000 0.62200  0.35220  0.93650  Biso   1.000  H
  C598     1.0000 0.67450  0.19140  0.98800  Biso   1.000  C
  H504     1.0000 0.70250  0.15030  0.99450  Biso   1.000  H
  O64      1.0000 0.02480  0.18210  0.08000  Biso   1.000  O
  C599     1.0000 0.02020  0.12730  0.05410  Biso   1.000  C
  C600     1.0000 0.97270  0.07220  0.06390  Biso   1.000  C
  H505     1.0000 0.94410  0.07480  0.08930  Biso   1.000  H
  C601     1.0000 0.96710  0.01340  0.03650  Biso   1.000  C
  H506     1.0000 0.93470  0.97580  0.04320  Biso   1.000  H
  N95      1.0000 0.00900  0.49030  0.99930  Biso   1.000  N
  C602     1.0000 0.05640  0.43530  0.98950  Biso   1.000  C
  H507     1.0000 0.08500  0.06220  0.96410  Biso   1.000  H
  C603     1.0000 0.06200  0.12350  0.01700  Biso   1.000  C
  H508     1.0000 0.09440  0.16110  0.01030  Biso   1.000  H
  C604     1.0000 0.00280  0.45170  0.02880  Biso   1.000  C
  C605     1.0000 0.03440  0.38680  0.01810  Biso   1.000  C
  H509     1.0000 0.05400  0.87990  0.01010  Biso   1.000  H
  C606     1.0000 0.03740  0.33180  0.04840  Biso   1.000  C
  H510     1.0000 0.05900  0.78740  0.95900  Biso   1.000  H
  N96      1.0000 0.00880  0.34190  0.08950  Biso   1.000  N
  C607     1.0000 0.97710  0.40690  0.10030  Biso   1.000  C
  H511     1.0000 0.95750  0.91370  0.87160  Biso   1.000  H
  C608     1.0000 0.97410  0.46180  0.07000  Biso   1.000  C
  H512     1.0000 0.95250  0.50620  0.07730  Biso   1.000  H
  Cd1      1.0000 0.00000  0.75000  0.38973  Biso   1.000  Cd
  Cd2      1.0000 0.50000  0.25000  0.88973  Biso   1.000  Cd
  Cd3      1.0000 0.50000  0.75000  0.63973  Biso   1.000  Cd
  Cd4      1.0000 0.00000  0.25000  0.13973  Biso   1.000  Cd
  Cd5      1.0000 0.50000  0.75000  0.11027  Biso   1.000  Cd
  Cd6      1.0000 0.00000  0.25000  0.61027  Biso   1.000  Cd
  Cd7      1.0000 0.00000  0.75000  0.86027  Biso   1.000  Cd
  Cd8      1.0000 0.50000  0.25000  0.36027  Biso   1.000  Cd
  C609     1.0000 0.00000  0.58040  0.36470  Biso   1.000  C
  C610     1.0000 0.50000  0.08040  0.86470  Biso   1.000  C
  C611     1.0000 0.50000  0.41960  0.86470  Biso   1.000  C
  C612     1.0000 0.00000  0.91960  0.36470  Biso   1.000  C
  C613     1.0000 0.66960  0.75000  0.61470  Biso   1.000  C
  C614     1.0000 0.83040  0.25000  0.11470  Biso   1.000  C
  C615     1.0000 0.50000  0.58040  0.13530  Biso   1.000  C
  C616     1.0000 0.00000  0.08040  0.63530  Biso   1.000  C
  C617     1.0000 0.00000  0.41960  0.63530  Biso   1.000  C
  C618     1.0000 0.50000  0.91960  0.13530  Biso   1.000  C
  C619     1.0000 0.83040  0.75000  0.88530  Biso   1.000  C
  C620     1.0000 0.66960  0.25000  0.38530  Biso   1.000  C
  C621     1.0000 0.33040  0.25000  0.38530  Biso   1.000  C
  C622     1.0000 0.16960  0.75000  0.88530  Biso   1.000  C
  C623     1.0000 0.16960  0.25000  0.11470  Biso   1.000  C
  C624     1.0000 0.33040  0.75000  0.61470  Biso   1.000  C
  N97      1.0000 0.91430  0.75000  0.44400  Biso   1.000  N
  N98      1.0000 0.58570  0.25000  0.94400  Biso   1.000  N
  N99      1.0000 0.50000  0.66430  0.69400  Biso   1.000  N
  N100     1.0000 0.00000  0.16430  0.19400  Biso   1.000  N
  N101     1.0000 0.00000  0.33570  0.19400  Biso   1.000  N
  N102     1.0000 0.50000  0.83570  0.69400  Biso   1.000  N
  N103     1.0000 0.58570  0.75000  0.05600  Biso   1.000  N
  N104     1.0000 0.91430  0.25000  0.55600  Biso   1.000  N
  N105     1.0000 0.00000  0.66430  0.80600  Biso   1.000  N
  N106     1.0000 0.50000  0.16430  0.30600  Biso   1.000  N
  N107     1.0000 0.50000  0.33570  0.30600  Biso   1.000  N
  N108     1.0000 0.00000  0.83570  0.80600  Biso   1.000  N
  N109     1.0000 0.08570  0.25000  0.55600  Biso   1.000  N
  N110     1.0000 0.41430  0.75000  0.05600  Biso   1.000  N
  N111     1.0000 0.41430  0.25000  0.94400  Biso   1.000  N
  N112     1.0000 0.08570  0.75000  0.44400  Biso   1.000  N
