data_image0
_cell_length_a       48.842
_cell_length_b       48.842
_cell_length_c       48.842
_cell_angle_alpha    90
_cell_angle_beta     90
_cell_angle_gamma    90

_symmetry_space_group_name_H-M    "P 1"
_symmetry_int_tables_number       1

loop_
  _symmetry_equiv_pos_as_xyz
  'x, y, z'

loop_
  _atom_site_label
  _atom_site_occupancy
  _atom_site_fract_x
  _atom_site_fract_y
  _atom_site_fract_z
  _atom_site_thermal_displace_type
  _atom_site_B_iso_or_equiv
  _atom_site_type_symbol
  O1       1.0000 0.67684  0.97224  0.47118  Biso   1.000  O
  O2       1.0000 0.75233  0.07944  0.52383  Biso   1.000  O
  O3       1.0000 0.71068  0.05160  0.55217  Biso   1.000  O
  C1       1.0000 0.82986  0.35281  0.52502  Biso   1.000  C
  C2       1.0000 0.82452  0.37885  0.53518  Biso   1.000  C
  H1       1.0000 0.81010  0.38910  0.52800  Biso   1.000  H
  C3       1.0000 0.84065  0.38957  0.55603  Biso   1.000  C
  H2       1.0000 0.83710  0.40700  0.56280  Biso   1.000  H
  C4       1.0000 0.86212  0.37426  0.56672  Biso   1.000  C
  C5       1.0000 0.86747  0.34822  0.55656  Biso   1.000  C
  H3       1.0000 0.88180  0.33800  0.56370  Biso   1.000  H
  C6       1.0000 0.85134  0.33749  0.53571  Biso   1.000  C
  H4       1.0000 0.85490  0.32010  0.52890  Biso   1.000  H
  C7       1.0000 0.90960  0.40935  0.62514  Biso   1.000  C
  C8       1.0000 0.92749  0.43013  0.61752  Biso   1.000  C
  H5       1.0000 0.92970  0.43460  0.59910  Biso   1.000  H
  C9       1.0000 0.94211  0.44431  0.63740  Biso   1.000  C
  H6       1.0000 0.95410  0.45820  0.63230  Biso   1.000  H
  C10      1.0000 0.93885  0.43771  0.66489  Biso   1.000  C
  C11      1.0000 0.92096  0.41692  0.67250  Biso   1.000  C
  H7       1.0000 0.91880  0.41250  0.69090  Biso   1.000  H
  C12      1.0000 0.90634  0.40274  0.65263  Biso   1.000  C
  H8       1.0000 0.89440  0.38880  0.65770  Biso   1.000  H
  C13      1.0000 0.89320  0.39470  0.60470  Biso   1.000  C
  C14      1.0000 0.76610  0.13467  0.52446  Biso   1.000  C
  H9       1.0000 0.76380  0.12570  0.54110  Biso   1.000  H
  C15      1.0000 0.88000  0.38390  0.58920  Biso   1.000  C
  C16      1.0000 0.77360  0.16214  0.52441  Biso   1.000  C
  H10      1.0000 0.77770  0.17090  0.54080  Biso   1.000  H
  C17      1.0000 0.80620  0.29786  0.47650  Biso   1.000  C
  H11      1.0000 0.80830  0.30690  0.45990  Biso   1.000  H
  C18      1.0000 0.79950  0.27020  0.47620  Biso   1.000  C
  H12      1.0000 0.79760  0.26120  0.45960  Biso   1.000  H
  C19      1.0000 0.74360  0.36800  0.47730  Biso   1.000  C
  H13      1.0000 0.73410  0.36730  0.46080  Biso   1.000  H
  C20      1.0000 0.77010  0.35960  0.47750  Biso   1.000  C
  H14      1.0000 0.77850  0.35680  0.46060  Biso   1.000  H
  C21      1.0000 0.68520  0.04430  0.54660  Biso   1.000  C
  C22      1.0000 0.64440  0.41700  0.52210  Biso   1.000  C
  H15      1.0000 0.65310  0.41580  0.53900  Biso   1.000  H
  C23      1.0000 0.61790  0.42700  0.52230  Biso   1.000  C
  H16      1.0000 0.60900  0.42800  0.53910  Biso   1.000  H
  O4       1.0000 0.56820  0.45680  0.52090  Biso   1.000  O
  O5       1.0000 0.32316  0.02776  0.47118  Biso   1.000  O
  O6       1.0000 0.24767  0.92056  0.52383  Biso   1.000  O
  O7       1.0000 0.28932  0.94840  0.55217  Biso   1.000  O
  C24      1.0000 0.17014  0.64719  0.52502  Biso   1.000  C
  C25      1.0000 0.17548  0.62115  0.53518  Biso   1.000  C
  H17      1.0000 0.18990  0.61090  0.52800  Biso   1.000  H
  C26      1.0000 0.15935  0.61043  0.55603  Biso   1.000  C
  H18      1.0000 0.16290  0.59300  0.56280  Biso   1.000  H
  C27      1.0000 0.13788  0.62574  0.56672  Biso   1.000  C
  C28      1.0000 0.13253  0.65178  0.55656  Biso   1.000  C
  H19      1.0000 0.11820  0.66200  0.56370  Biso   1.000  H
  C29      1.0000 0.14866  0.66251  0.53571  Biso   1.000  C
  H20      1.0000 0.14510  0.67990  0.52890  Biso   1.000  H
  C30      1.0000 0.09040  0.59065  0.62514  Biso   1.000  C
  C31      1.0000 0.07251  0.56987  0.61752  Biso   1.000  C
  H21      1.0000 0.07030  0.56540  0.59910  Biso   1.000  H
  C32      1.0000 0.05789  0.55569  0.63740  Biso   1.000  C
  H22      1.0000 0.04590  0.54180  0.63230  Biso   1.000  H
  C33      1.0000 0.06115  0.56229  0.66489  Biso   1.000  C
  C34      1.0000 0.07904  0.58308  0.67250  Biso   1.000  C
  H23      1.0000 0.08120  0.58750  0.69090  Biso   1.000  H
  C35      1.0000 0.09366  0.59726  0.65263  Biso   1.000  C
  H24      1.0000 0.10560  0.61120  0.65770  Biso   1.000  H
  C36      1.0000 0.10680  0.60530  0.60470  Biso   1.000  C
  C37      1.0000 0.23390  0.86533  0.52446  Biso   1.000  C
  H25      1.0000 0.23620  0.87430  0.54110  Biso   1.000  H
  C38      1.0000 0.12000  0.61610  0.58920  Biso   1.000  C
  C39      1.0000 0.22640  0.83786  0.52441  Biso   1.000  C
  H26      1.0000 0.22230  0.82910  0.54080  Biso   1.000  H
  C40      1.0000 0.19380  0.70214  0.47650  Biso   1.000  C
  H27      1.0000 0.19170  0.69310  0.45990  Biso   1.000  H
  C41      1.0000 0.20050  0.72980  0.47620  Biso   1.000  C
  H28      1.0000 0.20240  0.73880  0.45960  Biso   1.000  H
  C42      1.0000 0.25640  0.63200  0.47730  Biso   1.000  C
  H29      1.0000 0.26590  0.63270  0.46080  Biso   1.000  H
  C43      1.0000 0.22990  0.64040  0.47750  Biso   1.000  C
  H30      1.0000 0.22150  0.64320  0.46060  Biso   1.000  H
  C44      1.0000 0.31480  0.95570  0.54660  Biso   1.000  C
  C45      1.0000 0.35560  0.58300  0.52210  Biso   1.000  C
  H31      1.0000 0.34690  0.58420  0.53900  Biso   1.000  H
  C46      1.0000 0.38210  0.57300  0.52230  Biso   1.000  C
  H32      1.0000 0.39100  0.57200  0.53910  Biso   1.000  H
  O8       1.0000 0.43180  0.54320  0.52090  Biso   1.000  O
  O9       1.0000 0.32316  0.97224  0.52882  Biso   1.000  O
  O10      1.0000 0.24767  0.07944  0.47617  Biso   1.000  O
  O11      1.0000 0.28932  0.05160  0.44783  Biso   1.000  O
  C47      1.0000 0.17014  0.35281  0.47498  Biso   1.000  C
  C48      1.0000 0.17548  0.37885  0.46482  Biso   1.000  C
  H33      1.0000 0.18990  0.38910  0.47200  Biso   1.000  H
  C49      1.0000 0.15935  0.38957  0.44397  Biso   1.000  C
  H34      1.0000 0.16290  0.40700  0.43720  Biso   1.000  H
  C50      1.0000 0.13788  0.37426  0.43328  Biso   1.000  C
  C51      1.0000 0.13253  0.34822  0.44344  Biso   1.000  C
  H35      1.0000 0.11820  0.33800  0.43630  Biso   1.000  H
  C52      1.0000 0.14866  0.33749  0.46429  Biso   1.000  C
  H36      1.0000 0.14510  0.32010  0.47110  Biso   1.000  H
  C53      1.0000 0.09040  0.40935  0.37486  Biso   1.000  C
  C54      1.0000 0.07251  0.43013  0.38248  Biso   1.000  C
  H37      1.0000 0.07030  0.43460  0.40090  Biso   1.000  H
  C55      1.0000 0.05789  0.44431  0.36260  Biso   1.000  C
  H38      1.0000 0.04590  0.45820  0.36770  Biso   1.000  H
  C56      1.0000 0.06115  0.43771  0.33511  Biso   1.000  C
  C57      1.0000 0.07904  0.41692  0.32750  Biso   1.000  C
  H39      1.0000 0.08120  0.41250  0.30910  Biso   1.000  H
  C58      1.0000 0.09366  0.40274  0.34737  Biso   1.000  C
  H40      1.0000 0.10560  0.38880  0.34230  Biso   1.000  H
  C59      1.0000 0.10680  0.39470  0.39530  Biso   1.000  C
  C60      1.0000 0.23390  0.13467  0.47554  Biso   1.000  C
  H41      1.0000 0.23620  0.12570  0.45890  Biso   1.000  H
  C61      1.0000 0.12000  0.38390  0.41080  Biso   1.000  C
  C62      1.0000 0.22640  0.16214  0.47559  Biso   1.000  C
  H42      1.0000 0.22230  0.17090  0.45920  Biso   1.000  H
  C63      1.0000 0.19380  0.29786  0.52350  Biso   1.000  C
  H43      1.0000 0.19170  0.30690  0.54010  Biso   1.000  H
  C64      1.0000 0.20050  0.27020  0.52380  Biso   1.000  C
  H44      1.0000 0.20240  0.26120  0.54040  Biso   1.000  H
  C65      1.0000 0.25640  0.36800  0.52270  Biso   1.000  C
  H45      1.0000 0.26590  0.36730  0.53920  Biso   1.000  H
  C66      1.0000 0.22990  0.35960  0.52250  Biso   1.000  C
  H46      1.0000 0.22150  0.35680  0.53940  Biso   1.000  H
  C67      1.0000 0.31480  0.04430  0.45340  Biso   1.000  C
  C68      1.0000 0.35560  0.41700  0.47790  Biso   1.000  C
  H47      1.0000 0.34690  0.41580  0.46100  Biso   1.000  H
  C69      1.0000 0.38210  0.42700  0.47770  Biso   1.000  C
  H48      1.0000 0.39100  0.42800  0.46090  Biso   1.000  H
  O12      1.0000 0.43180  0.45680  0.47910  Biso   1.000  O
  O13      1.0000 0.67684  0.02776  0.52882  Biso   1.000  O
  O14      1.0000 0.75233  0.92056  0.47617  Biso   1.000  O
  O15      1.0000 0.71068  0.94840  0.44783  Biso   1.000  O
  C70      1.0000 0.82986  0.64719  0.47498  Biso   1.000  C
  C71      1.0000 0.82452  0.62115  0.46482  Biso   1.000  C
  H49      1.0000 0.81010  0.61090  0.47200  Biso   1.000  H
  C72      1.0000 0.84065  0.61043  0.44397  Biso   1.000  C
  H50      1.0000 0.83710  0.59300  0.43720  Biso   1.000  H
  C73      1.0000 0.86212  0.62574  0.43328  Biso   1.000  C
  C74      1.0000 0.86747  0.65178  0.44344  Biso   1.000  C
  H51      1.0000 0.88180  0.66200  0.43630  Biso   1.000  H
  C75      1.0000 0.85134  0.66251  0.46429  Biso   1.000  C
  H52      1.0000 0.85490  0.67990  0.47110  Biso   1.000  H
  C76      1.0000 0.90960  0.59065  0.37486  Biso   1.000  C
  C77      1.0000 0.92749  0.56987  0.38248  Biso   1.000  C
  H53      1.0000 0.92970  0.56540  0.40090  Biso   1.000  H
  C78      1.0000 0.94211  0.55569  0.36260  Biso   1.000  C
  H54      1.0000 0.95410  0.54180  0.36770  Biso   1.000  H
  C79      1.0000 0.93885  0.56229  0.33511  Biso   1.000  C
  C80      1.0000 0.92096  0.58308  0.32750  Biso   1.000  C
  H55      1.0000 0.91880  0.58750  0.30910  Biso   1.000  H
  C81      1.0000 0.90634  0.59726  0.34737  Biso   1.000  C
  H56      1.0000 0.89440  0.61120  0.34230  Biso   1.000  H
  C82      1.0000 0.89320  0.60530  0.39530  Biso   1.000  C
  C83      1.0000 0.76610  0.86533  0.47554  Biso   1.000  C
  H57      1.0000 0.76380  0.87430  0.45890  Biso   1.000  H
  C84      1.0000 0.88000  0.61610  0.41080  Biso   1.000  C
  C85      1.0000 0.77360  0.83786  0.47559  Biso   1.000  C
  H58      1.0000 0.77770  0.82910  0.45920  Biso   1.000  H
  C86      1.0000 0.80620  0.70214  0.52350  Biso   1.000  C
  H59      1.0000 0.80830  0.69310  0.54010  Biso   1.000  H
  C87      1.0000 0.79950  0.72980  0.52380  Biso   1.000  C
  H60      1.0000 0.79760  0.73880  0.54040  Biso   1.000  H
  C88      1.0000 0.74360  0.63200  0.52270  Biso   1.000  C
  H61      1.0000 0.73410  0.63270  0.53920  Biso   1.000  H
  C89      1.0000 0.77010  0.64040  0.52250  Biso   1.000  C
  H62      1.0000 0.77850  0.64320  0.53940  Biso   1.000  H
  C90      1.0000 0.68520  0.95570  0.45340  Biso   1.000  C
  C91      1.0000 0.64440  0.58300  0.47790  Biso   1.000  C
  H63      1.0000 0.65310  0.58420  0.46100  Biso   1.000  H
  C92      1.0000 0.61790  0.57300  0.47770  Biso   1.000  C
  H64      1.0000 0.60900  0.57200  0.46090  Biso   1.000  H
  O16      1.0000 0.56820  0.54320  0.47910  Biso   1.000  O
  O17      1.0000 0.47118  0.67684  0.97224  Biso   1.000  O
  O18      1.0000 0.52383  0.75233  0.07944  Biso   1.000  O
  O19      1.0000 0.55217  0.71068  0.05160  Biso   1.000  O
  C93      1.0000 0.52502  0.82986  0.35281  Biso   1.000  C
  C94      1.0000 0.53518  0.82452  0.37885  Biso   1.000  C
  H65      1.0000 0.52800  0.81010  0.38910  Biso   1.000  H
  C95      1.0000 0.55603  0.84065  0.38957  Biso   1.000  C
  H66      1.0000 0.56280  0.83710  0.40700  Biso   1.000  H
  C96      1.0000 0.56672  0.86212  0.37426  Biso   1.000  C
  C97      1.0000 0.55656  0.86747  0.34822  Biso   1.000  C
  H67      1.0000 0.56370  0.88180  0.33800  Biso   1.000  H
  C98      1.0000 0.53571  0.85134  0.33749  Biso   1.000  C
  H68      1.0000 0.52890  0.85490  0.32010  Biso   1.000  H
  C99      1.0000 0.62514  0.90960  0.40935  Biso   1.000  C
  C100     1.0000 0.61752  0.92749  0.43013  Biso   1.000  C
  H69      1.0000 0.59910  0.92970  0.43460  Biso   1.000  H
  C101     1.0000 0.63740  0.94211  0.44431  Biso   1.000  C
  H70      1.0000 0.63230  0.95410  0.45820  Biso   1.000  H
  C102     1.0000 0.66489  0.93885  0.43771  Biso   1.000  C
  C103     1.0000 0.67250  0.92096  0.41692  Biso   1.000  C
  H71      1.0000 0.69090  0.91880  0.41250  Biso   1.000  H
  C104     1.0000 0.65263  0.90634  0.40274  Biso   1.000  C
  H72      1.0000 0.65770  0.89440  0.38880  Biso   1.000  H
  C105     1.0000 0.60470  0.89320  0.39470  Biso   1.000  C
  C106     1.0000 0.52446  0.76610  0.13467  Biso   1.000  C
  H73      1.0000 0.54110  0.76380  0.12570  Biso   1.000  H
  C107     1.0000 0.58920  0.88000  0.38390  Biso   1.000  C
  C108     1.0000 0.52441  0.77360  0.16214  Biso   1.000  C
  H74      1.0000 0.54080  0.77770  0.17090  Biso   1.000  H
  C109     1.0000 0.47650  0.80620  0.29786  Biso   1.000  C
  H75      1.0000 0.45990  0.80830  0.30690  Biso   1.000  H
  C110     1.0000 0.47620  0.79950  0.27020  Biso   1.000  C
  H76      1.0000 0.45960  0.79760  0.26120  Biso   1.000  H
  C111     1.0000 0.47730  0.74360  0.36800  Biso   1.000  C
  H77      1.0000 0.46080  0.73410  0.36730  Biso   1.000  H
  C112     1.0000 0.47750  0.77010  0.35960  Biso   1.000  C
  H78      1.0000 0.46060  0.77850  0.35680  Biso   1.000  H
  C113     1.0000 0.54660  0.68520  0.04430  Biso   1.000  C
  C114     1.0000 0.52210  0.64440  0.41700  Biso   1.000  C
  H79      1.0000 0.53900  0.65310  0.41580  Biso   1.000  H
  C115     1.0000 0.52230  0.61790  0.42700  Biso   1.000  C
  H80      1.0000 0.53910  0.60900  0.42800  Biso   1.000  H
  O20      1.0000 0.52090  0.56820  0.45680  Biso   1.000  O
  O21      1.0000 0.47118  0.32316  0.02776  Biso   1.000  O
  O22      1.0000 0.52383  0.24767  0.92056  Biso   1.000  O
  O23      1.0000 0.55217  0.28932  0.94840  Biso   1.000  O
  C116     1.0000 0.52502  0.17014  0.64719  Biso   1.000  C
  C117     1.0000 0.53518  0.17548  0.62115  Biso   1.000  C
  H81      1.0000 0.52800  0.18990  0.61090  Biso   1.000  H
  C118     1.0000 0.55603  0.15935  0.61043  Biso   1.000  C
  H82      1.0000 0.56280  0.16290  0.59300  Biso   1.000  H
  C119     1.0000 0.56672  0.13788  0.62574  Biso   1.000  C
  C120     1.0000 0.55656  0.13253  0.65178  Biso   1.000  C
  H83      1.0000 0.56370  0.11820  0.66200  Biso   1.000  H
  C121     1.0000 0.53571  0.14866  0.66251  Biso   1.000  C
  H84      1.0000 0.52890  0.14510  0.67990  Biso   1.000  H
  C122     1.0000 0.62514  0.09040  0.59065  Biso   1.000  C
  C123     1.0000 0.61752  0.07251  0.56987  Biso   1.000  C
  H85      1.0000 0.59910  0.07030  0.56540  Biso   1.000  H
  C124     1.0000 0.63740  0.05789  0.55569  Biso   1.000  C
  H86      1.0000 0.63230  0.04590  0.54180  Biso   1.000  H
  C125     1.0000 0.66489  0.06115  0.56229  Biso   1.000  C
  C126     1.0000 0.67250  0.07904  0.58308  Biso   1.000  C
  H87      1.0000 0.69090  0.08120  0.58750  Biso   1.000  H
  C127     1.0000 0.65263  0.09366  0.59726  Biso   1.000  C
  H88      1.0000 0.65770  0.10560  0.61120  Biso   1.000  H
  C128     1.0000 0.60470  0.10680  0.60530  Biso   1.000  C
  C129     1.0000 0.52446  0.23390  0.86533  Biso   1.000  C
  H89      1.0000 0.54110  0.23620  0.87430  Biso   1.000  H
  C130     1.0000 0.58920  0.12000  0.61610  Biso   1.000  C
  C131     1.0000 0.52441  0.22640  0.83786  Biso   1.000  C
  H90      1.0000 0.54080  0.22230  0.82910  Biso   1.000  H
  C132     1.0000 0.47650  0.19380  0.70214  Biso   1.000  C
  H91      1.0000 0.45990  0.19170  0.69310  Biso   1.000  H
  C133     1.0000 0.47620  0.20050  0.72980  Biso   1.000  C
  H92      1.0000 0.45960  0.20240  0.73880  Biso   1.000  H
  C134     1.0000 0.47730  0.25640  0.63200  Biso   1.000  C
  H93      1.0000 0.46080  0.26590  0.63270  Biso   1.000  H
  C135     1.0000 0.47750  0.22990  0.64040  Biso   1.000  C
  H94      1.0000 0.46060  0.22150  0.64320  Biso   1.000  H
  C136     1.0000 0.54660  0.31480  0.95570  Biso   1.000  C
  C137     1.0000 0.52210  0.35560  0.58300  Biso   1.000  C
  H95      1.0000 0.53900  0.34690  0.58420  Biso   1.000  H
  C138     1.0000 0.52230  0.38210  0.57300  Biso   1.000  C
  H96      1.0000 0.53910  0.39100  0.57200  Biso   1.000  H
  O24      1.0000 0.52090  0.43180  0.54320  Biso   1.000  O
  O25      1.0000 0.52882  0.32316  0.97224  Biso   1.000  O
  O26      1.0000 0.47617  0.24767  0.07944  Biso   1.000  O
  O27      1.0000 0.44783  0.28932  0.05160  Biso   1.000  O
  C139     1.0000 0.47498  0.17014  0.35281  Biso   1.000  C
  C140     1.0000 0.46482  0.17548  0.37885  Biso   1.000  C
  H97      1.0000 0.47200  0.18990  0.38910  Biso   1.000  H
  C141     1.0000 0.44397  0.15935  0.38957  Biso   1.000  C
  H98      1.0000 0.43720  0.16290  0.40700  Biso   1.000  H
  C142     1.0000 0.43328  0.13788  0.37426  Biso   1.000  C
  C143     1.0000 0.44344  0.13253  0.34822  Biso   1.000  C
  H99      1.0000 0.43630  0.11820  0.33800  Biso   1.000  H
  C144     1.0000 0.46429  0.14866  0.33749  Biso   1.000  C
  H100     1.0000 0.47110  0.14510  0.32010  Biso   1.000  H
  C145     1.0000 0.37486  0.09040  0.40935  Biso   1.000  C
  C146     1.0000 0.38248  0.07251  0.43013  Biso   1.000  C
  H101     1.0000 0.40090  0.07030  0.43460  Biso   1.000  H
  C147     1.0000 0.36260  0.05789  0.44431  Biso   1.000  C
  H102     1.0000 0.36770  0.04590  0.45820  Biso   1.000  H
  C148     1.0000 0.33511  0.06115  0.43771  Biso   1.000  C
  C149     1.0000 0.32750  0.07904  0.41692  Biso   1.000  C
  H103     1.0000 0.30910  0.08120  0.41250  Biso   1.000  H
  C150     1.0000 0.34737  0.09366  0.40274  Biso   1.000  C
  H104     1.0000 0.34230  0.10560  0.38880  Biso   1.000  H
  C151     1.0000 0.39530  0.10680  0.39470  Biso   1.000  C
  C152     1.0000 0.47554  0.23390  0.13467  Biso   1.000  C
  H105     1.0000 0.45890  0.23620  0.12570  Biso   1.000  H
  C153     1.0000 0.41080  0.12000  0.38390  Biso   1.000  C
  C154     1.0000 0.47559  0.22640  0.16214  Biso   1.000  C
  H106     1.0000 0.45920  0.22230  0.17090  Biso   1.000  H
  C155     1.0000 0.52350  0.19380  0.29786  Biso   1.000  C
  H107     1.0000 0.54010  0.19170  0.30690  Biso   1.000  H
  C156     1.0000 0.52380  0.20050  0.27020  Biso   1.000  C
  H108     1.0000 0.54040  0.20240  0.26120  Biso   1.000  H
  C157     1.0000 0.52270  0.25640  0.36800  Biso   1.000  C
  H109     1.0000 0.53920  0.26590  0.36730  Biso   1.000  H
  C158     1.0000 0.52250  0.22990  0.35960  Biso   1.000  C
  H110     1.0000 0.53940  0.22150  0.35680  Biso   1.000  H
  C159     1.0000 0.45340  0.31480  0.04430  Biso   1.000  C
  C160     1.0000 0.47790  0.35560  0.41700  Biso   1.000  C
  H111     1.0000 0.46100  0.34690  0.41580  Biso   1.000  H
  C161     1.0000 0.47770  0.38210  0.42700  Biso   1.000  C
  H112     1.0000 0.46090  0.39100  0.42800  Biso   1.000  H
  O28      1.0000 0.47910  0.43180  0.45680  Biso   1.000  O
  O29      1.0000 0.52882  0.67684  0.02776  Biso   1.000  O
  O30      1.0000 0.47617  0.75233  0.92056  Biso   1.000  O
  O31      1.0000 0.44783  0.71068  0.94840  Biso   1.000  O
  C162     1.0000 0.47498  0.82986  0.64719  Biso   1.000  C
  C163     1.0000 0.46482  0.82452  0.62115  Biso   1.000  C
  H113     1.0000 0.47200  0.81010  0.61090  Biso   1.000  H
  C164     1.0000 0.44397  0.84065  0.61043  Biso   1.000  C
  H114     1.0000 0.43720  0.83710  0.59300  Biso   1.000  H
  C165     1.0000 0.43328  0.86212  0.62574  Biso   1.000  C
  C166     1.0000 0.44344  0.86747  0.65178  Biso   1.000  C
  H115     1.0000 0.43630  0.88180  0.66200  Biso   1.000  H
  C167     1.0000 0.46429  0.85134  0.66251  Biso   1.000  C
  H116     1.0000 0.47110  0.85490  0.67990  Biso   1.000  H
  C168     1.0000 0.37486  0.90960  0.59065  Biso   1.000  C
  C169     1.0000 0.38248  0.92749  0.56987  Biso   1.000  C
  H117     1.0000 0.40090  0.92970  0.56540  Biso   1.000  H
  C170     1.0000 0.36260  0.94211  0.55569  Biso   1.000  C
  H118     1.0000 0.36770  0.95410  0.54180  Biso   1.000  H
  C171     1.0000 0.33511  0.93885  0.56229  Biso   1.000  C
  C172     1.0000 0.32750  0.92096  0.58308  Biso   1.000  C
  H119     1.0000 0.30910  0.91880  0.58750  Biso   1.000  H
  C173     1.0000 0.34737  0.90634  0.59726  Biso   1.000  C
  H120     1.0000 0.34230  0.89440  0.61120  Biso   1.000  H
  C174     1.0000 0.39530  0.89320  0.60530  Biso   1.000  C
  C175     1.0000 0.47554  0.76610  0.86533  Biso   1.000  C
  H121     1.0000 0.45890  0.76380  0.87430  Biso   1.000  H
  C176     1.0000 0.41080  0.88000  0.61610  Biso   1.000  C
  C177     1.0000 0.47559  0.77360  0.83786  Biso   1.000  C
  H122     1.0000 0.45920  0.77770  0.82910  Biso   1.000  H
  C178     1.0000 0.52350  0.80620  0.70214  Biso   1.000  C
  H123     1.0000 0.54010  0.80830  0.69310  Biso   1.000  H
  C179     1.0000 0.52380  0.79950  0.72980  Biso   1.000  C
  H124     1.0000 0.54040  0.79760  0.73880  Biso   1.000  H
  C180     1.0000 0.52270  0.74360  0.63200  Biso   1.000  C
  H125     1.0000 0.53920  0.73410  0.63270  Biso   1.000  H
  C181     1.0000 0.52250  0.77010  0.64040  Biso   1.000  C
  H126     1.0000 0.53940  0.77850  0.64320  Biso   1.000  H
  C182     1.0000 0.45340  0.68520  0.95570  Biso   1.000  C
  C183     1.0000 0.47790  0.64440  0.58300  Biso   1.000  C
  H127     1.0000 0.46100  0.65310  0.58420  Biso   1.000  H
  C184     1.0000 0.47770  0.61790  0.57300  Biso   1.000  C
  H128     1.0000 0.46090  0.60900  0.57200  Biso   1.000  H
  O32      1.0000 0.47910  0.56820  0.54320  Biso   1.000  O
  O33      1.0000 0.97224  0.47118  0.67684  Biso   1.000  O
  O34      1.0000 0.07944  0.52383  0.75233  Biso   1.000  O
  O35      1.0000 0.05160  0.55217  0.71068  Biso   1.000  O
  C185     1.0000 0.35281  0.52502  0.82986  Biso   1.000  C
  C186     1.0000 0.37885  0.53518  0.82452  Biso   1.000  C
  H129     1.0000 0.38910  0.52800  0.81010  Biso   1.000  H
  C187     1.0000 0.38957  0.55603  0.84065  Biso   1.000  C
  H130     1.0000 0.40700  0.56280  0.83710  Biso   1.000  H
  C188     1.0000 0.37426  0.56672  0.86212  Biso   1.000  C
  C189     1.0000 0.34822  0.55656  0.86747  Biso   1.000  C
  H131     1.0000 0.33800  0.56370  0.88180  Biso   1.000  H
  C190     1.0000 0.33749  0.53571  0.85134  Biso   1.000  C
  H132     1.0000 0.32010  0.52890  0.85490  Biso   1.000  H
  C191     1.0000 0.40935  0.62514  0.90960  Biso   1.000  C
  C192     1.0000 0.43013  0.61752  0.92749  Biso   1.000  C
  H133     1.0000 0.43460  0.59910  0.92970  Biso   1.000  H
  C193     1.0000 0.44431  0.63740  0.94211  Biso   1.000  C
  H134     1.0000 0.45820  0.63230  0.95410  Biso   1.000  H
  C194     1.0000 0.43771  0.66489  0.93885  Biso   1.000  C
  C195     1.0000 0.41692  0.67250  0.92096  Biso   1.000  C
  H135     1.0000 0.41250  0.69090  0.91880  Biso   1.000  H
  C196     1.0000 0.40274  0.65263  0.90634  Biso   1.000  C
  H136     1.0000 0.38880  0.65770  0.89440  Biso   1.000  H
  C197     1.0000 0.39470  0.60470  0.89320  Biso   1.000  C
  C198     1.0000 0.13467  0.52446  0.76610  Biso   1.000  C
  H137     1.0000 0.12570  0.54110  0.76380  Biso   1.000  H
  C199     1.0000 0.38390  0.58920  0.88000  Biso   1.000  C
  C200     1.0000 0.16214  0.52441  0.77360  Biso   1.000  C
  H138     1.0000 0.17090  0.54080  0.77770  Biso   1.000  H
  C201     1.0000 0.29786  0.47650  0.80620  Biso   1.000  C
  H139     1.0000 0.30690  0.45990  0.80830  Biso   1.000  H
  C202     1.0000 0.27020  0.47620  0.79950  Biso   1.000  C
  H140     1.0000 0.26120  0.45960  0.79760  Biso   1.000  H
  C203     1.0000 0.36800  0.47730  0.74360  Biso   1.000  C
  H141     1.0000 0.36730  0.46080  0.73410  Biso   1.000  H
  C204     1.0000 0.35960  0.47750  0.77010  Biso   1.000  C
  H142     1.0000 0.35680  0.46060  0.77850  Biso   1.000  H
  C205     1.0000 0.04430  0.54660  0.68520  Biso   1.000  C
  C206     1.0000 0.41700  0.52210  0.64440  Biso   1.000  C
  H143     1.0000 0.41580  0.53900  0.65310  Biso   1.000  H
  C207     1.0000 0.42700  0.52230  0.61790  Biso   1.000  C
  H144     1.0000 0.42800  0.53910  0.60900  Biso   1.000  H
  O36      1.0000 0.45680  0.52090  0.56820  Biso   1.000  O
  O37      1.0000 0.02776  0.47118  0.32316  Biso   1.000  O
  O38      1.0000 0.92056  0.52383  0.24767  Biso   1.000  O
  O39      1.0000 0.94840  0.55217  0.28932  Biso   1.000  O
  C208     1.0000 0.64719  0.52502  0.17014  Biso   1.000  C
  C209     1.0000 0.62115  0.53518  0.17548  Biso   1.000  C
  H145     1.0000 0.61090  0.52800  0.18990  Biso   1.000  H
  C210     1.0000 0.61043  0.55603  0.15935  Biso   1.000  C
  H146     1.0000 0.59300  0.56280  0.16290  Biso   1.000  H
  C211     1.0000 0.62574  0.56672  0.13788  Biso   1.000  C
  C212     1.0000 0.65178  0.55656  0.13253  Biso   1.000  C
  H147     1.0000 0.66200  0.56370  0.11820  Biso   1.000  H
  C213     1.0000 0.66251  0.53571  0.14866  Biso   1.000  C
  H148     1.0000 0.67990  0.52890  0.14510  Biso   1.000  H
  C214     1.0000 0.59065  0.62514  0.09040  Biso   1.000  C
  C215     1.0000 0.56987  0.61752  0.07251  Biso   1.000  C
  H149     1.0000 0.56540  0.59910  0.07030  Biso   1.000  H
  C216     1.0000 0.55569  0.63740  0.05789  Biso   1.000  C
  H150     1.0000 0.54180  0.63230  0.04590  Biso   1.000  H
  C217     1.0000 0.56229  0.66489  0.06115  Biso   1.000  C
  C218     1.0000 0.58308  0.67250  0.07904  Biso   1.000  C
  H151     1.0000 0.58750  0.69090  0.08120  Biso   1.000  H
  C219     1.0000 0.59726  0.65263  0.09366  Biso   1.000  C
  H152     1.0000 0.61120  0.65770  0.10560  Biso   1.000  H
  C220     1.0000 0.60530  0.60470  0.10680  Biso   1.000  C
  C221     1.0000 0.86533  0.52446  0.23390  Biso   1.000  C
  H153     1.0000 0.87430  0.54110  0.23620  Biso   1.000  H
  C222     1.0000 0.61610  0.58920  0.12000  Biso   1.000  C
  C223     1.0000 0.83786  0.52441  0.22640  Biso   1.000  C
  H154     1.0000 0.82910  0.54080  0.22230  Biso   1.000  H
  C224     1.0000 0.70214  0.47650  0.19380  Biso   1.000  C
  H155     1.0000 0.69310  0.45990  0.19170  Biso   1.000  H
  C225     1.0000 0.72980  0.47620  0.20050  Biso   1.000  C
  H156     1.0000 0.73880  0.45960  0.20240  Biso   1.000  H
  C226     1.0000 0.63200  0.47730  0.25640  Biso   1.000  C
  H157     1.0000 0.63270  0.46080  0.26590  Biso   1.000  H
  C227     1.0000 0.64040  0.47750  0.22990  Biso   1.000  C
  H158     1.0000 0.64320  0.46060  0.22150  Biso   1.000  H
  C228     1.0000 0.95570  0.54660  0.31480  Biso   1.000  C
  C229     1.0000 0.58300  0.52210  0.35560  Biso   1.000  C
  H159     1.0000 0.58420  0.53900  0.34690  Biso   1.000  H
  C230     1.0000 0.57300  0.52230  0.38210  Biso   1.000  C
  H160     1.0000 0.57200  0.53910  0.39100  Biso   1.000  H
  O40      1.0000 0.54320  0.52090  0.43180  Biso   1.000  O
  O41      1.0000 0.97224  0.52882  0.32316  Biso   1.000  O
  O42      1.0000 0.07944  0.47617  0.24767  Biso   1.000  O
  O43      1.0000 0.05160  0.44783  0.28932  Biso   1.000  O
  C231     1.0000 0.35281  0.47498  0.17014  Biso   1.000  C
  C232     1.0000 0.37885  0.46482  0.17548  Biso   1.000  C
  H161     1.0000 0.38910  0.47200  0.18990  Biso   1.000  H
  C233     1.0000 0.38957  0.44397  0.15935  Biso   1.000  C
  H162     1.0000 0.40700  0.43720  0.16290  Biso   1.000  H
  C234     1.0000 0.37426  0.43328  0.13788  Biso   1.000  C
  C235     1.0000 0.34822  0.44344  0.13253  Biso   1.000  C
  H163     1.0000 0.33800  0.43630  0.11820  Biso   1.000  H
  C236     1.0000 0.33749  0.46429  0.14866  Biso   1.000  C
  H164     1.0000 0.32010  0.47110  0.14510  Biso   1.000  H
  C237     1.0000 0.40935  0.37486  0.09040  Biso   1.000  C
  C238     1.0000 0.43013  0.38248  0.07251  Biso   1.000  C
  H165     1.0000 0.43460  0.40090  0.07030  Biso   1.000  H
  C239     1.0000 0.44431  0.36260  0.05789  Biso   1.000  C
  H166     1.0000 0.45820  0.36770  0.04590  Biso   1.000  H
  C240     1.0000 0.43771  0.33511  0.06115  Biso   1.000  C
  C241     1.0000 0.41692  0.32750  0.07904  Biso   1.000  C
  H167     1.0000 0.41250  0.30910  0.08120  Biso   1.000  H
  C242     1.0000 0.40274  0.34737  0.09366  Biso   1.000  C
  H168     1.0000 0.38880  0.34230  0.10560  Biso   1.000  H
  C243     1.0000 0.39470  0.39530  0.10680  Biso   1.000  C
  C244     1.0000 0.13467  0.47554  0.23390  Biso   1.000  C
  H169     1.0000 0.12570  0.45890  0.23620  Biso   1.000  H
  C245     1.0000 0.38390  0.41080  0.12000  Biso   1.000  C
  C246     1.0000 0.16214  0.47559  0.22640  Biso   1.000  C
  H170     1.0000 0.17090  0.45920  0.22230  Biso   1.000  H
  C247     1.0000 0.29786  0.52350  0.19380  Biso   1.000  C
  H171     1.0000 0.30690  0.54010  0.19170  Biso   1.000  H
  C248     1.0000 0.27020  0.52380  0.20050  Biso   1.000  C
  H172     1.0000 0.26120  0.54040  0.20240  Biso   1.000  H
  C249     1.0000 0.36800  0.52270  0.25640  Biso   1.000  C
  H173     1.0000 0.36730  0.53920  0.26590  Biso   1.000  H
  C250     1.0000 0.35960  0.52250  0.22990  Biso   1.000  C
  H174     1.0000 0.35680  0.53940  0.22150  Biso   1.000  H
  C251     1.0000 0.04430  0.45340  0.31480  Biso   1.000  C
  C252     1.0000 0.41700  0.47790  0.35560  Biso   1.000  C
  H175     1.0000 0.41580  0.46100  0.34690  Biso   1.000  H
  C253     1.0000 0.42700  0.47770  0.38210  Biso   1.000  C
  H176     1.0000 0.42800  0.46090  0.39100  Biso   1.000  H
  O44      1.0000 0.45680  0.47910  0.43180  Biso   1.000  O
  O45      1.0000 0.02776  0.52882  0.67684  Biso   1.000  O
  O46      1.0000 0.92056  0.47617  0.75233  Biso   1.000  O
  O47      1.0000 0.94840  0.44783  0.71068  Biso   1.000  O
  C254     1.0000 0.64719  0.47498  0.82986  Biso   1.000  C
  C255     1.0000 0.62115  0.46482  0.82452  Biso   1.000  C
  H177     1.0000 0.61090  0.47200  0.81010  Biso   1.000  H
  C256     1.0000 0.61043  0.44397  0.84065  Biso   1.000  C
  H178     1.0000 0.59300  0.43720  0.83710  Biso   1.000  H
  C257     1.0000 0.62574  0.43328  0.86212  Biso   1.000  C
  C258     1.0000 0.65178  0.44344  0.86747  Biso   1.000  C
  H179     1.0000 0.66200  0.43630  0.88180  Biso   1.000  H
  C259     1.0000 0.66251  0.46429  0.85134  Biso   1.000  C
  H180     1.0000 0.67990  0.47110  0.85490  Biso   1.000  H
  C260     1.0000 0.59065  0.37486  0.90960  Biso   1.000  C
  C261     1.0000 0.56987  0.38248  0.92749  Biso   1.000  C
  H181     1.0000 0.56540  0.40090  0.92970  Biso   1.000  H
  C262     1.0000 0.55569  0.36260  0.94211  Biso   1.000  C
  H182     1.0000 0.54180  0.36770  0.95410  Biso   1.000  H
  C263     1.0000 0.56229  0.33511  0.93885  Biso   1.000  C
  C264     1.0000 0.58308  0.32750  0.92096  Biso   1.000  C
  H183     1.0000 0.58750  0.30910  0.91880  Biso   1.000  H
  C265     1.0000 0.59726  0.34737  0.90634  Biso   1.000  C
  H184     1.0000 0.61120  0.34230  0.89440  Biso   1.000  H
  C266     1.0000 0.60530  0.39530  0.89320  Biso   1.000  C
  C267     1.0000 0.86533  0.47554  0.76610  Biso   1.000  C
  H185     1.0000 0.87430  0.45890  0.76380  Biso   1.000  H
  C268     1.0000 0.61610  0.41080  0.88000  Biso   1.000  C
  C269     1.0000 0.83786  0.47559  0.77360  Biso   1.000  C
  H186     1.0000 0.82910  0.45920  0.77770  Biso   1.000  H
  C270     1.0000 0.70214  0.52350  0.80620  Biso   1.000  C
  H187     1.0000 0.69310  0.54010  0.80830  Biso   1.000  H
  C271     1.0000 0.72980  0.52380  0.79950  Biso   1.000  C
  H188     1.0000 0.73880  0.54040  0.79760  Biso   1.000  H
  C272     1.0000 0.63200  0.52270  0.74360  Biso   1.000  C
  H189     1.0000 0.63270  0.53920  0.73410  Biso   1.000  H
  C273     1.0000 0.64040  0.52250  0.77010  Biso   1.000  C
  H190     1.0000 0.64320  0.53940  0.77850  Biso   1.000  H
  C274     1.0000 0.95570  0.45340  0.68520  Biso   1.000  C
  C275     1.0000 0.58300  0.47790  0.64440  Biso   1.000  C
  H191     1.0000 0.58420  0.46100  0.65310  Biso   1.000  H
  C276     1.0000 0.57300  0.47770  0.61790  Biso   1.000  C
  H192     1.0000 0.57200  0.46090  0.60900  Biso   1.000  H
  O48      1.0000 0.54320  0.47910  0.56820  Biso   1.000  O
  O49      1.0000 0.47224  0.17684  0.02882  Biso   1.000  O
  O50      1.0000 0.57944  0.25233  0.97617  Biso   1.000  O
  O51      1.0000 0.55160  0.21068  0.94783  Biso   1.000  O
  C277     1.0000 0.85281  0.32986  0.97498  Biso   1.000  C
  C278     1.0000 0.87885  0.32452  0.96482  Biso   1.000  C
  H193     1.0000 0.88910  0.31010  0.97200  Biso   1.000  H
  C279     1.0000 0.88957  0.34065  0.94397  Biso   1.000  C
  H194     1.0000 0.90700  0.33710  0.93720  Biso   1.000  H
  C280     1.0000 0.87426  0.36212  0.93328  Biso   1.000  C
  C281     1.0000 0.84822  0.36747  0.94344  Biso   1.000  C
  H195     1.0000 0.83800  0.38180  0.93630  Biso   1.000  H
  C282     1.0000 0.83749  0.35134  0.96429  Biso   1.000  C
  H196     1.0000 0.82010  0.35490  0.97110  Biso   1.000  H
  C283     1.0000 0.90935  0.40960  0.87486  Biso   1.000  C
  C284     1.0000 0.93013  0.42749  0.88248  Biso   1.000  C
  H197     1.0000 0.93460  0.42970  0.90090  Biso   1.000  H
  C285     1.0000 0.94431  0.44211  0.86260  Biso   1.000  C
  H198     1.0000 0.95820  0.45410  0.86770  Biso   1.000  H
  C286     1.0000 0.93771  0.43885  0.83511  Biso   1.000  C
  C287     1.0000 0.91692  0.42096  0.82750  Biso   1.000  C
  H199     1.0000 0.91250  0.41880  0.80910  Biso   1.000  H
  C288     1.0000 0.90274  0.40634  0.84737  Biso   1.000  C
  H200     1.0000 0.88880  0.39440  0.84230  Biso   1.000  H
  C289     1.0000 0.89470  0.39320  0.89530  Biso   1.000  C
  C290     1.0000 0.63467  0.26610  0.97554  Biso   1.000  C
  H201     1.0000 0.62570  0.26380  0.95890  Biso   1.000  H
  C291     1.0000 0.88390  0.38000  0.91080  Biso   1.000  C
  C292     1.0000 0.66214  0.27360  0.97559  Biso   1.000  C
  H202     1.0000 0.67090  0.27770  0.95920  Biso   1.000  H
  C293     1.0000 0.79786  0.30620  0.02350  Biso   1.000  C
  H203     1.0000 0.80690  0.30830  0.04010  Biso   1.000  H
  C294     1.0000 0.77020  0.29950  0.02380  Biso   1.000  C
  H204     1.0000 0.76120  0.29760  0.04040  Biso   1.000  H
  C295     1.0000 0.86800  0.24360  0.02270  Biso   1.000  C
  H205     1.0000 0.86730  0.23410  0.03920  Biso   1.000  H
  C296     1.0000 0.85960  0.27010  0.02250  Biso   1.000  C
  H206     1.0000 0.85680  0.27850  0.03940  Biso   1.000  H
  C297     1.0000 0.54430  0.18520  0.95340  Biso   1.000  C
  C298     1.0000 0.91700  0.14440  0.97790  Biso   1.000  C
  H207     1.0000 0.91580  0.15310  0.96100  Biso   1.000  H
  C299     1.0000 0.92700  0.11790  0.97770  Biso   1.000  C
  H208     1.0000 0.92800  0.10900  0.96090  Biso   1.000  H
  O52      1.0000 0.95680  0.06820  0.97910  Biso   1.000  O
  O53      1.0000 0.52776  0.82316  0.02882  Biso   1.000  O
  O54      1.0000 0.42056  0.74767  0.97617  Biso   1.000  O
  O55      1.0000 0.44840  0.78932  0.94783  Biso   1.000  O
  C300     1.0000 0.14719  0.67014  0.97498  Biso   1.000  C
  C301     1.0000 0.12115  0.67548  0.96482  Biso   1.000  C
  H209     1.0000 0.11090  0.68990  0.97200  Biso   1.000  H
  C302     1.0000 0.11043  0.65935  0.94397  Biso   1.000  C
  H210     1.0000 0.09300  0.66290  0.93720  Biso   1.000  H
  C303     1.0000 0.12574  0.63788  0.93328  Biso   1.000  C
  C304     1.0000 0.15178  0.63253  0.94344  Biso   1.000  C
  H211     1.0000 0.16200  0.61820  0.93630  Biso   1.000  H
  C305     1.0000 0.16251  0.64866  0.96429  Biso   1.000  C
  H212     1.0000 0.17990  0.64510  0.97110  Biso   1.000  H
  C306     1.0000 0.09065  0.59040  0.87486  Biso   1.000  C
  C307     1.0000 0.06987  0.57251  0.88248  Biso   1.000  C
  H213     1.0000 0.06540  0.57030  0.90090  Biso   1.000  H
  C308     1.0000 0.05569  0.55789  0.86260  Biso   1.000  C
  H214     1.0000 0.04180  0.54590  0.86770  Biso   1.000  H
  C309     1.0000 0.06229  0.56115  0.83511  Biso   1.000  C
  C310     1.0000 0.08308  0.57904  0.82750  Biso   1.000  C
  H215     1.0000 0.08750  0.58120  0.80910  Biso   1.000  H
  C311     1.0000 0.09726  0.59366  0.84737  Biso   1.000  C
  H216     1.0000 0.11120  0.60560  0.84230  Biso   1.000  H
  C312     1.0000 0.10530  0.60680  0.89530  Biso   1.000  C
  C313     1.0000 0.36533  0.73390  0.97554  Biso   1.000  C
  H217     1.0000 0.37430  0.73620  0.95890  Biso   1.000  H
  C314     1.0000 0.11610  0.62000  0.91080  Biso   1.000  C
  C315     1.0000 0.33786  0.72640  0.97559  Biso   1.000  C
  H218     1.0000 0.32910  0.72230  0.95920  Biso   1.000  H
  C316     1.0000 0.20214  0.69380  0.02350  Biso   1.000  C
  H219     1.0000 0.19310  0.69170  0.04010  Biso   1.000  H
  C317     1.0000 0.22980  0.70050  0.02380  Biso   1.000  C
  H220     1.0000 0.23880  0.70240  0.04040  Biso   1.000  H
  C318     1.0000 0.13200  0.75640  0.02270  Biso   1.000  C
  H221     1.0000 0.13270  0.76590  0.03920  Biso   1.000  H
  C319     1.0000 0.14040  0.72990  0.02250  Biso   1.000  C
  H222     1.0000 0.14320  0.72150  0.03940  Biso   1.000  H
  C320     1.0000 0.45570  0.81480  0.95340  Biso   1.000  C
  C321     1.0000 0.08300  0.85560  0.97790  Biso   1.000  C
  H223     1.0000 0.08420  0.84690  0.96100  Biso   1.000  H
  C322     1.0000 0.07300  0.88210  0.97770  Biso   1.000  C
  H224     1.0000 0.07200  0.89100  0.96090  Biso   1.000  H
  O56      1.0000 0.04320  0.93180  0.97910  Biso   1.000  O
  O57      1.0000 0.47224  0.82316  0.97118  Biso   1.000  O
  O58      1.0000 0.57944  0.74767  0.02383  Biso   1.000  O
  O59      1.0000 0.55160  0.78932  0.05217  Biso   1.000  O
  C323     1.0000 0.85281  0.67014  0.02502  Biso   1.000  C
  C324     1.0000 0.87885  0.67548  0.03518  Biso   1.000  C
  H225     1.0000 0.88910  0.68990  0.02800  Biso   1.000  H
  C325     1.0000 0.88957  0.65935  0.05603  Biso   1.000  C
  H226     1.0000 0.90700  0.66290  0.06280  Biso   1.000  H
  C326     1.0000 0.87426  0.63788  0.06672  Biso   1.000  C
  C327     1.0000 0.84822  0.63253  0.05656  Biso   1.000  C
  H227     1.0000 0.83800  0.61820  0.06370  Biso   1.000  H
  C328     1.0000 0.83749  0.64866  0.03571  Biso   1.000  C
  H228     1.0000 0.82010  0.64510  0.02890  Biso   1.000  H
  C329     1.0000 0.90935  0.59040  0.12514  Biso   1.000  C
  C330     1.0000 0.93013  0.57251  0.11752  Biso   1.000  C
  H229     1.0000 0.93460  0.57030  0.09910  Biso   1.000  H
  C331     1.0000 0.94431  0.55789  0.13740  Biso   1.000  C
  H230     1.0000 0.95820  0.54590  0.13230  Biso   1.000  H
  C332     1.0000 0.93771  0.56115  0.16489  Biso   1.000  C
  C333     1.0000 0.91692  0.57904  0.17250  Biso   1.000  C
  H231     1.0000 0.91250  0.58120  0.19090  Biso   1.000  H
  C334     1.0000 0.90274  0.59366  0.15263  Biso   1.000  C
  H232     1.0000 0.88880  0.60560  0.15770  Biso   1.000  H
  C335     1.0000 0.89470  0.60680  0.10470  Biso   1.000  C
  C336     1.0000 0.63467  0.73390  0.02446  Biso   1.000  C
  H233     1.0000 0.62570  0.73620  0.04110  Biso   1.000  H
  C337     1.0000 0.88390  0.62000  0.08920  Biso   1.000  C
  C338     1.0000 0.66214  0.72640  0.02441  Biso   1.000  C
  H234     1.0000 0.67090  0.72230  0.04080  Biso   1.000  H
  C339     1.0000 0.79786  0.69380  0.97650  Biso   1.000  C
  H235     1.0000 0.80690  0.69170  0.95990  Biso   1.000  H
  C340     1.0000 0.77020  0.70050  0.97620  Biso   1.000  C
  H236     1.0000 0.76120  0.70240  0.95960  Biso   1.000  H
  C341     1.0000 0.86800  0.75640  0.97730  Biso   1.000  C
  H237     1.0000 0.86730  0.76590  0.96080  Biso   1.000  H
  C342     1.0000 0.85960  0.72990  0.97750  Biso   1.000  C
  H238     1.0000 0.85680  0.72150  0.96060  Biso   1.000  H
  C343     1.0000 0.54430  0.81480  0.04660  Biso   1.000  C
  C344     1.0000 0.91700  0.85560  0.02210  Biso   1.000  C
  H239     1.0000 0.91580  0.84690  0.03900  Biso   1.000  H
  C345     1.0000 0.92700  0.88210  0.02230  Biso   1.000  C
  H240     1.0000 0.92800  0.89100  0.03910  Biso   1.000  H
  O60      1.0000 0.95680  0.93180  0.02090  Biso   1.000  O
  O61      1.0000 0.52776  0.17684  0.97118  Biso   1.000  O
  O62      1.0000 0.42056  0.25233  0.02383  Biso   1.000  O
  O63      1.0000 0.44840  0.21068  0.05217  Biso   1.000  O
  C346     1.0000 0.14719  0.32986  0.02502  Biso   1.000  C
  C347     1.0000 0.12115  0.32452  0.03518  Biso   1.000  C
  H241     1.0000 0.11090  0.31010  0.02800  Biso   1.000  H
  C348     1.0000 0.11043  0.34065  0.05603  Biso   1.000  C
  H242     1.0000 0.09300  0.33710  0.06280  Biso   1.000  H
  C349     1.0000 0.12574  0.36212  0.06672  Biso   1.000  C
  C350     1.0000 0.15178  0.36747  0.05656  Biso   1.000  C
  H243     1.0000 0.16200  0.38180  0.06370  Biso   1.000  H
  C351     1.0000 0.16251  0.35134  0.03571  Biso   1.000  C
  H244     1.0000 0.17990  0.35490  0.02890  Biso   1.000  H
  C352     1.0000 0.09065  0.40960  0.12514  Biso   1.000  C
  C353     1.0000 0.06987  0.42749  0.11752  Biso   1.000  C
  H245     1.0000 0.06540  0.42970  0.09910  Biso   1.000  H
  C354     1.0000 0.05569  0.44211  0.13740  Biso   1.000  C
  H246     1.0000 0.04180  0.45410  0.13230  Biso   1.000  H
  C355     1.0000 0.06229  0.43885  0.16489  Biso   1.000  C
  C356     1.0000 0.08308  0.42096  0.17250  Biso   1.000  C
  H247     1.0000 0.08750  0.41880  0.19090  Biso   1.000  H
  C357     1.0000 0.09726  0.40634  0.15263  Biso   1.000  C
  H248     1.0000 0.11120  0.39440  0.15770  Biso   1.000  H
  C358     1.0000 0.10530  0.39320  0.10470  Biso   1.000  C
  C359     1.0000 0.36533  0.26610  0.02446  Biso   1.000  C
  H249     1.0000 0.37430  0.26380  0.04110  Biso   1.000  H
  C360     1.0000 0.11610  0.38000  0.08920  Biso   1.000  C
  C361     1.0000 0.33786  0.27360  0.02441  Biso   1.000  C
  H250     1.0000 0.32910  0.27770  0.04080  Biso   1.000  H
  C362     1.0000 0.20214  0.30620  0.97650  Biso   1.000  C
  H251     1.0000 0.19310  0.30830  0.95990  Biso   1.000  H
  C363     1.0000 0.22980  0.29950  0.97620  Biso   1.000  C
  H252     1.0000 0.23880  0.29760  0.95960  Biso   1.000  H
  C364     1.0000 0.13200  0.24360  0.97730  Biso   1.000  C
  H253     1.0000 0.13270  0.23410  0.96080  Biso   1.000  H
  C365     1.0000 0.14040  0.27010  0.97750  Biso   1.000  C
  H254     1.0000 0.14320  0.27850  0.96060  Biso   1.000  H
  C366     1.0000 0.45570  0.18520  0.04660  Biso   1.000  C
  C367     1.0000 0.08300  0.14440  0.02210  Biso   1.000  C
  H255     1.0000 0.08420  0.15310  0.03900  Biso   1.000  H
  C368     1.0000 0.07300  0.11790  0.02230  Biso   1.000  C
  H256     1.0000 0.07200  0.10900  0.03910  Biso   1.000  H
  O64      1.0000 0.04320  0.06820  0.02090  Biso   1.000  O
  O65      1.0000 0.17684  0.97118  0.52776  Biso   1.000  O
  O66      1.0000 0.25233  0.02383  0.42056  Biso   1.000  O
  O67      1.0000 0.21068  0.05217  0.44840  Biso   1.000  O
  C369     1.0000 0.32986  0.02502  0.14719  Biso   1.000  C
  C370     1.0000 0.32452  0.03518  0.12115  Biso   1.000  C
  H257     1.0000 0.31010  0.02800  0.11090  Biso   1.000  H
  C371     1.0000 0.34065  0.05603  0.11043  Biso   1.000  C
  H258     1.0000 0.33710  0.06280  0.09300  Biso   1.000  H
  C372     1.0000 0.36212  0.06672  0.12574  Biso   1.000  C
  C373     1.0000 0.36747  0.05656  0.15178  Biso   1.000  C
  H259     1.0000 0.38180  0.06370  0.16200  Biso   1.000  H
  C374     1.0000 0.35134  0.03571  0.16251  Biso   1.000  C
  H260     1.0000 0.35490  0.02890  0.17990  Biso   1.000  H
  C375     1.0000 0.40960  0.12514  0.09065  Biso   1.000  C
  C376     1.0000 0.42749  0.11752  0.06987  Biso   1.000  C
  H261     1.0000 0.42970  0.09910  0.06540  Biso   1.000  H
  C377     1.0000 0.44211  0.13740  0.05569  Biso   1.000  C
  H262     1.0000 0.45410  0.13230  0.04180  Biso   1.000  H
  C378     1.0000 0.43885  0.16489  0.06229  Biso   1.000  C
  C379     1.0000 0.42096  0.17250  0.08308  Biso   1.000  C
  H263     1.0000 0.41880  0.19090  0.08750  Biso   1.000  H
  C380     1.0000 0.40634  0.15263  0.09726  Biso   1.000  C
  H264     1.0000 0.39440  0.15770  0.11120  Biso   1.000  H
  C381     1.0000 0.39320  0.10470  0.10530  Biso   1.000  C
  C382     1.0000 0.26610  0.02446  0.36533  Biso   1.000  C
  H265     1.0000 0.26380  0.04110  0.37430  Biso   1.000  H
  C383     1.0000 0.38000  0.08920  0.11610  Biso   1.000  C
  C384     1.0000 0.27360  0.02441  0.33786  Biso   1.000  C
  H266     1.0000 0.27770  0.04080  0.32910  Biso   1.000  H
  C385     1.0000 0.30620  0.97650  0.20214  Biso   1.000  C
  H267     1.0000 0.30830  0.95990  0.19310  Biso   1.000  H
  C386     1.0000 0.29950  0.97620  0.22980  Biso   1.000  C
  H268     1.0000 0.29760  0.95960  0.23880  Biso   1.000  H
  C387     1.0000 0.24360  0.97730  0.13200  Biso   1.000  C
  H269     1.0000 0.23410  0.96080  0.13270  Biso   1.000  H
  C388     1.0000 0.27010  0.97750  0.14040  Biso   1.000  C
  H270     1.0000 0.27850  0.96060  0.14320  Biso   1.000  H
  C389     1.0000 0.18520  0.04660  0.45570  Biso   1.000  C
  C390     1.0000 0.14440  0.02210  0.08300  Biso   1.000  C
  H271     1.0000 0.15310  0.03900  0.08420  Biso   1.000  H
  C391     1.0000 0.11790  0.02230  0.07300  Biso   1.000  C
  H272     1.0000 0.10900  0.03910  0.07200  Biso   1.000  H
  O68      1.0000 0.06820  0.02090  0.04320  Biso   1.000  O
  O69      1.0000 0.82316  0.97118  0.47224  Biso   1.000  O
  O70      1.0000 0.74767  0.02383  0.57944  Biso   1.000  O
  O71      1.0000 0.78932  0.05217  0.55160  Biso   1.000  O
  C392     1.0000 0.67014  0.02502  0.85281  Biso   1.000  C
  C393     1.0000 0.67548  0.03518  0.87885  Biso   1.000  C
  H273     1.0000 0.68990  0.02800  0.88910  Biso   1.000  H
  C394     1.0000 0.65935  0.05603  0.88957  Biso   1.000  C
  H274     1.0000 0.66290  0.06280  0.90700  Biso   1.000  H
  C395     1.0000 0.63788  0.06672  0.87426  Biso   1.000  C
  C396     1.0000 0.63253  0.05656  0.84822  Biso   1.000  C
  H275     1.0000 0.61820  0.06370  0.83800  Biso   1.000  H
  C397     1.0000 0.64866  0.03571  0.83749  Biso   1.000  C
  H276     1.0000 0.64510  0.02890  0.82010  Biso   1.000  H
  C398     1.0000 0.59040  0.12514  0.90935  Biso   1.000  C
  C399     1.0000 0.57251  0.11752  0.93013  Biso   1.000  C
  H277     1.0000 0.57030  0.09910  0.93460  Biso   1.000  H
  C400     1.0000 0.55789  0.13740  0.94431  Biso   1.000  C
  H278     1.0000 0.54590  0.13230  0.95820  Biso   1.000  H
  C401     1.0000 0.56115  0.16489  0.93771  Biso   1.000  C
  C402     1.0000 0.57904  0.17250  0.91692  Biso   1.000  C
  H279     1.0000 0.58120  0.19090  0.91250  Biso   1.000  H
  C403     1.0000 0.59366  0.15263  0.90274  Biso   1.000  C
  H280     1.0000 0.60560  0.15770  0.88880  Biso   1.000  H
  C404     1.0000 0.60680  0.10470  0.89470  Biso   1.000  C
  C405     1.0000 0.73390  0.02446  0.63467  Biso   1.000  C
  H281     1.0000 0.73620  0.04110  0.62570  Biso   1.000  H
  C406     1.0000 0.62000  0.08920  0.88390  Biso   1.000  C
  C407     1.0000 0.72640  0.02441  0.66214  Biso   1.000  C
  H282     1.0000 0.72230  0.04080  0.67090  Biso   1.000  H
  C408     1.0000 0.69380  0.97650  0.79786  Biso   1.000  C
  H283     1.0000 0.69170  0.95990  0.80690  Biso   1.000  H
  C409     1.0000 0.70050  0.97620  0.77020  Biso   1.000  C
  H284     1.0000 0.70240  0.95960  0.76120  Biso   1.000  H
  C410     1.0000 0.75640  0.97730  0.86800  Biso   1.000  C
  H285     1.0000 0.76590  0.96080  0.86730  Biso   1.000  H
  C411     1.0000 0.72990  0.97750  0.85960  Biso   1.000  C
  H286     1.0000 0.72150  0.96060  0.85680  Biso   1.000  H
  C412     1.0000 0.81480  0.04660  0.54430  Biso   1.000  C
  C413     1.0000 0.85560  0.02210  0.91700  Biso   1.000  C
  H287     1.0000 0.84690  0.03900  0.91580  Biso   1.000  H
  C414     1.0000 0.88210  0.02230  0.92700  Biso   1.000  C
  H288     1.0000 0.89100  0.03910  0.92800  Biso   1.000  H
  O72      1.0000 0.93180  0.02090  0.95680  Biso   1.000  O
  O73      1.0000 0.82316  0.02882  0.52776  Biso   1.000  O
  O74      1.0000 0.74767  0.97617  0.42056  Biso   1.000  O
  O75      1.0000 0.78932  0.94783  0.44840  Biso   1.000  O
  C415     1.0000 0.67014  0.97498  0.14719  Biso   1.000  C
  C416     1.0000 0.67548  0.96482  0.12115  Biso   1.000  C
  H289     1.0000 0.68990  0.97200  0.11090  Biso   1.000  H
  C417     1.0000 0.65935  0.94397  0.11043  Biso   1.000  C
  H290     1.0000 0.66290  0.93720  0.09300  Biso   1.000  H
  C418     1.0000 0.63788  0.93328  0.12574  Biso   1.000  C
  C419     1.0000 0.63253  0.94344  0.15178  Biso   1.000  C
  H291     1.0000 0.61820  0.93630  0.16200  Biso   1.000  H
  C420     1.0000 0.64866  0.96429  0.16251  Biso   1.000  C
  H292     1.0000 0.64510  0.97110  0.17990  Biso   1.000  H
  C421     1.0000 0.59040  0.87486  0.09065  Biso   1.000  C
  C422     1.0000 0.57251  0.88248  0.06987  Biso   1.000  C
  H293     1.0000 0.57030  0.90090  0.06540  Biso   1.000  H
  C423     1.0000 0.55789  0.86260  0.05569  Biso   1.000  C
  H294     1.0000 0.54590  0.86770  0.04180  Biso   1.000  H
  C424     1.0000 0.56115  0.83511  0.06229  Biso   1.000  C
  C425     1.0000 0.57904  0.82750  0.08308  Biso   1.000  C
  H295     1.0000 0.58120  0.80910  0.08750  Biso   1.000  H
  C426     1.0000 0.59366  0.84737  0.09726  Biso   1.000  C
  H296     1.0000 0.60560  0.84230  0.11120  Biso   1.000  H
  C427     1.0000 0.60680  0.89530  0.10530  Biso   1.000  C
  C428     1.0000 0.73390  0.97554  0.36533  Biso   1.000  C
  H297     1.0000 0.73620  0.95890  0.37430  Biso   1.000  H
  C429     1.0000 0.62000  0.91080  0.11610  Biso   1.000  C
  C430     1.0000 0.72640  0.97559  0.33786  Biso   1.000  C
  H298     1.0000 0.72230  0.95920  0.32910  Biso   1.000  H
  C431     1.0000 0.69380  0.02350  0.20214  Biso   1.000  C
  H299     1.0000 0.69170  0.04010  0.19310  Biso   1.000  H
  C432     1.0000 0.70050  0.02380  0.22980  Biso   1.000  C
  H300     1.0000 0.70240  0.04040  0.23880  Biso   1.000  H
  C433     1.0000 0.75640  0.02270  0.13200  Biso   1.000  C
  H301     1.0000 0.76590  0.03920  0.13270  Biso   1.000  H
  C434     1.0000 0.72990  0.02250  0.14040  Biso   1.000  C
  H302     1.0000 0.72150  0.03940  0.14320  Biso   1.000  H
  C435     1.0000 0.81480  0.95340  0.45570  Biso   1.000  C
  C436     1.0000 0.85560  0.97790  0.08300  Biso   1.000  C
  H303     1.0000 0.84690  0.96100  0.08420  Biso   1.000  H
  C437     1.0000 0.88210  0.97770  0.07300  Biso   1.000  C
  H304     1.0000 0.89100  0.96090  0.07200  Biso   1.000  H
  O76      1.0000 0.93180  0.97910  0.04320  Biso   1.000  O
  O77      1.0000 0.17684  0.02882  0.47224  Biso   1.000  O
  O78      1.0000 0.25233  0.97617  0.57944  Biso   1.000  O
  O79      1.0000 0.21068  0.94783  0.55160  Biso   1.000  O
  C438     1.0000 0.32986  0.97498  0.85281  Biso   1.000  C
  C439     1.0000 0.32452  0.96482  0.87885  Biso   1.000  C
  H305     1.0000 0.31010  0.97200  0.88910  Biso   1.000  H
  C440     1.0000 0.34065  0.94397  0.88957  Biso   1.000  C
  H306     1.0000 0.33710  0.93720  0.90700  Biso   1.000  H
  C441     1.0000 0.36212  0.93328  0.87426  Biso   1.000  C
  C442     1.0000 0.36747  0.94344  0.84822  Biso   1.000  C
  H307     1.0000 0.38180  0.93630  0.83800  Biso   1.000  H
  C443     1.0000 0.35134  0.96429  0.83749  Biso   1.000  C
  H308     1.0000 0.35490  0.97110  0.82010  Biso   1.000  H
  C444     1.0000 0.40960  0.87486  0.90935  Biso   1.000  C
  C445     1.0000 0.42749  0.88248  0.93013  Biso   1.000  C
  H309     1.0000 0.42970  0.90090  0.93460  Biso   1.000  H
  C446     1.0000 0.44211  0.86260  0.94431  Biso   1.000  C
  H310     1.0000 0.45410  0.86770  0.95820  Biso   1.000  H
  C447     1.0000 0.43885  0.83511  0.93771  Biso   1.000  C
  C448     1.0000 0.42096  0.82750  0.91692  Biso   1.000  C
  H311     1.0000 0.41880  0.80910  0.91250  Biso   1.000  H
  C449     1.0000 0.40634  0.84737  0.90274  Biso   1.000  C
  H312     1.0000 0.39440  0.84230  0.88880  Biso   1.000  H
  C450     1.0000 0.39320  0.89530  0.89470  Biso   1.000  C
  C451     1.0000 0.26610  0.97554  0.63467  Biso   1.000  C
  H313     1.0000 0.26380  0.95890  0.62570  Biso   1.000  H
  C452     1.0000 0.38000  0.91080  0.88390  Biso   1.000  C
  C453     1.0000 0.27360  0.97559  0.66214  Biso   1.000  C
  H314     1.0000 0.27770  0.95920  0.67090  Biso   1.000  H
  C454     1.0000 0.30620  0.02350  0.79786  Biso   1.000  C
  H315     1.0000 0.30830  0.04010  0.80690  Biso   1.000  H
  C455     1.0000 0.29950  0.02380  0.77020  Biso   1.000  C
  H316     1.0000 0.29760  0.04040  0.76120  Biso   1.000  H
  C456     1.0000 0.24360  0.02270  0.86800  Biso   1.000  C
  H317     1.0000 0.23410  0.03920  0.86730  Biso   1.000  H
  C457     1.0000 0.27010  0.02250  0.85960  Biso   1.000  C
  H318     1.0000 0.27850  0.03940  0.85680  Biso   1.000  H
  C458     1.0000 0.18520  0.95340  0.54430  Biso   1.000  C
  C459     1.0000 0.14440  0.97790  0.91700  Biso   1.000  C
  H319     1.0000 0.15310  0.96100  0.91580  Biso   1.000  H
  C460     1.0000 0.11790  0.97770  0.92700  Biso   1.000  C
  H320     1.0000 0.10900  0.96090  0.92800  Biso   1.000  H
  O80      1.0000 0.06820  0.97910  0.95680  Biso   1.000  O
  O81      1.0000 0.97118  0.47224  0.82316  Biso   1.000  O
  O82      1.0000 0.02383  0.57944  0.74767  Biso   1.000  O
  O83      1.0000 0.05217  0.55160  0.78932  Biso   1.000  O
  C461     1.0000 0.02502  0.85281  0.67014  Biso   1.000  C
  C462     1.0000 0.03518  0.87885  0.67548  Biso   1.000  C
  H321     1.0000 0.02800  0.88910  0.68990  Biso   1.000  H
  C463     1.0000 0.05603  0.88957  0.65935  Biso   1.000  C
  H322     1.0000 0.06280  0.90700  0.66290  Biso   1.000  H
  C464     1.0000 0.06672  0.87426  0.63788  Biso   1.000  C
  C465     1.0000 0.05656  0.84822  0.63253  Biso   1.000  C
  H323     1.0000 0.06370  0.83800  0.61820  Biso   1.000  H
  C466     1.0000 0.03571  0.83749  0.64866  Biso   1.000  C
  H324     1.0000 0.02890  0.82010  0.64510  Biso   1.000  H
  C467     1.0000 0.12514  0.90935  0.59040  Biso   1.000  C
  C468     1.0000 0.11752  0.93013  0.57251  Biso   1.000  C
  H325     1.0000 0.09910  0.93460  0.57030  Biso   1.000  H
  C469     1.0000 0.13740  0.94431  0.55789  Biso   1.000  C
  H326     1.0000 0.13230  0.95820  0.54590  Biso   1.000  H
  C470     1.0000 0.16489  0.93771  0.56115  Biso   1.000  C
  C471     1.0000 0.17250  0.91692  0.57904  Biso   1.000  C
  H327     1.0000 0.19090  0.91250  0.58120  Biso   1.000  H
  C472     1.0000 0.15263  0.90274  0.59366  Biso   1.000  C
  H328     1.0000 0.15770  0.88880  0.60560  Biso   1.000  H
  C473     1.0000 0.10470  0.89470  0.60680  Biso   1.000  C
  C474     1.0000 0.02446  0.63467  0.73390  Biso   1.000  C
  H329     1.0000 0.04110  0.62570  0.73620  Biso   1.000  H
  C475     1.0000 0.08920  0.88390  0.62000  Biso   1.000  C
  C476     1.0000 0.02441  0.66214  0.72640  Biso   1.000  C
  H330     1.0000 0.04080  0.67090  0.72230  Biso   1.000  H
  C477     1.0000 0.97650  0.79786  0.69380  Biso   1.000  C
  H331     1.0000 0.95990  0.80690  0.69170  Biso   1.000  H
  C478     1.0000 0.97620  0.77020  0.70050  Biso   1.000  C
  H332     1.0000 0.95960  0.76120  0.70240  Biso   1.000  H
  C479     1.0000 0.97730  0.86800  0.75640  Biso   1.000  C
  H333     1.0000 0.96080  0.86730  0.76590  Biso   1.000  H
  C480     1.0000 0.97750  0.85960  0.72990  Biso   1.000  C
  H334     1.0000 0.96060  0.85680  0.72150  Biso   1.000  H
  C481     1.0000 0.04660  0.54430  0.81480  Biso   1.000  C
  C482     1.0000 0.02210  0.91700  0.85560  Biso   1.000  C
  H335     1.0000 0.03900  0.91580  0.84690  Biso   1.000  H
  C483     1.0000 0.02230  0.92700  0.88210  Biso   1.000  C
  H336     1.0000 0.03910  0.92800  0.89100  Biso   1.000  H
  O84      1.0000 0.02090  0.95680  0.93180  Biso   1.000  O
  O85      1.0000 0.97118  0.52776  0.17684  Biso   1.000  O
  O86      1.0000 0.02383  0.42056  0.25233  Biso   1.000  O
  O87      1.0000 0.05217  0.44840  0.21068  Biso   1.000  O
  C484     1.0000 0.02502  0.14719  0.32986  Biso   1.000  C
  C485     1.0000 0.03518  0.12115  0.32452  Biso   1.000  C
  H337     1.0000 0.02800  0.11090  0.31010  Biso   1.000  H
  C486     1.0000 0.05603  0.11043  0.34065  Biso   1.000  C
  H338     1.0000 0.06280  0.09300  0.33710  Biso   1.000  H
  C487     1.0000 0.06672  0.12574  0.36212  Biso   1.000  C
  C488     1.0000 0.05656  0.15178  0.36747  Biso   1.000  C
  H339     1.0000 0.06370  0.16200  0.38180  Biso   1.000  H
  C489     1.0000 0.03571  0.16251  0.35134  Biso   1.000  C
  H340     1.0000 0.02890  0.17990  0.35490  Biso   1.000  H
  C490     1.0000 0.12514  0.09065  0.40960  Biso   1.000  C
  C491     1.0000 0.11752  0.06987  0.42749  Biso   1.000  C
  H341     1.0000 0.09910  0.06540  0.42970  Biso   1.000  H
  C492     1.0000 0.13740  0.05569  0.44211  Biso   1.000  C
  H342     1.0000 0.13230  0.04180  0.45410  Biso   1.000  H
  C493     1.0000 0.16489  0.06229  0.43885  Biso   1.000  C
  C494     1.0000 0.17250  0.08308  0.42096  Biso   1.000  C
  H343     1.0000 0.19090  0.08750  0.41880  Biso   1.000  H
  C495     1.0000 0.15263  0.09726  0.40634  Biso   1.000  C
  H344     1.0000 0.15770  0.11120  0.39440  Biso   1.000  H
  C496     1.0000 0.10470  0.10530  0.39320  Biso   1.000  C
  C497     1.0000 0.02446  0.36533  0.26610  Biso   1.000  C
  H345     1.0000 0.04110  0.37430  0.26380  Biso   1.000  H
  C498     1.0000 0.08920  0.11610  0.38000  Biso   1.000  C
  C499     1.0000 0.02441  0.33786  0.27360  Biso   1.000  C
  H346     1.0000 0.04080  0.32910  0.27770  Biso   1.000  H
  C500     1.0000 0.97650  0.20214  0.30620  Biso   1.000  C
  H347     1.0000 0.95990  0.19310  0.30830  Biso   1.000  H
  C501     1.0000 0.97620  0.22980  0.29950  Biso   1.000  C
  H348     1.0000 0.95960  0.23880  0.29760  Biso   1.000  H
  C502     1.0000 0.97730  0.13200  0.24360  Biso   1.000  C
  H349     1.0000 0.96080  0.13270  0.23410  Biso   1.000  H
  C503     1.0000 0.97750  0.14040  0.27010  Biso   1.000  C
  H350     1.0000 0.96060  0.14320  0.27850  Biso   1.000  H
  C504     1.0000 0.04660  0.45570  0.18520  Biso   1.000  C
  C505     1.0000 0.02210  0.08300  0.14440  Biso   1.000  C
  H351     1.0000 0.03900  0.08420  0.15310  Biso   1.000  H
  C506     1.0000 0.02230  0.07300  0.11790  Biso   1.000  C
  H352     1.0000 0.03910  0.07200  0.10900  Biso   1.000  H
  O88      1.0000 0.02090  0.04320  0.06820  Biso   1.000  O
  O89      1.0000 0.02882  0.47224  0.17684  Biso   1.000  O
  O90      1.0000 0.97617  0.57944  0.25233  Biso   1.000  O
  O91      1.0000 0.94783  0.55160  0.21068  Biso   1.000  O
  C507     1.0000 0.97498  0.85281  0.32986  Biso   1.000  C
  C508     1.0000 0.96482  0.87885  0.32452  Biso   1.000  C
  H353     1.0000 0.97200  0.88910  0.31010  Biso   1.000  H
  C509     1.0000 0.94397  0.88957  0.34065  Biso   1.000  C
  H354     1.0000 0.93720  0.90700  0.33710  Biso   1.000  H
  C510     1.0000 0.93328  0.87426  0.36212  Biso   1.000  C
  C511     1.0000 0.94344  0.84822  0.36747  Biso   1.000  C
  H355     1.0000 0.93630  0.83800  0.38180  Biso   1.000  H
  C512     1.0000 0.96429  0.83749  0.35134  Biso   1.000  C
  H356     1.0000 0.97110  0.82010  0.35490  Biso   1.000  H
  C513     1.0000 0.87486  0.90935  0.40960  Biso   1.000  C
  C514     1.0000 0.88248  0.93013  0.42749  Biso   1.000  C
  H357     1.0000 0.90090  0.93460  0.42970  Biso   1.000  H
  C515     1.0000 0.86260  0.94431  0.44211  Biso   1.000  C
  H358     1.0000 0.86770  0.95820  0.45410  Biso   1.000  H
  C516     1.0000 0.83511  0.93771  0.43885  Biso   1.000  C
  C517     1.0000 0.82750  0.91692  0.42096  Biso   1.000  C
  H359     1.0000 0.80910  0.91250  0.41880  Biso   1.000  H
  C518     1.0000 0.84737  0.90274  0.40634  Biso   1.000  C
  H360     1.0000 0.84230  0.88880  0.39440  Biso   1.000  H
  C519     1.0000 0.89530  0.89470  0.39320  Biso   1.000  C
  C520     1.0000 0.97554  0.63467  0.26610  Biso   1.000  C
  H361     1.0000 0.95890  0.62570  0.26380  Biso   1.000  H
  C521     1.0000 0.91080  0.88390  0.38000  Biso   1.000  C
  C522     1.0000 0.97559  0.66214  0.27360  Biso   1.000  C
  H362     1.0000 0.95920  0.67090  0.27770  Biso   1.000  H
  C523     1.0000 0.02350  0.79786  0.30620  Biso   1.000  C
  H363     1.0000 0.04010  0.80690  0.30830  Biso   1.000  H
  C524     1.0000 0.02380  0.77020  0.29950  Biso   1.000  C
  H364     1.0000 0.04040  0.76120  0.29760  Biso   1.000  H
  C525     1.0000 0.02270  0.86800  0.24360  Biso   1.000  C
  H365     1.0000 0.03920  0.86730  0.23410  Biso   1.000  H
  C526     1.0000 0.02250  0.85960  0.27010  Biso   1.000  C
  H366     1.0000 0.03940  0.85680  0.27850  Biso   1.000  H
  C527     1.0000 0.95340  0.54430  0.18520  Biso   1.000  C
  C528     1.0000 0.97790  0.91700  0.14440  Biso   1.000  C
  H367     1.0000 0.96100  0.91580  0.15310  Biso   1.000  H
  C529     1.0000 0.97770  0.92700  0.11790  Biso   1.000  C
  H368     1.0000 0.96090  0.92800  0.10900  Biso   1.000  H
  O92      1.0000 0.97910  0.95680  0.06820  Biso   1.000  O
  O93      1.0000 0.02882  0.52776  0.82316  Biso   1.000  O
  O94      1.0000 0.97617  0.42056  0.74767  Biso   1.000  O
  O95      1.0000 0.94783  0.44840  0.78932  Biso   1.000  O
  C530     1.0000 0.97498  0.14719  0.67014  Biso   1.000  C
  C531     1.0000 0.96482  0.12115  0.67548  Biso   1.000  C
  H369     1.0000 0.97200  0.11090  0.68990  Biso   1.000  H
  C532     1.0000 0.94397  0.11043  0.65935  Biso   1.000  C
  H370     1.0000 0.93720  0.09300  0.66290  Biso   1.000  H
  C533     1.0000 0.93328  0.12574  0.63788  Biso   1.000  C
  C534     1.0000 0.94344  0.15178  0.63253  Biso   1.000  C
  H371     1.0000 0.93630  0.16200  0.61820  Biso   1.000  H
  C535     1.0000 0.96429  0.16251  0.64866  Biso   1.000  C
  H372     1.0000 0.97110  0.17990  0.64510  Biso   1.000  H
  C536     1.0000 0.87486  0.09065  0.59040  Biso   1.000  C
  C537     1.0000 0.88248  0.06987  0.57251  Biso   1.000  C
  H373     1.0000 0.90090  0.06540  0.57030  Biso   1.000  H
  C538     1.0000 0.86260  0.05569  0.55789  Biso   1.000  C
  H374     1.0000 0.86770  0.04180  0.54590  Biso   1.000  H
  C539     1.0000 0.83511  0.06229  0.56115  Biso   1.000  C
  C540     1.0000 0.82750  0.08308  0.57904  Biso   1.000  C
  H375     1.0000 0.80910  0.08750  0.58120  Biso   1.000  H
  C541     1.0000 0.84737  0.09726  0.59366  Biso   1.000  C
  H376     1.0000 0.84230  0.11120  0.60560  Biso   1.000  H
  C542     1.0000 0.89530  0.10530  0.60680  Biso   1.000  C
  C543     1.0000 0.97554  0.36533  0.73390  Biso   1.000  C
  H377     1.0000 0.95890  0.37430  0.73620  Biso   1.000  H
  C544     1.0000 0.91080  0.11610  0.62000  Biso   1.000  C
  C545     1.0000 0.97559  0.33786  0.72640  Biso   1.000  C
  H378     1.0000 0.95920  0.32910  0.72230  Biso   1.000  H
  C546     1.0000 0.02350  0.20214  0.69380  Biso   1.000  C
  H379     1.0000 0.04010  0.19310  0.69170  Biso   1.000  H
  C547     1.0000 0.02380  0.22980  0.70050  Biso   1.000  C
  H380     1.0000 0.04040  0.23880  0.70240  Biso   1.000  H
  C548     1.0000 0.02270  0.13200  0.75640  Biso   1.000  C
  H381     1.0000 0.03920  0.13270  0.76590  Biso   1.000  H
  C549     1.0000 0.02250  0.14040  0.72990  Biso   1.000  C
  H382     1.0000 0.03940  0.14320  0.72150  Biso   1.000  H
  C550     1.0000 0.95340  0.45570  0.81480  Biso   1.000  C
  C551     1.0000 0.97790  0.08300  0.85560  Biso   1.000  C
  H383     1.0000 0.96100  0.08420  0.84690  Biso   1.000  H
  C552     1.0000 0.97770  0.07300  0.88210  Biso   1.000  C
  H384     1.0000 0.96090  0.07200  0.89100  Biso   1.000  H
  O96      1.0000 0.97910  0.04320  0.93180  Biso   1.000  O
  O97      1.0000 0.32316  0.02776  0.52882  Biso   1.000  O
  O98      1.0000 0.24767  0.92056  0.47617  Biso   1.000  O
  O99      1.0000 0.28932  0.94840  0.44783  Biso   1.000  O
  C553     1.0000 0.17014  0.64719  0.47498  Biso   1.000  C
  C554     1.0000 0.17548  0.62115  0.46482  Biso   1.000  C
  H385     1.0000 0.18990  0.61090  0.47200  Biso   1.000  H
  C555     1.0000 0.15935  0.61043  0.44397  Biso   1.000  C
  H386     1.0000 0.16290  0.59300  0.43720  Biso   1.000  H
  C556     1.0000 0.13788  0.62574  0.43328  Biso   1.000  C
  C557     1.0000 0.13253  0.65178  0.44344  Biso   1.000  C
  H387     1.0000 0.11820  0.66200  0.43630  Biso   1.000  H
  C558     1.0000 0.14866  0.66251  0.46429  Biso   1.000  C
  H388     1.0000 0.14510  0.67990  0.47110  Biso   1.000  H
  C559     1.0000 0.09040  0.59065  0.37486  Biso   1.000  C
  C560     1.0000 0.07251  0.56987  0.38248  Biso   1.000  C
  H389     1.0000 0.07030  0.56540  0.40090  Biso   1.000  H
  C561     1.0000 0.05789  0.55569  0.36260  Biso   1.000  C
  H390     1.0000 0.04590  0.54180  0.36770  Biso   1.000  H
  C562     1.0000 0.06115  0.56229  0.33511  Biso   1.000  C
  C563     1.0000 0.07904  0.58308  0.32750  Biso   1.000  C
  H391     1.0000 0.08120  0.58750  0.30910  Biso   1.000  H
  C564     1.0000 0.09366  0.59726  0.34737  Biso   1.000  C
  H392     1.0000 0.10560  0.61120  0.34230  Biso   1.000  H
  C565     1.0000 0.10680  0.60530  0.39530  Biso   1.000  C
  C566     1.0000 0.23390  0.86533  0.47554  Biso   1.000  C
  H393     1.0000 0.23620  0.87430  0.45890  Biso   1.000  H
  C567     1.0000 0.12000  0.61610  0.41080  Biso   1.000  C
  C568     1.0000 0.22640  0.83786  0.47559  Biso   1.000  C
  H394     1.0000 0.22230  0.82910  0.45920  Biso   1.000  H
  C569     1.0000 0.19380  0.70214  0.52350  Biso   1.000  C
  H395     1.0000 0.19170  0.69310  0.54010  Biso   1.000  H
  C570     1.0000 0.20050  0.72980  0.52380  Biso   1.000  C
  H396     1.0000 0.20240  0.73880  0.54040  Biso   1.000  H
  C571     1.0000 0.25640  0.63200  0.52270  Biso   1.000  C
  H397     1.0000 0.26590  0.63270  0.53920  Biso   1.000  H
  C572     1.0000 0.22990  0.64040  0.52250  Biso   1.000  C
  H398     1.0000 0.22150  0.64320  0.53940  Biso   1.000  H
  C573     1.0000 0.31480  0.95570  0.45340  Biso   1.000  C
  C574     1.0000 0.35560  0.58300  0.47790  Biso   1.000  C
  H399     1.0000 0.34690  0.58420  0.46100  Biso   1.000  H
  C575     1.0000 0.38210  0.57300  0.47770  Biso   1.000  C
  H400     1.0000 0.39100  0.57200  0.46090  Biso   1.000  H
  O100     1.0000 0.43180  0.54320  0.47910  Biso   1.000  O
  O101     1.0000 0.67684  0.97224  0.52882  Biso   1.000  O
  O102     1.0000 0.75233  0.07944  0.47617  Biso   1.000  O
  O103     1.0000 0.71068  0.05160  0.44783  Biso   1.000  O
  C576     1.0000 0.82986  0.35281  0.47498  Biso   1.000  C
  C577     1.0000 0.82452  0.37885  0.46482  Biso   1.000  C
  H401     1.0000 0.81010  0.38910  0.47200  Biso   1.000  H
  C578     1.0000 0.84065  0.38957  0.44397  Biso   1.000  C
  H402     1.0000 0.83710  0.40700  0.43720  Biso   1.000  H
  C579     1.0000 0.86212  0.37426  0.43328  Biso   1.000  C
  C580     1.0000 0.86747  0.34822  0.44344  Biso   1.000  C
  H403     1.0000 0.88180  0.33800  0.43630  Biso   1.000  H
  C581     1.0000 0.85134  0.33749  0.46429  Biso   1.000  C
  H404     1.0000 0.85490  0.32010  0.47110  Biso   1.000  H
  C582     1.0000 0.90960  0.40935  0.37486  Biso   1.000  C
  C583     1.0000 0.92749  0.43013  0.38248  Biso   1.000  C
  H405     1.0000 0.92970  0.43460  0.40090  Biso   1.000  H
  C584     1.0000 0.94211  0.44431  0.36260  Biso   1.000  C
  H406     1.0000 0.95410  0.45820  0.36770  Biso   1.000  H
  C585     1.0000 0.93885  0.43771  0.33511  Biso   1.000  C
  C586     1.0000 0.92096  0.41692  0.32750  Biso   1.000  C
  H407     1.0000 0.91880  0.41250  0.30910  Biso   1.000  H
  C587     1.0000 0.90634  0.40274  0.34737  Biso   1.000  C
  H408     1.0000 0.89440  0.38880  0.34230  Biso   1.000  H
  C588     1.0000 0.89320  0.39470  0.39530  Biso   1.000  C
  C589     1.0000 0.76610  0.13467  0.47554  Biso   1.000  C
  H409     1.0000 0.76380  0.12570  0.45890  Biso   1.000  H
  C590     1.0000 0.88000  0.38390  0.41080  Biso   1.000  C
  C591     1.0000 0.77360  0.16214  0.47559  Biso   1.000  C
  H410     1.0000 0.77770  0.17090  0.45920  Biso   1.000  H
  C592     1.0000 0.80620  0.29786  0.52350  Biso   1.000  C
  H411     1.0000 0.80830  0.30690  0.54010  Biso   1.000  H
  C593     1.0000 0.79950  0.27020  0.52380  Biso   1.000  C
  H412     1.0000 0.79760  0.26120  0.54040  Biso   1.000  H
  C594     1.0000 0.74360  0.36800  0.52270  Biso   1.000  C
  H413     1.0000 0.73410  0.36730  0.53920  Biso   1.000  H
  C595     1.0000 0.77010  0.35960  0.52250  Biso   1.000  C
  H414     1.0000 0.77850  0.35680  0.53940  Biso   1.000  H
  C596     1.0000 0.68520  0.04430  0.45340  Biso   1.000  C
  C597     1.0000 0.64440  0.41700  0.47790  Biso   1.000  C
  H415     1.0000 0.65310  0.41580  0.46100  Biso   1.000  H
  C598     1.0000 0.61790  0.42700  0.47770  Biso   1.000  C
  H416     1.0000 0.60900  0.42800  0.46090  Biso   1.000  H
  O104     1.0000 0.56820  0.45680  0.47910  Biso   1.000  O
  O105     1.0000 0.67684  0.02776  0.47118  Biso   1.000  O
  O106     1.0000 0.75233  0.92056  0.52383  Biso   1.000  O
  O107     1.0000 0.71068  0.94840  0.55217  Biso   1.000  O
  C599     1.0000 0.82986  0.64719  0.52502  Biso   1.000  C
  C600     1.0000 0.82452  0.62115  0.53518  Biso   1.000  C
  H417     1.0000 0.81010  0.61090  0.52800  Biso   1.000  H
  C601     1.0000 0.84065  0.61043  0.55603  Biso   1.000  C
  H418     1.0000 0.83710  0.59300  0.56280  Biso   1.000  H
  C602     1.0000 0.86212  0.62574  0.56672  Biso   1.000  C
  C603     1.0000 0.86747  0.65178  0.55656  Biso   1.000  C
  H419     1.0000 0.88180  0.66200  0.56370  Biso   1.000  H
  C604     1.0000 0.85134  0.66251  0.53571  Biso   1.000  C
  H420     1.0000 0.85490  0.67990  0.52890  Biso   1.000  H
  C605     1.0000 0.90960  0.59065  0.62514  Biso   1.000  C
  C606     1.0000 0.92749  0.56987  0.61752  Biso   1.000  C
  H421     1.0000 0.92970  0.56540  0.59910  Biso   1.000  H
  C607     1.0000 0.94211  0.55569  0.63740  Biso   1.000  C
  H422     1.0000 0.95410  0.54180  0.63230  Biso   1.000  H
  C608     1.0000 0.93885  0.56229  0.66489  Biso   1.000  C
  C609     1.0000 0.92096  0.58308  0.67250  Biso   1.000  C
  H423     1.0000 0.91880  0.58750  0.69090  Biso   1.000  H
  C610     1.0000 0.90634  0.59726  0.65263  Biso   1.000  C
  H424     1.0000 0.89440  0.61120  0.65770  Biso   1.000  H
  C611     1.0000 0.89320  0.60530  0.60470  Biso   1.000  C
  C612     1.0000 0.76610  0.86533  0.52446  Biso   1.000  C
  H425     1.0000 0.76380  0.87430  0.54110  Biso   1.000  H
  C613     1.0000 0.88000  0.61610  0.58920  Biso   1.000  C
  C614     1.0000 0.77360  0.83786  0.52441  Biso   1.000  C
  H426     1.0000 0.77770  0.82910  0.54080  Biso   1.000  H
  C615     1.0000 0.80620  0.70214  0.47650  Biso   1.000  C
  H427     1.0000 0.80830  0.69310  0.45990  Biso   1.000  H
  C616     1.0000 0.79950  0.72980  0.47620  Biso   1.000  C
  H428     1.0000 0.79760  0.73880  0.45960  Biso   1.000  H
  C617     1.0000 0.74360  0.63200  0.47730  Biso   1.000  C
  H429     1.0000 0.73410  0.63270  0.46080  Biso   1.000  H
  C618     1.0000 0.77010  0.64040  0.47750  Biso   1.000  C
  H430     1.0000 0.77850  0.64320  0.46060  Biso   1.000  H
  C619     1.0000 0.68520  0.95570  0.54660  Biso   1.000  C
  C620     1.0000 0.64440  0.58300  0.52210  Biso   1.000  C
  H431     1.0000 0.65310  0.58420  0.53900  Biso   1.000  H
  C621     1.0000 0.61790  0.57300  0.52230  Biso   1.000  C
  H432     1.0000 0.60900  0.57200  0.53910  Biso   1.000  H
  O108     1.0000 0.56820  0.54320  0.52090  Biso   1.000  O
  O109     1.0000 0.32316  0.97224  0.47118  Biso   1.000  O
  O110     1.0000 0.24767  0.07944  0.52383  Biso   1.000  O
  O111     1.0000 0.28932  0.05160  0.55217  Biso   1.000  O
  C622     1.0000 0.17014  0.35281  0.52502  Biso   1.000  C
  C623     1.0000 0.17548  0.37885  0.53518  Biso   1.000  C
  H433     1.0000 0.18990  0.38910  0.52800  Biso   1.000  H
  C624     1.0000 0.15935  0.38957  0.55603  Biso   1.000  C
  H434     1.0000 0.16290  0.40700  0.56280  Biso   1.000  H
  C625     1.0000 0.13788  0.37426  0.56672  Biso   1.000  C
  C626     1.0000 0.13253  0.34822  0.55656  Biso   1.000  C
  H435     1.0000 0.11820  0.33800  0.56370  Biso   1.000  H
  C627     1.0000 0.14866  0.33749  0.53571  Biso   1.000  C
  H436     1.0000 0.14510  0.32010  0.52890  Biso   1.000  H
  C628     1.0000 0.09040  0.40935  0.62514  Biso   1.000  C
  C629     1.0000 0.07251  0.43013  0.61752  Biso   1.000  C
  H437     1.0000 0.07030  0.43460  0.59910  Biso   1.000  H
  C630     1.0000 0.05789  0.44431  0.63740  Biso   1.000  C
  H438     1.0000 0.04590  0.45820  0.63230  Biso   1.000  H
  C631     1.0000 0.06115  0.43771  0.66489  Biso   1.000  C
  C632     1.0000 0.07904  0.41692  0.67250  Biso   1.000  C
  H439     1.0000 0.08120  0.41250  0.69090  Biso   1.000  H
  C633     1.0000 0.09366  0.40274  0.65263  Biso   1.000  C
  H440     1.0000 0.10560  0.38880  0.65770  Biso   1.000  H
  C634     1.0000 0.10680  0.39470  0.60470  Biso   1.000  C
  C635     1.0000 0.23390  0.13467  0.52446  Biso   1.000  C
  H441     1.0000 0.23620  0.12570  0.54110  Biso   1.000  H
  C636     1.0000 0.12000  0.38390  0.58920  Biso   1.000  C
  C637     1.0000 0.22640  0.16214  0.52441  Biso   1.000  C
  H442     1.0000 0.22230  0.17090  0.54080  Biso   1.000  H
  C638     1.0000 0.19380  0.29786  0.47650  Biso   1.000  C
  H443     1.0000 0.19170  0.30690  0.45990  Biso   1.000  H
  C639     1.0000 0.20050  0.27020  0.47620  Biso   1.000  C
  H444     1.0000 0.20240  0.26120  0.45960  Biso   1.000  H
  C640     1.0000 0.25640  0.36800  0.47730  Biso   1.000  C
  H445     1.0000 0.26590  0.36730  0.46080  Biso   1.000  H
  C641     1.0000 0.22990  0.35960  0.47750  Biso   1.000  C
  H446     1.0000 0.22150  0.35680  0.46060  Biso   1.000  H
  C642     1.0000 0.31480  0.04430  0.54660  Biso   1.000  C
  C643     1.0000 0.35560  0.41700  0.52210  Biso   1.000  C
  H447     1.0000 0.34690  0.41580  0.53900  Biso   1.000  H
  C644     1.0000 0.38210  0.42700  0.52230  Biso   1.000  C
  H448     1.0000 0.39100  0.42800  0.53910  Biso   1.000  H
  O112     1.0000 0.43180  0.45680  0.52090  Biso   1.000  O
  O113     1.0000 0.52882  0.32316  0.02776  Biso   1.000  O
  O114     1.0000 0.47617  0.24767  0.92056  Biso   1.000  O
  O115     1.0000 0.44783  0.28932  0.94840  Biso   1.000  O
  C645     1.0000 0.47498  0.17014  0.64719  Biso   1.000  C
  C646     1.0000 0.46482  0.17548  0.62115  Biso   1.000  C
  H449     1.0000 0.47200  0.18990  0.61090  Biso   1.000  H
  C647     1.0000 0.44397  0.15935  0.61043  Biso   1.000  C
  H450     1.0000 0.43720  0.16290  0.59300  Biso   1.000  H
  C648     1.0000 0.43328  0.13788  0.62574  Biso   1.000  C
  C649     1.0000 0.44344  0.13253  0.65178  Biso   1.000  C
  H451     1.0000 0.43630  0.11820  0.66200  Biso   1.000  H
  C650     1.0000 0.46429  0.14866  0.66251  Biso   1.000  C
  H452     1.0000 0.47110  0.14510  0.67990  Biso   1.000  H
  C651     1.0000 0.37486  0.09040  0.59065  Biso   1.000  C
  C652     1.0000 0.38248  0.07251  0.56987  Biso   1.000  C
  H453     1.0000 0.40090  0.07030  0.56540  Biso   1.000  H
  C653     1.0000 0.36260  0.05789  0.55569  Biso   1.000  C
  H454     1.0000 0.36770  0.04590  0.54180  Biso   1.000  H
  C654     1.0000 0.33511  0.06115  0.56229  Biso   1.000  C
  C655     1.0000 0.32750  0.07904  0.58308  Biso   1.000  C
  H455     1.0000 0.30910  0.08120  0.58750  Biso   1.000  H
  C656     1.0000 0.34737  0.09366  0.59726  Biso   1.000  C
  H456     1.0000 0.34230  0.10560  0.61120  Biso   1.000  H
  C657     1.0000 0.39530  0.10680  0.60530  Biso   1.000  C
  C658     1.0000 0.47554  0.23390  0.86533  Biso   1.000  C
  H457     1.0000 0.45890  0.23620  0.87430  Biso   1.000  H
  C659     1.0000 0.41080  0.12000  0.61610  Biso   1.000  C
  C660     1.0000 0.47559  0.22640  0.83786  Biso   1.000  C
  H458     1.0000 0.45920  0.22230  0.82910  Biso   1.000  H
  C661     1.0000 0.52350  0.19380  0.70214  Biso   1.000  C
  H459     1.0000 0.54010  0.19170  0.69310  Biso   1.000  H
  C662     1.0000 0.52380  0.20050  0.72980  Biso   1.000  C
  H460     1.0000 0.54040  0.20240  0.73880  Biso   1.000  H
  C663     1.0000 0.52270  0.25640  0.63200  Biso   1.000  C
  H461     1.0000 0.53920  0.26590  0.63270  Biso   1.000  H
  C664     1.0000 0.52250  0.22990  0.64040  Biso   1.000  C
  H462     1.0000 0.53940  0.22150  0.64320  Biso   1.000  H
  C665     1.0000 0.45340  0.31480  0.95570  Biso   1.000  C
  C666     1.0000 0.47790  0.35560  0.58300  Biso   1.000  C
  H463     1.0000 0.46100  0.34690  0.58420  Biso   1.000  H
  C667     1.0000 0.47770  0.38210  0.57300  Biso   1.000  C
  H464     1.0000 0.46090  0.39100  0.57200  Biso   1.000  H
  O116     1.0000 0.47910  0.43180  0.54320  Biso   1.000  O
  O117     1.0000 0.52882  0.67684  0.97224  Biso   1.000  O
  O118     1.0000 0.47617  0.75233  0.07944  Biso   1.000  O
  O119     1.0000 0.44783  0.71068  0.05160  Biso   1.000  O
  C668     1.0000 0.47498  0.82986  0.35281  Biso   1.000  C
  C669     1.0000 0.46482  0.82452  0.37885  Biso   1.000  C
  H465     1.0000 0.47200  0.81010  0.38910  Biso   1.000  H
  C670     1.0000 0.44397  0.84065  0.38957  Biso   1.000  C
  H466     1.0000 0.43720  0.83710  0.40700  Biso   1.000  H
  C671     1.0000 0.43328  0.86212  0.37426  Biso   1.000  C
  C672     1.0000 0.44344  0.86747  0.34822  Biso   1.000  C
  H467     1.0000 0.43630  0.88180  0.33800  Biso   1.000  H
  C673     1.0000 0.46429  0.85134  0.33749  Biso   1.000  C
  H468     1.0000 0.47110  0.85490  0.32010  Biso   1.000  H
  C674     1.0000 0.37486  0.90960  0.40935  Biso   1.000  C
  C675     1.0000 0.38248  0.92749  0.43013  Biso   1.000  C
  H469     1.0000 0.40090  0.92970  0.43460  Biso   1.000  H
  C676     1.0000 0.36260  0.94211  0.44431  Biso   1.000  C
  H470     1.0000 0.36770  0.95410  0.45820  Biso   1.000  H
  C677     1.0000 0.33511  0.93885  0.43771  Biso   1.000  C
  C678     1.0000 0.32750  0.92096  0.41692  Biso   1.000  C
  H471     1.0000 0.30910  0.91880  0.41250  Biso   1.000  H
  C679     1.0000 0.34737  0.90634  0.40274  Biso   1.000  C
  H472     1.0000 0.34230  0.89440  0.38880  Biso   1.000  H
  C680     1.0000 0.39530  0.89320  0.39470  Biso   1.000  C
  C681     1.0000 0.47554  0.76610  0.13467  Biso   1.000  C
  H473     1.0000 0.45890  0.76380  0.12570  Biso   1.000  H
  C682     1.0000 0.41080  0.88000  0.38390  Biso   1.000  C
  C683     1.0000 0.47559  0.77360  0.16214  Biso   1.000  C
  H474     1.0000 0.45920  0.77770  0.17090  Biso   1.000  H
  C684     1.0000 0.52350  0.80620  0.29786  Biso   1.000  C
  H475     1.0000 0.54010  0.80830  0.30690  Biso   1.000  H
  C685     1.0000 0.52380  0.79950  0.27020  Biso   1.000  C
  H476     1.0000 0.54040  0.79760  0.26120  Biso   1.000  H
  C686     1.0000 0.52270  0.74360  0.36800  Biso   1.000  C
  H477     1.0000 0.53920  0.73410  0.36730  Biso   1.000  H
  C687     1.0000 0.52250  0.77010  0.35960  Biso   1.000  C
  H478     1.0000 0.53940  0.77850  0.35680  Biso   1.000  H
  C688     1.0000 0.45340  0.68520  0.04430  Biso   1.000  C
  C689     1.0000 0.47790  0.64440  0.41700  Biso   1.000  C
  H479     1.0000 0.46100  0.65310  0.41580  Biso   1.000  H
  C690     1.0000 0.47770  0.61790  0.42700  Biso   1.000  C
  H480     1.0000 0.46090  0.60900  0.42800  Biso   1.000  H
  O120     1.0000 0.47910  0.56820  0.45680  Biso   1.000  O
  O121     1.0000 0.47118  0.67684  0.02776  Biso   1.000  O
  O122     1.0000 0.52383  0.75233  0.92056  Biso   1.000  O
  O123     1.0000 0.55217  0.71068  0.94840  Biso   1.000  O
  C691     1.0000 0.52502  0.82986  0.64719  Biso   1.000  C
  C692     1.0000 0.53518  0.82452  0.62115  Biso   1.000  C
  H481     1.0000 0.52800  0.81010  0.61090  Biso   1.000  H
  C693     1.0000 0.55603  0.84065  0.61043  Biso   1.000  C
  H482     1.0000 0.56280  0.83710  0.59300  Biso   1.000  H
  C694     1.0000 0.56672  0.86212  0.62574  Biso   1.000  C
  C695     1.0000 0.55656  0.86747  0.65178  Biso   1.000  C
  H483     1.0000 0.56370  0.88180  0.66200  Biso   1.000  H
  C696     1.0000 0.53571  0.85134  0.66251  Biso   1.000  C
  H484     1.0000 0.52890  0.85490  0.67990  Biso   1.000  H
  C697     1.0000 0.62514  0.90960  0.59065  Biso   1.000  C
  C698     1.0000 0.61752  0.92749  0.56987  Biso   1.000  C
  H485     1.0000 0.59910  0.92970  0.56540  Biso   1.000  H
  C699     1.0000 0.63740  0.94211  0.55569  Biso   1.000  C
  H486     1.0000 0.63230  0.95410  0.54180  Biso   1.000  H
  C700     1.0000 0.66489  0.93885  0.56229  Biso   1.000  C
  C701     1.0000 0.67250  0.92096  0.58308  Biso   1.000  C
  H487     1.0000 0.69090  0.91880  0.58750  Biso   1.000  H
  C702     1.0000 0.65263  0.90634  0.59726  Biso   1.000  C
  H488     1.0000 0.65770  0.89440  0.61120  Biso   1.000  H
  C703     1.0000 0.60470  0.89320  0.60530  Biso   1.000  C
  C704     1.0000 0.52446  0.76610  0.86533  Biso   1.000  C
  H489     1.0000 0.54110  0.76380  0.87430  Biso   1.000  H
  C705     1.0000 0.58920  0.88000  0.61610  Biso   1.000  C
  C706     1.0000 0.52441  0.77360  0.83786  Biso   1.000  C
  H490     1.0000 0.54080  0.77770  0.82910  Biso   1.000  H
  C707     1.0000 0.47650  0.80620  0.70214  Biso   1.000  C
  H491     1.0000 0.45990  0.80830  0.69310  Biso   1.000  H
  C708     1.0000 0.47620  0.79950  0.72980  Biso   1.000  C
  H492     1.0000 0.45960  0.79760  0.73880  Biso   1.000  H
  C709     1.0000 0.47730  0.74360  0.63200  Biso   1.000  C
  H493     1.0000 0.46080  0.73410  0.63270  Biso   1.000  H
  C710     1.0000 0.47750  0.77010  0.64040  Biso   1.000  C
  H494     1.0000 0.46060  0.77850  0.64320  Biso   1.000  H
  C711     1.0000 0.54660  0.68520  0.95570  Biso   1.000  C
  C712     1.0000 0.52210  0.64440  0.58300  Biso   1.000  C
  H495     1.0000 0.53900  0.65310  0.58420  Biso   1.000  H
  C713     1.0000 0.52230  0.61790  0.57300  Biso   1.000  C
  H496     1.0000 0.53910  0.60900  0.57200  Biso   1.000  H
  O124     1.0000 0.52090  0.56820  0.54320  Biso   1.000  O
  O125     1.0000 0.47118  0.32316  0.97224  Biso   1.000  O
  O126     1.0000 0.52383  0.24767  0.07944  Biso   1.000  O
  O127     1.0000 0.55217  0.28932  0.05160  Biso   1.000  O
  C714     1.0000 0.52502  0.17014  0.35281  Biso   1.000  C
  C715     1.0000 0.53518  0.17548  0.37885  Biso   1.000  C
  H497     1.0000 0.52800  0.18990  0.38910  Biso   1.000  H
  C716     1.0000 0.55603  0.15935  0.38957  Biso   1.000  C
  H498     1.0000 0.56280  0.16290  0.40700  Biso   1.000  H
  C717     1.0000 0.56672  0.13788  0.37426  Biso   1.000  C
  C718     1.0000 0.55656  0.13253  0.34822  Biso   1.000  C
  H499     1.0000 0.56370  0.11820  0.33800  Biso   1.000  H
  C719     1.0000 0.53571  0.14866  0.33749  Biso   1.000  C
  H500     1.0000 0.52890  0.14510  0.32010  Biso   1.000  H
  C720     1.0000 0.62514  0.09040  0.40935  Biso   1.000  C
  C721     1.0000 0.61752  0.07251  0.43013  Biso   1.000  C
  H501     1.0000 0.59910  0.07030  0.43460  Biso   1.000  H
  C722     1.0000 0.63740  0.05789  0.44431  Biso   1.000  C
  H502     1.0000 0.63230  0.04590  0.45820  Biso   1.000  H
  C723     1.0000 0.66489  0.06115  0.43771  Biso   1.000  C
  C724     1.0000 0.67250  0.07904  0.41692  Biso   1.000  C
  H503     1.0000 0.69090  0.08120  0.41250  Biso   1.000  H
  C725     1.0000 0.65263  0.09366  0.40274  Biso   1.000  C
  H504     1.0000 0.65770  0.10560  0.38880  Biso   1.000  H
  C726     1.0000 0.60470  0.10680  0.39470  Biso   1.000  C
  C727     1.0000 0.52446  0.23390  0.13467  Biso   1.000  C
  H505     1.0000 0.54110  0.23620  0.12570  Biso   1.000  H
  C728     1.0000 0.58920  0.12000  0.38390  Biso   1.000  C
  C729     1.0000 0.52441  0.22640  0.16214  Biso   1.000  C
  H506     1.0000 0.54080  0.22230  0.17090  Biso   1.000  H
  C730     1.0000 0.47650  0.19380  0.29786  Biso   1.000  C
  H507     1.0000 0.45990  0.19170  0.30690  Biso   1.000  H
  C731     1.0000 0.47620  0.20050  0.27020  Biso   1.000  C
  H508     1.0000 0.45960  0.20240  0.26120  Biso   1.000  H
  C732     1.0000 0.47730  0.25640  0.36800  Biso   1.000  C
  H509     1.0000 0.46080  0.26590  0.36730  Biso   1.000  H
  C733     1.0000 0.47750  0.22990  0.35960  Biso   1.000  C
  H510     1.0000 0.46060  0.22150  0.35680  Biso   1.000  H
  C734     1.0000 0.54660  0.31480  0.04430  Biso   1.000  C
  C735     1.0000 0.52210  0.35560  0.41700  Biso   1.000  C
  H511     1.0000 0.53900  0.34690  0.41580  Biso   1.000  H
  C736     1.0000 0.52230  0.38210  0.42700  Biso   1.000  C
  H512     1.0000 0.53910  0.39100  0.42800  Biso   1.000  H
  O128     1.0000 0.52090  0.43180  0.45680  Biso   1.000  O
  O129     1.0000 0.02776  0.52882  0.32316  Biso   1.000  O
  O130     1.0000 0.92056  0.47617  0.24767  Biso   1.000  O
  O131     1.0000 0.94840  0.44783  0.28932  Biso   1.000  O
  C737     1.0000 0.64719  0.47498  0.17014  Biso   1.000  C
  C738     1.0000 0.62115  0.46482  0.17548  Biso   1.000  C
  H513     1.0000 0.61090  0.47200  0.18990  Biso   1.000  H
  C739     1.0000 0.61043  0.44397  0.15935  Biso   1.000  C
  H514     1.0000 0.59300  0.43720  0.16290  Biso   1.000  H
  C740     1.0000 0.62574  0.43328  0.13788  Biso   1.000  C
  C741     1.0000 0.65178  0.44344  0.13253  Biso   1.000  C
  H515     1.0000 0.66200  0.43630  0.11820  Biso   1.000  H
  C742     1.0000 0.66251  0.46429  0.14866  Biso   1.000  C
  H516     1.0000 0.67990  0.47110  0.14510  Biso   1.000  H
  C743     1.0000 0.59065  0.37486  0.09040  Biso   1.000  C
  C744     1.0000 0.56987  0.38248  0.07251  Biso   1.000  C
  H517     1.0000 0.56540  0.40090  0.07030  Biso   1.000  H
  C745     1.0000 0.55569  0.36260  0.05789  Biso   1.000  C
  H518     1.0000 0.54180  0.36770  0.04590  Biso   1.000  H
  C746     1.0000 0.56229  0.33511  0.06115  Biso   1.000  C
  C747     1.0000 0.58308  0.32750  0.07904  Biso   1.000  C
  H519     1.0000 0.58750  0.30910  0.08120  Biso   1.000  H
  C748     1.0000 0.59726  0.34737  0.09366  Biso   1.000  C
  H520     1.0000 0.61120  0.34230  0.10560  Biso   1.000  H
  C749     1.0000 0.60530  0.39530  0.10680  Biso   1.000  C
  C750     1.0000 0.86533  0.47554  0.23390  Biso   1.000  C
  H521     1.0000 0.87430  0.45890  0.23620  Biso   1.000  H
  C751     1.0000 0.61610  0.41080  0.12000  Biso   1.000  C
  C752     1.0000 0.83786  0.47559  0.22640  Biso   1.000  C
  H522     1.0000 0.82910  0.45920  0.22230  Biso   1.000  H
  C753     1.0000 0.70214  0.52350  0.19380  Biso   1.000  C
  H523     1.0000 0.69310  0.54010  0.19170  Biso   1.000  H
  C754     1.0000 0.72980  0.52380  0.20050  Biso   1.000  C
  H524     1.0000 0.73880  0.54040  0.20240  Biso   1.000  H
  C755     1.0000 0.63200  0.52270  0.25640  Biso   1.000  C
  H525     1.0000 0.63270  0.53920  0.26590  Biso   1.000  H
  C756     1.0000 0.64040  0.52250  0.22990  Biso   1.000  C
  H526     1.0000 0.64320  0.53940  0.22150  Biso   1.000  H
  C757     1.0000 0.95570  0.45340  0.31480  Biso   1.000  C
  C758     1.0000 0.58300  0.47790  0.35560  Biso   1.000  C
  H527     1.0000 0.58420  0.46100  0.34690  Biso   1.000  H
  C759     1.0000 0.57300  0.47770  0.38210  Biso   1.000  C
  H528     1.0000 0.57200  0.46090  0.39100  Biso   1.000  H
  O132     1.0000 0.54320  0.47910  0.43180  Biso   1.000  O
  O133     1.0000 0.97224  0.52882  0.67684  Biso   1.000  O
  O134     1.0000 0.07944  0.47617  0.75233  Biso   1.000  O
  O135     1.0000 0.05160  0.44783  0.71068  Biso   1.000  O
  C760     1.0000 0.35281  0.47498  0.82986  Biso   1.000  C
  C761     1.0000 0.37885  0.46482  0.82452  Biso   1.000  C
  H529     1.0000 0.38910  0.47200  0.81010  Biso   1.000  H
  C762     1.0000 0.38957  0.44397  0.84065  Biso   1.000  C
  H530     1.0000 0.40700  0.43720  0.83710  Biso   1.000  H
  C763     1.0000 0.37426  0.43328  0.86212  Biso   1.000  C
  C764     1.0000 0.34822  0.44344  0.86747  Biso   1.000  C
  H531     1.0000 0.33800  0.43630  0.88180  Biso   1.000  H
  C765     1.0000 0.33749  0.46429  0.85134  Biso   1.000  C
  H532     1.0000 0.32010  0.47110  0.85490  Biso   1.000  H
  C766     1.0000 0.40935  0.37486  0.90960  Biso   1.000  C
  C767     1.0000 0.43013  0.38248  0.92749  Biso   1.000  C
  H533     1.0000 0.43460  0.40090  0.92970  Biso   1.000  H
  C768     1.0000 0.44431  0.36260  0.94211  Biso   1.000  C
  H534     1.0000 0.45820  0.36770  0.95410  Biso   1.000  H
  C769     1.0000 0.43771  0.33511  0.93885  Biso   1.000  C
  C770     1.0000 0.41692  0.32750  0.92096  Biso   1.000  C
  H535     1.0000 0.41250  0.30910  0.91880  Biso   1.000  H
  C771     1.0000 0.40274  0.34737  0.90634  Biso   1.000  C
  H536     1.0000 0.38880  0.34230  0.89440  Biso   1.000  H
  C772     1.0000 0.39470  0.39530  0.89320  Biso   1.000  C
  C773     1.0000 0.13467  0.47554  0.76610  Biso   1.000  C
  H537     1.0000 0.12570  0.45890  0.76380  Biso   1.000  H
  C774     1.0000 0.38390  0.41080  0.88000  Biso   1.000  C
  C775     1.0000 0.16214  0.47559  0.77360  Biso   1.000  C
  H538     1.0000 0.17090  0.45920  0.77770  Biso   1.000  H
  C776     1.0000 0.29786  0.52350  0.80620  Biso   1.000  C
  H539     1.0000 0.30690  0.54010  0.80830  Biso   1.000  H
  C777     1.0000 0.27020  0.52380  0.79950  Biso   1.000  C
  H540     1.0000 0.26120  0.54040  0.79760  Biso   1.000  H
  C778     1.0000 0.36800  0.52270  0.74360  Biso   1.000  C
  H541     1.0000 0.36730  0.53920  0.73410  Biso   1.000  H
  C779     1.0000 0.35960  0.52250  0.77010  Biso   1.000  C
  H542     1.0000 0.35680  0.53940  0.77850  Biso   1.000  H
  C780     1.0000 0.04430  0.45340  0.68520  Biso   1.000  C
  C781     1.0000 0.41700  0.47790  0.64440  Biso   1.000  C
  H543     1.0000 0.41580  0.46100  0.65310  Biso   1.000  H
  C782     1.0000 0.42700  0.47770  0.61790  Biso   1.000  C
  H544     1.0000 0.42800  0.46090  0.60900  Biso   1.000  H
  O136     1.0000 0.45680  0.47910  0.56820  Biso   1.000  O
  O137     1.0000 0.02776  0.47118  0.67684  Biso   1.000  O
  O138     1.0000 0.92056  0.52383  0.75233  Biso   1.000  O
  O139     1.0000 0.94840  0.55217  0.71068  Biso   1.000  O
  C783     1.0000 0.64719  0.52502  0.82986  Biso   1.000  C
  C784     1.0000 0.62115  0.53518  0.82452  Biso   1.000  C
  H545     1.0000 0.61090  0.52800  0.81010  Biso   1.000  H
  C785     1.0000 0.61043  0.55603  0.84065  Biso   1.000  C
  H546     1.0000 0.59300  0.56280  0.83710  Biso   1.000  H
  C786     1.0000 0.62574  0.56672  0.86212  Biso   1.000  C
  C787     1.0000 0.65178  0.55656  0.86747  Biso   1.000  C
  H547     1.0000 0.66200  0.56370  0.88180  Biso   1.000  H
  C788     1.0000 0.66251  0.53571  0.85134  Biso   1.000  C
  H548     1.0000 0.67990  0.52890  0.85490  Biso   1.000  H
  C789     1.0000 0.59065  0.62514  0.90960  Biso   1.000  C
  C790     1.0000 0.56987  0.61752  0.92749  Biso   1.000  C
  H549     1.0000 0.56540  0.59910  0.92970  Biso   1.000  H
  C791     1.0000 0.55569  0.63740  0.94211  Biso   1.000  C
  H550     1.0000 0.54180  0.63230  0.95410  Biso   1.000  H
  C792     1.0000 0.56229  0.66489  0.93885  Biso   1.000  C
  C793     1.0000 0.58308  0.67250  0.92096  Biso   1.000  C
  H551     1.0000 0.58750  0.69090  0.91880  Biso   1.000  H
  C794     1.0000 0.59726  0.65263  0.90634  Biso   1.000  C
  H552     1.0000 0.61120  0.65770  0.89440  Biso   1.000  H
  C795     1.0000 0.60530  0.60470  0.89320  Biso   1.000  C
  C796     1.0000 0.86533  0.52446  0.76610  Biso   1.000  C
  H553     1.0000 0.87430  0.54110  0.76380  Biso   1.000  H
  C797     1.0000 0.61610  0.58920  0.88000  Biso   1.000  C
  C798     1.0000 0.83786  0.52441  0.77360  Biso   1.000  C
  H554     1.0000 0.82910  0.54080  0.77770  Biso   1.000  H
  C799     1.0000 0.70214  0.47650  0.80620  Biso   1.000  C
  H555     1.0000 0.69310  0.45990  0.80830  Biso   1.000  H
  C800     1.0000 0.72980  0.47620  0.79950  Biso   1.000  C
  H556     1.0000 0.73880  0.45960  0.79760  Biso   1.000  H
  C801     1.0000 0.63200  0.47730  0.74360  Biso   1.000  C
  H557     1.0000 0.63270  0.46080  0.73410  Biso   1.000  H
  C802     1.0000 0.64040  0.47750  0.77010  Biso   1.000  C
  H558     1.0000 0.64320  0.46060  0.77850  Biso   1.000  H
  C803     1.0000 0.95570  0.54660  0.68520  Biso   1.000  C
  C804     1.0000 0.58300  0.52210  0.64440  Biso   1.000  C
  H559     1.0000 0.58420  0.53900  0.65310  Biso   1.000  H
  C805     1.0000 0.57300  0.52230  0.61790  Biso   1.000  C
  H560     1.0000 0.57200  0.53910  0.60900  Biso   1.000  H
  O140     1.0000 0.54320  0.52090  0.56820  Biso   1.000  O
  O141     1.0000 0.97224  0.47118  0.32316  Biso   1.000  O
  O142     1.0000 0.07944  0.52383  0.24767  Biso   1.000  O
  O143     1.0000 0.05160  0.55217  0.28932  Biso   1.000  O
  C806     1.0000 0.35281  0.52502  0.17014  Biso   1.000  C
  C807     1.0000 0.37885  0.53518  0.17548  Biso   1.000  C
  H561     1.0000 0.38910  0.52800  0.18990  Biso   1.000  H
  C808     1.0000 0.38957  0.55603  0.15935  Biso   1.000  C
  H562     1.0000 0.40700  0.56280  0.16290  Biso   1.000  H
  C809     1.0000 0.37426  0.56672  0.13788  Biso   1.000  C
  C810     1.0000 0.34822  0.55656  0.13253  Biso   1.000  C
  H563     1.0000 0.33800  0.56370  0.11820  Biso   1.000  H
  C811     1.0000 0.33749  0.53571  0.14866  Biso   1.000  C
  H564     1.0000 0.32010  0.52890  0.14510  Biso   1.000  H
  C812     1.0000 0.40935  0.62514  0.09040  Biso   1.000  C
  C813     1.0000 0.43013  0.61752  0.07251  Biso   1.000  C
  H565     1.0000 0.43460  0.59910  0.07030  Biso   1.000  H
  C814     1.0000 0.44431  0.63740  0.05789  Biso   1.000  C
  H566     1.0000 0.45820  0.63230  0.04590  Biso   1.000  H
  C815     1.0000 0.43771  0.66489  0.06115  Biso   1.000  C
  C816     1.0000 0.41692  0.67250  0.07904  Biso   1.000  C
  H567     1.0000 0.41250  0.69090  0.08120  Biso   1.000  H
  C817     1.0000 0.40274  0.65263  0.09366  Biso   1.000  C
  H568     1.0000 0.38880  0.65770  0.10560  Biso   1.000  H
  C818     1.0000 0.39470  0.60470  0.10680  Biso   1.000  C
  C819     1.0000 0.13467  0.52446  0.23390  Biso   1.000  C
  H569     1.0000 0.12570  0.54110  0.23620  Biso   1.000  H
  C820     1.0000 0.38390  0.58920  0.12000  Biso   1.000  C
  C821     1.0000 0.16214  0.52441  0.22640  Biso   1.000  C
  H570     1.0000 0.17090  0.54080  0.22230  Biso   1.000  H
  C822     1.0000 0.29786  0.47650  0.19380  Biso   1.000  C
  H571     1.0000 0.30690  0.45990  0.19170  Biso   1.000  H
  C823     1.0000 0.27020  0.47620  0.20050  Biso   1.000  C
  H572     1.0000 0.26120  0.45960  0.20240  Biso   1.000  H
  C824     1.0000 0.36800  0.47730  0.25640  Biso   1.000  C
  H573     1.0000 0.36730  0.46080  0.26590  Biso   1.000  H
  C825     1.0000 0.35960  0.47750  0.22990  Biso   1.000  C
  H574     1.0000 0.35680  0.46060  0.22150  Biso   1.000  H
  C826     1.0000 0.04430  0.54660  0.31480  Biso   1.000  C
  C827     1.0000 0.41700  0.52210  0.35560  Biso   1.000  C
  H575     1.0000 0.41580  0.53900  0.34690  Biso   1.000  H
  C828     1.0000 0.42700  0.52230  0.38210  Biso   1.000  C
  H576     1.0000 0.42800  0.53910  0.39100  Biso   1.000  H
  O144     1.0000 0.45680  0.52090  0.43180  Biso   1.000  O
  O145     1.0000 0.52776  0.82316  0.97118  Biso   1.000  O
  O146     1.0000 0.42056  0.74767  0.02383  Biso   1.000  O
  O147     1.0000 0.44840  0.78932  0.05217  Biso   1.000  O
  C829     1.0000 0.14719  0.67014  0.02502  Biso   1.000  C
  C830     1.0000 0.12115  0.67548  0.03518  Biso   1.000  C
  H577     1.0000 0.11090  0.68990  0.02800  Biso   1.000  H
  C831     1.0000 0.11043  0.65935  0.05603  Biso   1.000  C
  H578     1.0000 0.09300  0.66290  0.06280  Biso   1.000  H
  C832     1.0000 0.12574  0.63788  0.06672  Biso   1.000  C
  C833     1.0000 0.15178  0.63253  0.05656  Biso   1.000  C
  H579     1.0000 0.16200  0.61820  0.06370  Biso   1.000  H
  C834     1.0000 0.16251  0.64866  0.03571  Biso   1.000  C
  H580     1.0000 0.17990  0.64510  0.02890  Biso   1.000  H
  C835     1.0000 0.09065  0.59040  0.12514  Biso   1.000  C
  C836     1.0000 0.06987  0.57251  0.11752  Biso   1.000  C
  H581     1.0000 0.06540  0.57030  0.09910  Biso   1.000  H
  C837     1.0000 0.05569  0.55789  0.13740  Biso   1.000  C
  H582     1.0000 0.04180  0.54590  0.13230  Biso   1.000  H
  C838     1.0000 0.06229  0.56115  0.16489  Biso   1.000  C
  C839     1.0000 0.08308  0.57904  0.17250  Biso   1.000  C
  H583     1.0000 0.08750  0.58120  0.19090  Biso   1.000  H
  C840     1.0000 0.09726  0.59366  0.15263  Biso   1.000  C
  H584     1.0000 0.11120  0.60560  0.15770  Biso   1.000  H
  C841     1.0000 0.10530  0.60680  0.10470  Biso   1.000  C
  C842     1.0000 0.36533  0.73390  0.02446  Biso   1.000  C
  H585     1.0000 0.37430  0.73620  0.04110  Biso   1.000  H
  C843     1.0000 0.11610  0.62000  0.08920  Biso   1.000  C
  C844     1.0000 0.33786  0.72640  0.02441  Biso   1.000  C
  H586     1.0000 0.32910  0.72230  0.04080  Biso   1.000  H
  C845     1.0000 0.20214  0.69380  0.97650  Biso   1.000  C
  H587     1.0000 0.19310  0.69170  0.95990  Biso   1.000  H
  C846     1.0000 0.22980  0.70050  0.97620  Biso   1.000  C
  H588     1.0000 0.23880  0.70240  0.95960  Biso   1.000  H
  C847     1.0000 0.13200  0.75640  0.97730  Biso   1.000  C
  H589     1.0000 0.13270  0.76590  0.96080  Biso   1.000  H
  C848     1.0000 0.14040  0.72990  0.97750  Biso   1.000  C
  H590     1.0000 0.14320  0.72150  0.96060  Biso   1.000  H
  C849     1.0000 0.45570  0.81480  0.04660  Biso   1.000  C
  C850     1.0000 0.08300  0.85560  0.02210  Biso   1.000  C
  H591     1.0000 0.08420  0.84690  0.03900  Biso   1.000  H
  C851     1.0000 0.07300  0.88210  0.02230  Biso   1.000  C
  H592     1.0000 0.07200  0.89100  0.03910  Biso   1.000  H
  O148     1.0000 0.04320  0.93180  0.02090  Biso   1.000  O
  O149     1.0000 0.47224  0.17684  0.97118  Biso   1.000  O
  O150     1.0000 0.57944  0.25233  0.02383  Biso   1.000  O
  O151     1.0000 0.55160  0.21068  0.05217  Biso   1.000  O
  C852     1.0000 0.85281  0.32986  0.02502  Biso   1.000  C
  C853     1.0000 0.87885  0.32452  0.03518  Biso   1.000  C
  H593     1.0000 0.88910  0.31010  0.02800  Biso   1.000  H
  C854     1.0000 0.88957  0.34065  0.05603  Biso   1.000  C
  H594     1.0000 0.90700  0.33710  0.06280  Biso   1.000  H
  C855     1.0000 0.87426  0.36212  0.06672  Biso   1.000  C
  C856     1.0000 0.84822  0.36747  0.05656  Biso   1.000  C
  H595     1.0000 0.83800  0.38180  0.06370  Biso   1.000  H
  C857     1.0000 0.83749  0.35134  0.03571  Biso   1.000  C
  H596     1.0000 0.82010  0.35490  0.02890  Biso   1.000  H
  C858     1.0000 0.90935  0.40960  0.12514  Biso   1.000  C
  C859     1.0000 0.93013  0.42749  0.11752  Biso   1.000  C
  H597     1.0000 0.93460  0.42970  0.09910  Biso   1.000  H
  C860     1.0000 0.94431  0.44211  0.13740  Biso   1.000  C
  H598     1.0000 0.95820  0.45410  0.13230  Biso   1.000  H
  C861     1.0000 0.93771  0.43885  0.16489  Biso   1.000  C
  C862     1.0000 0.91692  0.42096  0.17250  Biso   1.000  C
  H599     1.0000 0.91250  0.41880  0.19090  Biso   1.000  H
  C863     1.0000 0.90274  0.40634  0.15263  Biso   1.000  C
  H600     1.0000 0.88880  0.39440  0.15770  Biso   1.000  H
  C864     1.0000 0.89470  0.39320  0.10470  Biso   1.000  C
  C865     1.0000 0.63467  0.26610  0.02446  Biso   1.000  C
  H601     1.0000 0.62570  0.26380  0.04110  Biso   1.000  H
  C866     1.0000 0.88390  0.38000  0.08920  Biso   1.000  C
  C867     1.0000 0.66214  0.27360  0.02441  Biso   1.000  C
  H602     1.0000 0.67090  0.27770  0.04080  Biso   1.000  H
  C868     1.0000 0.79786  0.30620  0.97650  Biso   1.000  C
  H603     1.0000 0.80690  0.30830  0.95990  Biso   1.000  H
  C869     1.0000 0.77020  0.29950  0.97620  Biso   1.000  C
  H604     1.0000 0.76120  0.29760  0.95960  Biso   1.000  H
  C870     1.0000 0.86800  0.24360  0.97730  Biso   1.000  C
  H605     1.0000 0.86730  0.23410  0.96080  Biso   1.000  H
  C871     1.0000 0.85960  0.27010  0.97750  Biso   1.000  C
  H606     1.0000 0.85680  0.27850  0.96060  Biso   1.000  H
  C872     1.0000 0.54430  0.18520  0.04660  Biso   1.000  C
  C873     1.0000 0.91700  0.14440  0.02210  Biso   1.000  C
  H607     1.0000 0.91580  0.15310  0.03900  Biso   1.000  H
  C874     1.0000 0.92700  0.11790  0.02230  Biso   1.000  C
  H608     1.0000 0.92800  0.10900  0.03910  Biso   1.000  H
  O152     1.0000 0.95680  0.06820  0.02090  Biso   1.000  O
  O153     1.0000 0.52776  0.17684  0.02882  Biso   1.000  O
  O154     1.0000 0.42056  0.25233  0.97617  Biso   1.000  O
  O155     1.0000 0.44840  0.21068  0.94783  Biso   1.000  O
  C875     1.0000 0.14719  0.32986  0.97498  Biso   1.000  C
  C876     1.0000 0.12115  0.32452  0.96482  Biso   1.000  C
  H609     1.0000 0.11090  0.31010  0.97200  Biso   1.000  H
  C877     1.0000 0.11043  0.34065  0.94397  Biso   1.000  C
  H610     1.0000 0.09300  0.33710  0.93720  Biso   1.000  H
  C878     1.0000 0.12574  0.36212  0.93328  Biso   1.000  C
  C879     1.0000 0.15178  0.36747  0.94344  Biso   1.000  C
  H611     1.0000 0.16200  0.38180  0.93630  Biso   1.000  H
  C880     1.0000 0.16251  0.35134  0.96429  Biso   1.000  C
  H612     1.0000 0.17990  0.35490  0.97110  Biso   1.000  H
  C881     1.0000 0.09065  0.40960  0.87486  Biso   1.000  C
  C882     1.0000 0.06987  0.42749  0.88248  Biso   1.000  C
  H613     1.0000 0.06540  0.42970  0.90090  Biso   1.000  H
  C883     1.0000 0.05569  0.44211  0.86260  Biso   1.000  C
  H614     1.0000 0.04180  0.45410  0.86770  Biso   1.000  H
  C884     1.0000 0.06229  0.43885  0.83511  Biso   1.000  C
  C885     1.0000 0.08308  0.42096  0.82750  Biso   1.000  C
  H615     1.0000 0.08750  0.41880  0.80910  Biso   1.000  H
  C886     1.0000 0.09726  0.40634  0.84737  Biso   1.000  C
  H616     1.0000 0.11120  0.39440  0.84230  Biso   1.000  H
  C887     1.0000 0.10530  0.39320  0.89530  Biso   1.000  C
  C888     1.0000 0.36533  0.26610  0.97554  Biso   1.000  C
  H617     1.0000 0.37430  0.26380  0.95890  Biso   1.000  H
  C889     1.0000 0.11610  0.38000  0.91080  Biso   1.000  C
  C890     1.0000 0.33786  0.27360  0.97559  Biso   1.000  C
  H618     1.0000 0.32910  0.27770  0.95920  Biso   1.000  H
  C891     1.0000 0.20214  0.30620  0.02350  Biso   1.000  C
  H619     1.0000 0.19310  0.30830  0.04010  Biso   1.000  H
  C892     1.0000 0.22980  0.29950  0.02380  Biso   1.000  C
  H620     1.0000 0.23880  0.29760  0.04040  Biso   1.000  H
  C893     1.0000 0.13200  0.24360  0.02270  Biso   1.000  C
  H621     1.0000 0.13270  0.23410  0.03920  Biso   1.000  H
  C894     1.0000 0.14040  0.27010  0.02250  Biso   1.000  C
  H622     1.0000 0.14320  0.27850  0.03940  Biso   1.000  H
  C895     1.0000 0.45570  0.18520  0.95340  Biso   1.000  C
  C896     1.0000 0.08300  0.14440  0.97790  Biso   1.000  C
  H623     1.0000 0.08420  0.15310  0.96100  Biso   1.000  H
  C897     1.0000 0.07300  0.11790  0.97770  Biso   1.000  C
  H624     1.0000 0.07200  0.10900  0.96090  Biso   1.000  H
  O156     1.0000 0.04320  0.06820  0.97910  Biso   1.000  O
  O157     1.0000 0.47224  0.82316  0.02882  Biso   1.000  O
  O158     1.0000 0.57944  0.74767  0.97617  Biso   1.000  O
  O159     1.0000 0.55160  0.78932  0.94783  Biso   1.000  O
  C898     1.0000 0.85281  0.67014  0.97498  Biso   1.000  C
  C899     1.0000 0.87885  0.67548  0.96482  Biso   1.000  C
  H625     1.0000 0.88910  0.68990  0.97200  Biso   1.000  H
  C900     1.0000 0.88957  0.65935  0.94397  Biso   1.000  C
  H626     1.0000 0.90700  0.66290  0.93720  Biso   1.000  H
  C901     1.0000 0.87426  0.63788  0.93328  Biso   1.000  C
  C902     1.0000 0.84822  0.63253  0.94344  Biso   1.000  C
  H627     1.0000 0.83800  0.61820  0.93630  Biso   1.000  H
  C903     1.0000 0.83749  0.64866  0.96429  Biso   1.000  C
  H628     1.0000 0.82010  0.64510  0.97110  Biso   1.000  H
  C904     1.0000 0.90935  0.59040  0.87486  Biso   1.000  C
  C905     1.0000 0.93013  0.57251  0.88248  Biso   1.000  C
  H629     1.0000 0.93460  0.57030  0.90090  Biso   1.000  H
  C906     1.0000 0.94431  0.55789  0.86260  Biso   1.000  C
  H630     1.0000 0.95820  0.54590  0.86770  Biso   1.000  H
  C907     1.0000 0.93771  0.56115  0.83511  Biso   1.000  C
  C908     1.0000 0.91692  0.57904  0.82750  Biso   1.000  C
  H631     1.0000 0.91250  0.58120  0.80910  Biso   1.000  H
  C909     1.0000 0.90274  0.59366  0.84737  Biso   1.000  C
  H632     1.0000 0.88880  0.60560  0.84230  Biso   1.000  H
  C910     1.0000 0.89470  0.60680  0.89530  Biso   1.000  C
  C911     1.0000 0.63467  0.73390  0.97554  Biso   1.000  C
  H633     1.0000 0.62570  0.73620  0.95890  Biso   1.000  H
  C912     1.0000 0.88390  0.62000  0.91080  Biso   1.000  C
  C913     1.0000 0.66214  0.72640  0.97559  Biso   1.000  C
  H634     1.0000 0.67090  0.72230  0.95920  Biso   1.000  H
  C914     1.0000 0.79786  0.69380  0.02350  Biso   1.000  C
  H635     1.0000 0.80690  0.69170  0.04010  Biso   1.000  H
  C915     1.0000 0.77020  0.70050  0.02380  Biso   1.000  C
  H636     1.0000 0.76120  0.70240  0.04040  Biso   1.000  H
  C916     1.0000 0.86800  0.75640  0.02270  Biso   1.000  C
  H637     1.0000 0.86730  0.76590  0.03920  Biso   1.000  H
  C917     1.0000 0.85960  0.72990  0.02250  Biso   1.000  C
  H638     1.0000 0.85680  0.72150  0.03940  Biso   1.000  H
  C918     1.0000 0.54430  0.81480  0.95340  Biso   1.000  C
  C919     1.0000 0.91700  0.85560  0.97790  Biso   1.000  C
  H639     1.0000 0.91580  0.84690  0.96100  Biso   1.000  H
  C920     1.0000 0.92700  0.88210  0.97770  Biso   1.000  C
  H640     1.0000 0.92800  0.89100  0.96090  Biso   1.000  H
  O160     1.0000 0.95680  0.93180  0.97910  Biso   1.000  O
  O161     1.0000 0.82316  0.02882  0.47224  Biso   1.000  O
  O162     1.0000 0.74767  0.97617  0.57944  Biso   1.000  O
  O163     1.0000 0.78932  0.94783  0.55160  Biso   1.000  O
  C921     1.0000 0.67014  0.97498  0.85281  Biso   1.000  C
  C922     1.0000 0.67548  0.96482  0.87885  Biso   1.000  C
  H641     1.0000 0.68990  0.97200  0.88910  Biso   1.000  H
  C923     1.0000 0.65935  0.94397  0.88957  Biso   1.000  C
  H642     1.0000 0.66290  0.93720  0.90700  Biso   1.000  H
  C924     1.0000 0.63788  0.93328  0.87426  Biso   1.000  C
  C925     1.0000 0.63253  0.94344  0.84822  Biso   1.000  C
  H643     1.0000 0.61820  0.93630  0.83800  Biso   1.000  H
  C926     1.0000 0.64866  0.96429  0.83749  Biso   1.000  C
  H644     1.0000 0.64510  0.97110  0.82010  Biso   1.000  H
  C927     1.0000 0.59040  0.87486  0.90935  Biso   1.000  C
  C928     1.0000 0.57251  0.88248  0.93013  Biso   1.000  C
  H645     1.0000 0.57030  0.90090  0.93460  Biso   1.000  H
  C929     1.0000 0.55789  0.86260  0.94431  Biso   1.000  C
  H646     1.0000 0.54590  0.86770  0.95820  Biso   1.000  H
  C930     1.0000 0.56115  0.83511  0.93771  Biso   1.000  C
  C931     1.0000 0.57904  0.82750  0.91692  Biso   1.000  C
  H647     1.0000 0.58120  0.80910  0.91250  Biso   1.000  H
  C932     1.0000 0.59366  0.84737  0.90274  Biso   1.000  C
  H648     1.0000 0.60560  0.84230  0.88880  Biso   1.000  H
  C933     1.0000 0.60680  0.89530  0.89470  Biso   1.000  C
  C934     1.0000 0.73390  0.97554  0.63467  Biso   1.000  C
  H649     1.0000 0.73620  0.95890  0.62570  Biso   1.000  H
  C935     1.0000 0.62000  0.91080  0.88390  Biso   1.000  C
  C936     1.0000 0.72640  0.97559  0.66214  Biso   1.000  C
  H650     1.0000 0.72230  0.95920  0.67090  Biso   1.000  H
  C937     1.0000 0.69380  0.02350  0.79786  Biso   1.000  C
  H651     1.0000 0.69170  0.04010  0.80690  Biso   1.000  H
  C938     1.0000 0.70050  0.02380  0.77020  Biso   1.000  C
  H652     1.0000 0.70240  0.04040  0.76120  Biso   1.000  H
  C939     1.0000 0.75640  0.02270  0.86800  Biso   1.000  C
  H653     1.0000 0.76590  0.03920  0.86730  Biso   1.000  H
  C940     1.0000 0.72990  0.02250  0.85960  Biso   1.000  C
  H654     1.0000 0.72150  0.03940  0.85680  Biso   1.000  H
  C941     1.0000 0.81480  0.95340  0.54430  Biso   1.000  C
  C942     1.0000 0.85560  0.97790  0.91700  Biso   1.000  C
  H655     1.0000 0.84690  0.96100  0.91580  Biso   1.000  H
  C943     1.0000 0.88210  0.97770  0.92700  Biso   1.000  C
  H656     1.0000 0.89100  0.96090  0.92800  Biso   1.000  H
  O164     1.0000 0.93180  0.97910  0.95680  Biso   1.000  O
  O165     1.0000 0.17684  0.02882  0.52776  Biso   1.000  O
  O166     1.0000 0.25233  0.97617  0.42056  Biso   1.000  O
  O167     1.0000 0.21068  0.94783  0.44840  Biso   1.000  O
  C944     1.0000 0.32986  0.97498  0.14719  Biso   1.000  C
  C945     1.0000 0.32452  0.96482  0.12115  Biso   1.000  C
  H657     1.0000 0.31010  0.97200  0.11090  Biso   1.000  H
  C946     1.0000 0.34065  0.94397  0.11043  Biso   1.000  C
  H658     1.0000 0.33710  0.93720  0.09300  Biso   1.000  H
  C947     1.0000 0.36212  0.93328  0.12574  Biso   1.000  C
  C948     1.0000 0.36747  0.94344  0.15178  Biso   1.000  C
  H659     1.0000 0.38180  0.93630  0.16200  Biso   1.000  H
  C949     1.0000 0.35134  0.96429  0.16251  Biso   1.000  C
  H660     1.0000 0.35490  0.97110  0.17990  Biso   1.000  H
  C950     1.0000 0.40960  0.87486  0.09065  Biso   1.000  C
  C951     1.0000 0.42749  0.88248  0.06987  Biso   1.000  C
  H661     1.0000 0.42970  0.90090  0.06540  Biso   1.000  H
  C952     1.0000 0.44211  0.86260  0.05569  Biso   1.000  C
  H662     1.0000 0.45410  0.86770  0.04180  Biso   1.000  H
  C953     1.0000 0.43885  0.83511  0.06229  Biso   1.000  C
  C954     1.0000 0.42096  0.82750  0.08308  Biso   1.000  C
  H663     1.0000 0.41880  0.80910  0.08750  Biso   1.000  H
  C955     1.0000 0.40634  0.84737  0.09726  Biso   1.000  C
  H664     1.0000 0.39440  0.84230  0.11120  Biso   1.000  H
  C956     1.0000 0.39320  0.89530  0.10530  Biso   1.000  C
  C957     1.0000 0.26610  0.97554  0.36533  Biso   1.000  C
  H665     1.0000 0.26380  0.95890  0.37430  Biso   1.000  H
  C958     1.0000 0.38000  0.91080  0.11610  Biso   1.000  C
  C959     1.0000 0.27360  0.97559  0.33786  Biso   1.000  C
  H666     1.0000 0.27770  0.95920  0.32910  Biso   1.000  H
  C960     1.0000 0.30620  0.02350  0.20214  Biso   1.000  C
  H667     1.0000 0.30830  0.04010  0.19310  Biso   1.000  H
  C961     1.0000 0.29950  0.02380  0.22980  Biso   1.000  C
  H668     1.0000 0.29760  0.04040  0.23880  Biso   1.000  H
  C962     1.0000 0.24360  0.02270  0.13200  Biso   1.000  C
  H669     1.0000 0.23410  0.03920  0.13270  Biso   1.000  H
  C963     1.0000 0.27010  0.02250  0.14040  Biso   1.000  C
  H670     1.0000 0.27850  0.03940  0.14320  Biso   1.000  H
  C964     1.0000 0.18520  0.95340  0.45570  Biso   1.000  C
  C965     1.0000 0.14440  0.97790  0.08300  Biso   1.000  C
  H671     1.0000 0.15310  0.96100  0.08420  Biso   1.000  H
  C966     1.0000 0.11790  0.97770  0.07300  Biso   1.000  C
  H672     1.0000 0.10900  0.96090  0.07200  Biso   1.000  H
  O168     1.0000 0.06820  0.97910  0.04320  Biso   1.000  O
  O169     1.0000 0.17684  0.97118  0.47224  Biso   1.000  O
  O170     1.0000 0.25233  0.02383  0.57944  Biso   1.000  O
  O171     1.0000 0.21068  0.05217  0.55160  Biso   1.000  O
  C967     1.0000 0.32986  0.02502  0.85281  Biso   1.000  C
  C968     1.0000 0.32452  0.03518  0.87885  Biso   1.000  C
  H673     1.0000 0.31010  0.02800  0.88910  Biso   1.000  H
  C969     1.0000 0.34065  0.05603  0.88957  Biso   1.000  C
  H674     1.0000 0.33710  0.06280  0.90700  Biso   1.000  H
  C970     1.0000 0.36212  0.06672  0.87426  Biso   1.000  C
  C971     1.0000 0.36747  0.05656  0.84822  Biso   1.000  C
  H675     1.0000 0.38180  0.06370  0.83800  Biso   1.000  H
  C972     1.0000 0.35134  0.03571  0.83749  Biso   1.000  C
  H676     1.0000 0.35490  0.02890  0.82010  Biso   1.000  H
  C973     1.0000 0.40960  0.12514  0.90935  Biso   1.000  C
  C974     1.0000 0.42749  0.11752  0.93013  Biso   1.000  C
  H677     1.0000 0.42970  0.09910  0.93460  Biso   1.000  H
  C975     1.0000 0.44211  0.13740  0.94431  Biso   1.000  C
  H678     1.0000 0.45410  0.13230  0.95820  Biso   1.000  H
  C976     1.0000 0.43885  0.16489  0.93771  Biso   1.000  C
  C977     1.0000 0.42096  0.17250  0.91692  Biso   1.000  C
  H679     1.0000 0.41880  0.19090  0.91250  Biso   1.000  H
  C978     1.0000 0.40634  0.15263  0.90274  Biso   1.000  C
  H680     1.0000 0.39440  0.15770  0.88880  Biso   1.000  H
  C979     1.0000 0.39320  0.10470  0.89470  Biso   1.000  C
  C980     1.0000 0.26610  0.02446  0.63467  Biso   1.000  C
  H681     1.0000 0.26380  0.04110  0.62570  Biso   1.000  H
  C981     1.0000 0.38000  0.08920  0.88390  Biso   1.000  C
  C982     1.0000 0.27360  0.02441  0.66214  Biso   1.000  C
  H682     1.0000 0.27770  0.04080  0.67090  Biso   1.000  H
  C983     1.0000 0.30620  0.97650  0.79786  Biso   1.000  C
  H683     1.0000 0.30830  0.95990  0.80690  Biso   1.000  H
  C984     1.0000 0.29950  0.97620  0.77020  Biso   1.000  C
  H684     1.0000 0.29760  0.95960  0.76120  Biso   1.000  H
  C985     1.0000 0.24360  0.97730  0.86800  Biso   1.000  C
  H685     1.0000 0.23410  0.96080  0.86730  Biso   1.000  H
  C986     1.0000 0.27010  0.97750  0.85960  Biso   1.000  C
  H686     1.0000 0.27850  0.96060  0.85680  Biso   1.000  H
  C987     1.0000 0.18520  0.04660  0.54430  Biso   1.000  C
  C988     1.0000 0.14440  0.02210  0.91700  Biso   1.000  C
  H687     1.0000 0.15310  0.03900  0.91580  Biso   1.000  H
  C989     1.0000 0.11790  0.02230  0.92700  Biso   1.000  C
  H688     1.0000 0.10900  0.03910  0.92800  Biso   1.000  H
  O172     1.0000 0.06820  0.02090  0.95680  Biso   1.000  O
  O173     1.0000 0.82316  0.97118  0.52776  Biso   1.000  O
  O174     1.0000 0.74767  0.02383  0.42056  Biso   1.000  O
  O175     1.0000 0.78932  0.05217  0.44840  Biso   1.000  O
  C990     1.0000 0.67014  0.02502  0.14719  Biso   1.000  C
  C991     1.0000 0.67548  0.03518  0.12115  Biso   1.000  C
  H689     1.0000 0.68990  0.02800  0.11090  Biso   1.000  H
  C992     1.0000 0.65935  0.05603  0.11043  Biso   1.000  C
  H690     1.0000 0.66290  0.06280  0.09300  Biso   1.000  H
  C993     1.0000 0.63788  0.06672  0.12574  Biso   1.000  C
  C994     1.0000 0.63253  0.05656  0.15178  Biso   1.000  C
  H691     1.0000 0.61820  0.06370  0.16200  Biso   1.000  H
  C995     1.0000 0.64866  0.03571  0.16251  Biso   1.000  C
  H692     1.0000 0.64510  0.02890  0.17990  Biso   1.000  H
  C996     1.0000 0.59040  0.12514  0.09065  Biso   1.000  C
  C997     1.0000 0.57251  0.11752  0.06987  Biso   1.000  C
  H693     1.0000 0.57030  0.09910  0.06540  Biso   1.000  H
  C998     1.0000 0.55789  0.13740  0.05569  Biso   1.000  C
  H694     1.0000 0.54590  0.13230  0.04180  Biso   1.000  H
  C999     1.0000 0.56115  0.16489  0.06229  Biso   1.000  C
  C1000    1.0000 0.57904  0.17250  0.08308  Biso   1.000  C
  H695     1.0000 0.58120  0.19090  0.08750  Biso   1.000  H
  C1001    1.0000 0.59366  0.15263  0.09726  Biso   1.000  C
  H696     1.0000 0.60560  0.15770  0.11120  Biso   1.000  H
  C1002    1.0000 0.60680  0.10470  0.10530  Biso   1.000  C
  C1003    1.0000 0.73390  0.02446  0.36533  Biso   1.000  C
  H697     1.0000 0.73620  0.04110  0.37430  Biso   1.000  H
  C1004    1.0000 0.62000  0.08920  0.11610  Biso   1.000  C
  C1005    1.0000 0.72640  0.02441  0.33786  Biso   1.000  C
  H698     1.0000 0.72230  0.04080  0.32910  Biso   1.000  H
  C1006    1.0000 0.69380  0.97650  0.20214  Biso   1.000  C
  H699     1.0000 0.69170  0.95990  0.19310  Biso   1.000  H
  C1007    1.0000 0.70050  0.97620  0.22980  Biso   1.000  C
  H700     1.0000 0.70240  0.95960  0.23880  Biso   1.000  H
  C1008    1.0000 0.75640  0.97730  0.13200  Biso   1.000  C
  H701     1.0000 0.76590  0.96080  0.13270  Biso   1.000  H
  C1009    1.0000 0.72990  0.97750  0.14040  Biso   1.000  C
  H702     1.0000 0.72150  0.96060  0.14320  Biso   1.000  H
  C1010    1.0000 0.81480  0.04660  0.45570  Biso   1.000  C
  C1011    1.0000 0.85560  0.02210  0.08300  Biso   1.000  C
  H703     1.0000 0.84690  0.03900  0.08420  Biso   1.000  H
  C1012    1.0000 0.88210  0.02230  0.07300  Biso   1.000  C
  H704     1.0000 0.89100  0.03910  0.07200  Biso   1.000  H
  O176     1.0000 0.93180  0.02090  0.04320  Biso   1.000  O
  O177     1.0000 0.02882  0.52776  0.17684  Biso   1.000  O
  O178     1.0000 0.97617  0.42056  0.25233  Biso   1.000  O
  O179     1.0000 0.94783  0.44840  0.21068  Biso   1.000  O
  C1013    1.0000 0.97498  0.14719  0.32986  Biso   1.000  C
  C1014    1.0000 0.96482  0.12115  0.32452  Biso   1.000  C
  H705     1.0000 0.97200  0.11090  0.31010  Biso   1.000  H
  C1015    1.0000 0.94397  0.11043  0.34065  Biso   1.000  C
  H706     1.0000 0.93720  0.09300  0.33710  Biso   1.000  H
  C1016    1.0000 0.93328  0.12574  0.36212  Biso   1.000  C
  C1017    1.0000 0.94344  0.15178  0.36747  Biso   1.000  C
  H707     1.0000 0.93630  0.16200  0.38180  Biso   1.000  H
  C1018    1.0000 0.96429  0.16251  0.35134  Biso   1.000  C
  H708     1.0000 0.97110  0.17990  0.35490  Biso   1.000  H
  C1019    1.0000 0.87486  0.09065  0.40960  Biso   1.000  C
  C1020    1.0000 0.88248  0.06987  0.42749  Biso   1.000  C
  H709     1.0000 0.90090  0.06540  0.42970  Biso   1.000  H
  C1021    1.0000 0.86260  0.05569  0.44211  Biso   1.000  C
  H710     1.0000 0.86770  0.04180  0.45410  Biso   1.000  H
  C1022    1.0000 0.83511  0.06229  0.43885  Biso   1.000  C
  C1023    1.0000 0.82750  0.08308  0.42096  Biso   1.000  C
  H711     1.0000 0.80910  0.08750  0.41880  Biso   1.000  H
  C1024    1.0000 0.84737  0.09726  0.40634  Biso   1.000  C
  H712     1.0000 0.84230  0.11120  0.39440  Biso   1.000  H
  C1025    1.0000 0.89530  0.10530  0.39320  Biso   1.000  C
  C1026    1.0000 0.97554  0.36533  0.26610  Biso   1.000  C
  H713     1.0000 0.95890  0.37430  0.26380  Biso   1.000  H
  C1027    1.0000 0.91080  0.11610  0.38000  Biso   1.000  C
  C1028    1.0000 0.97559  0.33786  0.27360  Biso   1.000  C
  H714     1.0000 0.95920  0.32910  0.27770  Biso   1.000  H
  C1029    1.0000 0.02350  0.20214  0.30620  Biso   1.000  C
  H715     1.0000 0.04010  0.19310  0.30830  Biso   1.000  H
  C1030    1.0000 0.02380  0.22980  0.29950  Biso   1.000  C
  H716     1.0000 0.04040  0.23880  0.29760  Biso   1.000  H
  C1031    1.0000 0.02270  0.13200  0.24360  Biso   1.000  C
  H717     1.0000 0.03920  0.13270  0.23410  Biso   1.000  H
  C1032    1.0000 0.02250  0.14040  0.27010  Biso   1.000  C
  H718     1.0000 0.03940  0.14320  0.27850  Biso   1.000  H
  C1033    1.0000 0.95340  0.45570  0.18520  Biso   1.000  C
  C1034    1.0000 0.97790  0.08300  0.14440  Biso   1.000  C
  H719     1.0000 0.96100  0.08420  0.15310  Biso   1.000  H
  C1035    1.0000 0.97770  0.07300  0.11790  Biso   1.000  C
  H720     1.0000 0.96090  0.07200  0.10900  Biso   1.000  H
  O180     1.0000 0.97910  0.04320  0.06820  Biso   1.000  O
  O181     1.0000 0.02882  0.47224  0.82316  Biso   1.000  O
  O182     1.0000 0.97617  0.57944  0.74767  Biso   1.000  O
  O183     1.0000 0.94783  0.55160  0.78932  Biso   1.000  O
  C1036    1.0000 0.97498  0.85281  0.67014  Biso   1.000  C
  C1037    1.0000 0.96482  0.87885  0.67548  Biso   1.000  C
  H721     1.0000 0.97200  0.88910  0.68990  Biso   1.000  H
  C1038    1.0000 0.94397  0.88957  0.65935  Biso   1.000  C
  H722     1.0000 0.93720  0.90700  0.66290  Biso   1.000  H
  C1039    1.0000 0.93328  0.87426  0.63788  Biso   1.000  C
  C1040    1.0000 0.94344  0.84822  0.63253  Biso   1.000  C
  H723     1.0000 0.93630  0.83800  0.61820  Biso   1.000  H
  C1041    1.0000 0.96429  0.83749  0.64866  Biso   1.000  C
  H724     1.0000 0.97110  0.82010  0.64510  Biso   1.000  H
  C1042    1.0000 0.87486  0.90935  0.59040  Biso   1.000  C
  C1043    1.0000 0.88248  0.93013  0.57251  Biso   1.000  C
  H725     1.0000 0.90090  0.93460  0.57030  Biso   1.000  H
  C1044    1.0000 0.86260  0.94431  0.55789  Biso   1.000  C
  H726     1.0000 0.86770  0.95820  0.54590  Biso   1.000  H
  C1045    1.0000 0.83511  0.93771  0.56115  Biso   1.000  C
  C1046    1.0000 0.82750  0.91692  0.57904  Biso   1.000  C
  H727     1.0000 0.80910  0.91250  0.58120  Biso   1.000  H
  C1047    1.0000 0.84737  0.90274  0.59366  Biso   1.000  C
  H728     1.0000 0.84230  0.88880  0.60560  Biso   1.000  H
  C1048    1.0000 0.89530  0.89470  0.60680  Biso   1.000  C
  C1049    1.0000 0.97554  0.63467  0.73390  Biso   1.000  C
  H729     1.0000 0.95890  0.62570  0.73620  Biso   1.000  H
  C1050    1.0000 0.91080  0.88390  0.62000  Biso   1.000  C
  C1051    1.0000 0.97559  0.66214  0.72640  Biso   1.000  C
  H730     1.0000 0.95920  0.67090  0.72230  Biso   1.000  H
  C1052    1.0000 0.02350  0.79786  0.69380  Biso   1.000  C
  H731     1.0000 0.04010  0.80690  0.69170  Biso   1.000  H
  C1053    1.0000 0.02380  0.77020  0.70050  Biso   1.000  C
  H732     1.0000 0.04040  0.76120  0.70240  Biso   1.000  H
  C1054    1.0000 0.02270  0.86800  0.75640  Biso   1.000  C
  H733     1.0000 0.03920  0.86730  0.76590  Biso   1.000  H
  C1055    1.0000 0.02250  0.85960  0.72990  Biso   1.000  C
  H734     1.0000 0.03940  0.85680  0.72150  Biso   1.000  H
  C1056    1.0000 0.95340  0.54430  0.81480  Biso   1.000  C
  C1057    1.0000 0.97790  0.91700  0.85560  Biso   1.000  C
  H735     1.0000 0.96100  0.91580  0.84690  Biso   1.000  H
  C1058    1.0000 0.97770  0.92700  0.88210  Biso   1.000  C
  H736     1.0000 0.96090  0.92800  0.89100  Biso   1.000  H
  O184     1.0000 0.97910  0.95680  0.93180  Biso   1.000  O
  O185     1.0000 0.97118  0.52776  0.82316  Biso   1.000  O
  O186     1.0000 0.02383  0.42056  0.74767  Biso   1.000  O
  O187     1.0000 0.05217  0.44840  0.78932  Biso   1.000  O
  C1059    1.0000 0.02502  0.14719  0.67014  Biso   1.000  C
  C1060    1.0000 0.03518  0.12115  0.67548  Biso   1.000  C
  H737     1.0000 0.02800  0.11090  0.68990  Biso   1.000  H
  C1061    1.0000 0.05603  0.11043  0.65935  Biso   1.000  C
  H738     1.0000 0.06280  0.09300  0.66290  Biso   1.000  H
  C1062    1.0000 0.06672  0.12574  0.63788  Biso   1.000  C
  C1063    1.0000 0.05656  0.15178  0.63253  Biso   1.000  C
  H739     1.0000 0.06370  0.16200  0.61820  Biso   1.000  H
  C1064    1.0000 0.03571  0.16251  0.64866  Biso   1.000  C
  H740     1.0000 0.02890  0.17990  0.64510  Biso   1.000  H
  C1065    1.0000 0.12514  0.09065  0.59040  Biso   1.000  C
  C1066    1.0000 0.11752  0.06987  0.57251  Biso   1.000  C
  H741     1.0000 0.09910  0.06540  0.57030  Biso   1.000  H
  C1067    1.0000 0.13740  0.05569  0.55789  Biso   1.000  C
  H742     1.0000 0.13230  0.04180  0.54590  Biso   1.000  H
  C1068    1.0000 0.16489  0.06229  0.56115  Biso   1.000  C
  C1069    1.0000 0.17250  0.08308  0.57904  Biso   1.000  C
  H743     1.0000 0.19090  0.08750  0.58120  Biso   1.000  H
  C1070    1.0000 0.15263  0.09726  0.59366  Biso   1.000  C
  H744     1.0000 0.15770  0.11120  0.60560  Biso   1.000  H
  C1071    1.0000 0.10470  0.10530  0.60680  Biso   1.000  C
  C1072    1.0000 0.02446  0.36533  0.73390  Biso   1.000  C
  H745     1.0000 0.04110  0.37430  0.73620  Biso   1.000  H
  C1073    1.0000 0.08920  0.11610  0.62000  Biso   1.000  C
  C1074    1.0000 0.02441  0.33786  0.72640  Biso   1.000  C
  H746     1.0000 0.04080  0.32910  0.72230  Biso   1.000  H
  C1075    1.0000 0.97650  0.20214  0.69380  Biso   1.000  C
  H747     1.0000 0.95990  0.19310  0.69170  Biso   1.000  H
  C1076    1.0000 0.97620  0.22980  0.70050  Biso   1.000  C
  H748     1.0000 0.95960  0.23880  0.70240  Biso   1.000  H
  C1077    1.0000 0.97730  0.13200  0.75640  Biso   1.000  C
  H749     1.0000 0.96080  0.13270  0.76590  Biso   1.000  H
  C1078    1.0000 0.97750  0.14040  0.72990  Biso   1.000  C
  H750     1.0000 0.96060  0.14320  0.72150  Biso   1.000  H
  C1079    1.0000 0.04660  0.45570  0.81480  Biso   1.000  C
  C1080    1.0000 0.02210  0.08300  0.85560  Biso   1.000  C
  H751     1.0000 0.03900  0.08420  0.84690  Biso   1.000  H
  C1081    1.0000 0.02230  0.07300  0.88210  Biso   1.000  C
  H752     1.0000 0.03910  0.07200  0.89100  Biso   1.000  H
  O188     1.0000 0.02090  0.04320  0.93180  Biso   1.000  O
  O189     1.0000 0.97118  0.47224  0.17684  Biso   1.000  O
  O190     1.0000 0.02383  0.57944  0.25233  Biso   1.000  O
  O191     1.0000 0.05217  0.55160  0.21068  Biso   1.000  O
  C1082    1.0000 0.02502  0.85281  0.32986  Biso   1.000  C
  C1083    1.0000 0.03518  0.87885  0.32452  Biso   1.000  C
  H753     1.0000 0.02800  0.88910  0.31010  Biso   1.000  H
  C1084    1.0000 0.05603  0.88957  0.34065  Biso   1.000  C
  H754     1.0000 0.06280  0.90700  0.33710  Biso   1.000  H
  C1085    1.0000 0.06672  0.87426  0.36212  Biso   1.000  C
  C1086    1.0000 0.05656  0.84822  0.36747  Biso   1.000  C
  H755     1.0000 0.06370  0.83800  0.38180  Biso   1.000  H
  C1087    1.0000 0.03571  0.83749  0.35134  Biso   1.000  C
  H756     1.0000 0.02890  0.82010  0.35490  Biso   1.000  H
  C1088    1.0000 0.12514  0.90935  0.40960  Biso   1.000  C
  C1089    1.0000 0.11752  0.93013  0.42749  Biso   1.000  C
  H757     1.0000 0.09910  0.93460  0.42970  Biso   1.000  H
  C1090    1.0000 0.13740  0.94431  0.44211  Biso   1.000  C
  H758     1.0000 0.13230  0.95820  0.45410  Biso   1.000  H
  C1091    1.0000 0.16489  0.93771  0.43885  Biso   1.000  C
  C1092    1.0000 0.17250  0.91692  0.42096  Biso   1.000  C
  H759     1.0000 0.19090  0.91250  0.41880  Biso   1.000  H
  C1093    1.0000 0.15263  0.90274  0.40634  Biso   1.000  C
  H760     1.0000 0.15770  0.88880  0.39440  Biso   1.000  H
  C1094    1.0000 0.10470  0.89470  0.39320  Biso   1.000  C
  C1095    1.0000 0.02446  0.63467  0.26610  Biso   1.000  C
  H761     1.0000 0.04110  0.62570  0.26380  Biso   1.000  H
  C1096    1.0000 0.08920  0.88390  0.38000  Biso   1.000  C
  C1097    1.0000 0.02441  0.66214  0.27360  Biso   1.000  C
  H762     1.0000 0.04080  0.67090  0.27770  Biso   1.000  H
  C1098    1.0000 0.97650  0.79786  0.30620  Biso   1.000  C
  H763     1.0000 0.95990  0.80690  0.30830  Biso   1.000  H
  C1099    1.0000 0.97620  0.77020  0.29950  Biso   1.000  C
  H764     1.0000 0.95960  0.76120  0.29760  Biso   1.000  H
  C1100    1.0000 0.97730  0.86800  0.24360  Biso   1.000  C
  H765     1.0000 0.96080  0.86730  0.23410  Biso   1.000  H
  C1101    1.0000 0.97750  0.85960  0.27010  Biso   1.000  C
  H766     1.0000 0.96060  0.85680  0.27850  Biso   1.000  H
  C1102    1.0000 0.04660  0.54430  0.18520  Biso   1.000  C
  C1103    1.0000 0.02210  0.91700  0.14440  Biso   1.000  C
  H767     1.0000 0.03900  0.91580  0.15310  Biso   1.000  H
  C1104    1.0000 0.02230  0.92700  0.11790  Biso   1.000  C
  H768     1.0000 0.03910  0.92800  0.10900  Biso   1.000  H
  O192     1.0000 0.02090  0.95680  0.06820  Biso   1.000  O
  Zr1      1.0000 0.75000  0.03573  0.53573  Biso   1.000  Zr
  Zr2      1.0000 0.25000  0.96427  0.53573  Biso   1.000  Zr
  Zr3      1.0000 0.25000  0.03573  0.46427  Biso   1.000  Zr
  Zr4      1.0000 0.75000  0.96427  0.46427  Biso   1.000  Zr
  Zr5      1.0000 0.53573  0.75000  0.03573  Biso   1.000  Zr
  Zr6      1.0000 0.53573  0.25000  0.96427  Biso   1.000  Zr
  Zr7      1.0000 0.46427  0.25000  0.03573  Biso   1.000  Zr
  Zr8      1.0000 0.46427  0.75000  0.96427  Biso   1.000  Zr
  Zr9      1.0000 0.03573  0.53573  0.75000  Biso   1.000  Zr
  Zr10     1.0000 0.96427  0.53573  0.25000  Biso   1.000  Zr
  Zr11     1.0000 0.03573  0.46427  0.25000  Biso   1.000  Zr
  Zr12     1.0000 0.96427  0.46427  0.75000  Biso   1.000  Zr
  Zr13     1.0000 0.25000  0.96427  0.46427  Biso   1.000  Zr
  Zr14     1.0000 0.75000  0.03573  0.46427  Biso   1.000  Zr
  Zr15     1.0000 0.75000  0.96427  0.53573  Biso   1.000  Zr
  Zr16     1.0000 0.25000  0.03573  0.53573  Biso   1.000  Zr
  Zr17     1.0000 0.46427  0.25000  0.96427  Biso   1.000  Zr
  Zr18     1.0000 0.46427  0.75000  0.03573  Biso   1.000  Zr
  Zr19     1.0000 0.53573  0.75000  0.96427  Biso   1.000  Zr
  Zr20     1.0000 0.53573  0.25000  0.03573  Biso   1.000  Zr
  Zr21     1.0000 0.96427  0.46427  0.25000  Biso   1.000  Zr
  Zr22     1.0000 0.03573  0.46427  0.75000  Biso   1.000  Zr
  Zr23     1.0000 0.96427  0.53573  0.75000  Biso   1.000  Zr
  Zr24     1.0000 0.03573  0.53573  0.25000  Biso   1.000  Zr
  Zr25     1.0000 0.69952  0.00000  0.50000  Biso   1.000  Zr
  Zr26     1.0000 0.30048  0.00000  0.50000  Biso   1.000  Zr
  Zr27     1.0000 0.50000  0.69952  0.00000  Biso   1.000  Zr
  Zr28     1.0000 0.50000  0.30048  0.00000  Biso   1.000  Zr
  Zr29     1.0000 0.00000  0.50000  0.69952  Biso   1.000  Zr
  Zr30     1.0000 0.00000  0.50000  0.30048  Biso   1.000  Zr
  Zr31     1.0000 0.50000  0.19952  0.00000  Biso   1.000  Zr
  Zr32     1.0000 0.50000  0.80048  0.00000  Biso   1.000  Zr
  Zr33     1.0000 0.19952  0.00000  0.50000  Biso   1.000  Zr
  Zr34     1.0000 0.80048  0.00000  0.50000  Biso   1.000  Zr
  Zr35     1.0000 0.00000  0.50000  0.80048  Biso   1.000  Zr
  Zr36     1.0000 0.00000  0.50000  0.19952  Biso   1.000  Zr
  Zr37     1.0000 0.52776  0.47224  0.47224  Biso   1.000  Zr
  Zr38     1.0000 0.47224  0.52776  0.47224  Biso   1.000  Zr
  Zr39     1.0000 0.47224  0.47224  0.52776  Biso   1.000  Zr
  Zr40     1.0000 0.52776  0.52776  0.52776  Biso   1.000  Zr
  Zr41     1.0000 0.97224  0.02776  0.02776  Biso   1.000  Zr
  Zr42     1.0000 0.02776  0.97224  0.02776  Biso   1.000  Zr
  Zr43     1.0000 0.97224  0.97224  0.97224  Biso   1.000  Zr
  Zr44     1.0000 0.02776  0.02776  0.97224  Biso   1.000  Zr
  Zr45     1.0000 0.47224  0.52776  0.52776  Biso   1.000  Zr
  Zr46     1.0000 0.52776  0.47224  0.52776  Biso   1.000  Zr
  Zr47     1.0000 0.52776  0.52776  0.47224  Biso   1.000  Zr
  Zr48     1.0000 0.47224  0.47224  0.47224  Biso   1.000  Zr
  Zr49     1.0000 0.02776  0.97224  0.97224  Biso   1.000  Zr
  Zr50     1.0000 0.97224  0.02776  0.97224  Biso   1.000  Zr
  Zr51     1.0000 0.02776  0.02776  0.02776  Biso   1.000  Zr
  Zr52     1.0000 0.97224  0.97224  0.02776  Biso   1.000  Zr
  O193     1.0000 0.72192  0.04046  0.50000  Biso   1.000  O
  C1105    1.0000 0.80960  0.31230  0.50000  Biso   1.000  C
  C1106    1.0000 0.75494  0.09046  0.50000  Biso   1.000  C
  C1107    1.0000 0.76210  0.12010  0.50000  Biso   1.000  C
  C1108    1.0000 0.81256  0.34345  0.50000  Biso   1.000  C
  C1109    1.0000 0.78420  0.20340  0.50000  Biso   1.000  C
  C1110    1.0000 0.77510  0.17670  0.50000  Biso   1.000  C
  C1111    1.0000 0.79570  0.25580  0.50000  Biso   1.000  C
  C1112    1.0000 0.78970  0.22640  0.50000  Biso   1.000  C
  C1113    1.0000 0.78520  0.35515  0.50000  Biso   1.000  C
  C1114    1.0000 0.73000  0.37740  0.50000  Biso   1.000  C
  C1115    1.0000 0.70420  0.38980  0.50000  Biso   1.000  C
  C1116    1.0000 0.65880  0.40880  0.50000  Biso   1.000  C
  C1117    1.0000 0.68550  0.39860  0.50000  Biso   1.000  C
  C1118    1.0000 0.60380  0.43540  0.50000  Biso   1.000  C
  C1119    1.0000 0.57600  0.44630  0.50000  Biso   1.000  C
  O194     1.0000 0.52279  0.45688  0.50000  Biso   1.000  O
  O195     1.0000 0.27808  0.95954  0.50000  Biso   1.000  O
  C1120    1.0000 0.19040  0.68770  0.50000  Biso   1.000  C
  C1121    1.0000 0.24506  0.90954  0.50000  Biso   1.000  C
  C1122    1.0000 0.23790  0.87990  0.50000  Biso   1.000  C
  C1123    1.0000 0.18744  0.65655  0.50000  Biso   1.000  C
  C1124    1.0000 0.21580  0.79660  0.50000  Biso   1.000  C
  C1125    1.0000 0.22490  0.82330  0.50000  Biso   1.000  C
  C1126    1.0000 0.20430  0.74420  0.50000  Biso   1.000  C
  C1127    1.0000 0.21030  0.77360  0.50000  Biso   1.000  C
  C1128    1.0000 0.21480  0.64485  0.50000  Biso   1.000  C
  C1129    1.0000 0.27000  0.62260  0.50000  Biso   1.000  C
  C1130    1.0000 0.29580  0.61020  0.50000  Biso   1.000  C
  C1131    1.0000 0.34120  0.59120  0.50000  Biso   1.000  C
  C1132    1.0000 0.31450  0.60140  0.50000  Biso   1.000  C
  C1133    1.0000 0.39620  0.56460  0.50000  Biso   1.000  C
  C1134    1.0000 0.42400  0.55370  0.50000  Biso   1.000  C
  O196     1.0000 0.47721  0.54312  0.50000  Biso   1.000  O
  O197     1.0000 0.27808  0.04046  0.50000  Biso   1.000  O
  C1135    1.0000 0.19040  0.31230  0.50000  Biso   1.000  C
  C1136    1.0000 0.24506  0.09046  0.50000  Biso   1.000  C
  C1137    1.0000 0.23790  0.12010  0.50000  Biso   1.000  C
  C1138    1.0000 0.18744  0.34345  0.50000  Biso   1.000  C
  C1139    1.0000 0.21580  0.20340  0.50000  Biso   1.000  C
  C1140    1.0000 0.22490  0.17670  0.50000  Biso   1.000  C
  C1141    1.0000 0.20430  0.25580  0.50000  Biso   1.000  C
  C1142    1.0000 0.21030  0.22640  0.50000  Biso   1.000  C
  C1143    1.0000 0.21480  0.35515  0.50000  Biso   1.000  C
  C1144    1.0000 0.27000  0.37740  0.50000  Biso   1.000  C
  C1145    1.0000 0.29580  0.38980  0.50000  Biso   1.000  C
  C1146    1.0000 0.34120  0.40880  0.50000  Biso   1.000  C
  C1147    1.0000 0.31450  0.39860  0.50000  Biso   1.000  C
  C1148    1.0000 0.39620  0.43540  0.50000  Biso   1.000  C
  C1149    1.0000 0.42400  0.44630  0.50000  Biso   1.000  C
  O198     1.0000 0.47721  0.45688  0.50000  Biso   1.000  O
  O199     1.0000 0.72192  0.95954  0.50000  Biso   1.000  O
  C1150    1.0000 0.80960  0.68770  0.50000  Biso   1.000  C
  C1151    1.0000 0.75494  0.90954  0.50000  Biso   1.000  C
  C1152    1.0000 0.76210  0.87990  0.50000  Biso   1.000  C
  C1153    1.0000 0.81256  0.65655  0.50000  Biso   1.000  C
  C1154    1.0000 0.78420  0.79660  0.50000  Biso   1.000  C
  C1155    1.0000 0.77510  0.82330  0.50000  Biso   1.000  C
  C1156    1.0000 0.79570  0.74420  0.50000  Biso   1.000  C
  C1157    1.0000 0.78970  0.77360  0.50000  Biso   1.000  C
  C1158    1.0000 0.78520  0.64485  0.50000  Biso   1.000  C
  C1159    1.0000 0.73000  0.62260  0.50000  Biso   1.000  C
  C1160    1.0000 0.70420  0.61020  0.50000  Biso   1.000  C
  C1161    1.0000 0.65880  0.59120  0.50000  Biso   1.000  C
  C1162    1.0000 0.68550  0.60140  0.50000  Biso   1.000  C
  C1163    1.0000 0.60380  0.56460  0.50000  Biso   1.000  C
  C1164    1.0000 0.57600  0.55370  0.50000  Biso   1.000  C
  O200     1.0000 0.52279  0.54312  0.50000  Biso   1.000  O
  O201     1.0000 0.50000  0.72192  0.04046  Biso   1.000  O
  C1165    1.0000 0.50000  0.80960  0.31230  Biso   1.000  C
  C1166    1.0000 0.50000  0.75494  0.09046  Biso   1.000  C
  C1167    1.0000 0.50000  0.76210  0.12010  Biso   1.000  C
  C1168    1.0000 0.50000  0.81256  0.34345  Biso   1.000  C
  C1169    1.0000 0.50000  0.78420  0.20340  Biso   1.000  C
  C1170    1.0000 0.50000  0.77510  0.17670  Biso   1.000  C
  C1171    1.0000 0.50000  0.79570  0.25580  Biso   1.000  C
  C1172    1.0000 0.50000  0.78970  0.22640  Biso   1.000  C
  C1173    1.0000 0.50000  0.78520  0.35515  Biso   1.000  C
  C1174    1.0000 0.50000  0.73000  0.37740  Biso   1.000  C
  C1175    1.0000 0.50000  0.70420  0.38980  Biso   1.000  C
  C1176    1.0000 0.50000  0.65880  0.40880  Biso   1.000  C
  C1177    1.0000 0.50000  0.68550  0.39860  Biso   1.000  C
  C1178    1.0000 0.50000  0.60380  0.43540  Biso   1.000  C
  C1179    1.0000 0.50000  0.57600  0.44630  Biso   1.000  C
  O202     1.0000 0.50000  0.52279  0.45688  Biso   1.000  O
  O203     1.0000 0.50000  0.27808  0.95954  Biso   1.000  O
  C1180    1.0000 0.50000  0.19040  0.68770  Biso   1.000  C
  C1181    1.0000 0.50000  0.24506  0.90954  Biso   1.000  C
  C1182    1.0000 0.50000  0.23790  0.87990  Biso   1.000  C
  C1183    1.0000 0.50000  0.18744  0.65655  Biso   1.000  C
  C1184    1.0000 0.50000  0.21580  0.79660  Biso   1.000  C
  C1185    1.0000 0.50000  0.22490  0.82330  Biso   1.000  C
  C1186    1.0000 0.50000  0.20430  0.74420  Biso   1.000  C
  C1187    1.0000 0.50000  0.21030  0.77360  Biso   1.000  C
  C1188    1.0000 0.50000  0.21480  0.64485  Biso   1.000  C
  C1189    1.0000 0.50000  0.27000  0.62260  Biso   1.000  C
  C1190    1.0000 0.50000  0.29580  0.61020  Biso   1.000  C
  C1191    1.0000 0.50000  0.34120  0.59120  Biso   1.000  C
  C1192    1.0000 0.50000  0.31450  0.60140  Biso   1.000  C
  C1193    1.0000 0.50000  0.39620  0.56460  Biso   1.000  C
  C1194    1.0000 0.50000  0.42400  0.55370  Biso   1.000  C
  O204     1.0000 0.50000  0.47721  0.54312  Biso   1.000  O
  O205     1.0000 0.50000  0.27808  0.04046  Biso   1.000  O
  C1195    1.0000 0.50000  0.19040  0.31230  Biso   1.000  C
  C1196    1.0000 0.50000  0.24506  0.09046  Biso   1.000  C
  C1197    1.0000 0.50000  0.23790  0.12010  Biso   1.000  C
  C1198    1.0000 0.50000  0.18744  0.34345  Biso   1.000  C
  C1199    1.0000 0.50000  0.21580  0.20340  Biso   1.000  C
  C1200    1.0000 0.50000  0.22490  0.17670  Biso   1.000  C
  C1201    1.0000 0.50000  0.20430  0.25580  Biso   1.000  C
  C1202    1.0000 0.50000  0.21030  0.22640  Biso   1.000  C
  C1203    1.0000 0.50000  0.21480  0.35515  Biso   1.000  C
  C1204    1.0000 0.50000  0.27000  0.37740  Biso   1.000  C
  C1205    1.0000 0.50000  0.29580  0.38980  Biso   1.000  C
  C1206    1.0000 0.50000  0.34120  0.40880  Biso   1.000  C
  C1207    1.0000 0.50000  0.31450  0.39860  Biso   1.000  C
  C1208    1.0000 0.50000  0.39620  0.43540  Biso   1.000  C
  C1209    1.0000 0.50000  0.42400  0.44630  Biso   1.000  C
  O206     1.0000 0.50000  0.47721  0.45688  Biso   1.000  O
  O207     1.0000 0.50000  0.72192  0.95954  Biso   1.000  O
  C1210    1.0000 0.50000  0.80960  0.68770  Biso   1.000  C
  C1211    1.0000 0.50000  0.75494  0.90954  Biso   1.000  C
  C1212    1.0000 0.50000  0.76210  0.87990  Biso   1.000  C
  C1213    1.0000 0.50000  0.81256  0.65655  Biso   1.000  C
  C1214    1.0000 0.50000  0.78420  0.79660  Biso   1.000  C
  C1215    1.0000 0.50000  0.77510  0.82330  Biso   1.000  C
  C1216    1.0000 0.50000  0.79570  0.74420  Biso   1.000  C
  C1217    1.0000 0.50000  0.78970  0.77360  Biso   1.000  C
  C1218    1.0000 0.50000  0.78520  0.64485  Biso   1.000  C
  C1219    1.0000 0.50000  0.73000  0.62260  Biso   1.000  C
  C1220    1.0000 0.50000  0.70420  0.61020  Biso   1.000  C
  C1221    1.0000 0.50000  0.65880  0.59120  Biso   1.000  C
  C1222    1.0000 0.50000  0.68550  0.60140  Biso   1.000  C
  C1223    1.0000 0.50000  0.60380  0.56460  Biso   1.000  C
  C1224    1.0000 0.50000  0.57600  0.55370  Biso   1.000  C
  O208     1.0000 0.50000  0.52279  0.54312  Biso   1.000  O
  O209     1.0000 0.04046  0.50000  0.72192  Biso   1.000  O
  C1225    1.0000 0.31230  0.50000  0.80960  Biso   1.000  C
  C1226    1.0000 0.09046  0.50000  0.75494  Biso   1.000  C
  C1227    1.0000 0.12010  0.50000  0.76210  Biso   1.000  C
  C1228    1.0000 0.34345  0.50000  0.81256  Biso   1.000  C
  C1229    1.0000 0.20340  0.50000  0.78420  Biso   1.000  C
  C1230    1.0000 0.17670  0.50000  0.77510  Biso   1.000  C
  C1231    1.0000 0.25580  0.50000  0.79570  Biso   1.000  C
  C1232    1.0000 0.22640  0.50000  0.78970  Biso   1.000  C
  C1233    1.0000 0.35515  0.50000  0.78520  Biso   1.000  C
  C1234    1.0000 0.37740  0.50000  0.73000  Biso   1.000  C
  C1235    1.0000 0.38980  0.50000  0.70420  Biso   1.000  C
  C1236    1.0000 0.40880  0.50000  0.65880  Biso   1.000  C
  C1237    1.0000 0.39860  0.50000  0.68550  Biso   1.000  C
  C1238    1.0000 0.43540  0.50000  0.60380  Biso   1.000  C
  C1239    1.0000 0.44630  0.50000  0.57600  Biso   1.000  C
  O210     1.0000 0.45688  0.50000  0.52279  Biso   1.000  O
  O211     1.0000 0.95954  0.50000  0.27808  Biso   1.000  O
  C1240    1.0000 0.68770  0.50000  0.19040  Biso   1.000  C
  C1241    1.0000 0.90954  0.50000  0.24506  Biso   1.000  C
  C1242    1.0000 0.87990  0.50000  0.23790  Biso   1.000  C
  C1243    1.0000 0.65655  0.50000  0.18744  Biso   1.000  C
  C1244    1.0000 0.79660  0.50000  0.21580  Biso   1.000  C
  C1245    1.0000 0.82330  0.50000  0.22490  Biso   1.000  C
  C1246    1.0000 0.74420  0.50000  0.20430  Biso   1.000  C
  C1247    1.0000 0.77360  0.50000  0.21030  Biso   1.000  C
  C1248    1.0000 0.64485  0.50000  0.21480  Biso   1.000  C
  C1249    1.0000 0.62260  0.50000  0.27000  Biso   1.000  C
  C1250    1.0000 0.61020  0.50000  0.29580  Biso   1.000  C
  C1251    1.0000 0.59120  0.50000  0.34120  Biso   1.000  C
  C1252    1.0000 0.60140  0.50000  0.31450  Biso   1.000  C
  C1253    1.0000 0.56460  0.50000  0.39620  Biso   1.000  C
  C1254    1.0000 0.55370  0.50000  0.42400  Biso   1.000  C
  O212     1.0000 0.54312  0.50000  0.47721  Biso   1.000  O
  O213     1.0000 0.04046  0.50000  0.27808  Biso   1.000  O
  C1255    1.0000 0.31230  0.50000  0.19040  Biso   1.000  C
  C1256    1.0000 0.09046  0.50000  0.24506  Biso   1.000  C
  C1257    1.0000 0.12010  0.50000  0.23790  Biso   1.000  C
  C1258    1.0000 0.34345  0.50000  0.18744  Biso   1.000  C
  C1259    1.0000 0.20340  0.50000  0.21580  Biso   1.000  C
  C1260    1.0000 0.17670  0.50000  0.22490  Biso   1.000  C
  C1261    1.0000 0.25580  0.50000  0.20430  Biso   1.000  C
  C1262    1.0000 0.22640  0.50000  0.21030  Biso   1.000  C
  C1263    1.0000 0.35515  0.50000  0.21480  Biso   1.000  C
  C1264    1.0000 0.37740  0.50000  0.27000  Biso   1.000  C
  C1265    1.0000 0.38980  0.50000  0.29580  Biso   1.000  C
  C1266    1.0000 0.40880  0.50000  0.34120  Biso   1.000  C
  C1267    1.0000 0.39860  0.50000  0.31450  Biso   1.000  C
  C1268    1.0000 0.43540  0.50000  0.39620  Biso   1.000  C
  C1269    1.0000 0.44630  0.50000  0.42400  Biso   1.000  C
  O214     1.0000 0.45688  0.50000  0.47721  Biso   1.000  O
  O215     1.0000 0.95954  0.50000  0.72192  Biso   1.000  O
  C1270    1.0000 0.68770  0.50000  0.80960  Biso   1.000  C
  C1271    1.0000 0.90954  0.50000  0.75494  Biso   1.000  C
  C1272    1.0000 0.87990  0.50000  0.76210  Biso   1.000  C
  C1273    1.0000 0.65655  0.50000  0.81256  Biso   1.000  C
  C1274    1.0000 0.79660  0.50000  0.78420  Biso   1.000  C
  C1275    1.0000 0.82330  0.50000  0.77510  Biso   1.000  C
  C1276    1.0000 0.74420  0.50000  0.79570  Biso   1.000  C
  C1277    1.0000 0.77360  0.50000  0.78970  Biso   1.000  C
  C1278    1.0000 0.64485  0.50000  0.78520  Biso   1.000  C
  C1279    1.0000 0.62260  0.50000  0.73000  Biso   1.000  C
  C1280    1.0000 0.61020  0.50000  0.70420  Biso   1.000  C
  C1281    1.0000 0.59120  0.50000  0.65880  Biso   1.000  C
  C1282    1.0000 0.60140  0.50000  0.68550  Biso   1.000  C
  C1283    1.0000 0.56460  0.50000  0.60380  Biso   1.000  C
  C1284    1.0000 0.55370  0.50000  0.57600  Biso   1.000  C
  O216     1.0000 0.54312  0.50000  0.52279  Biso   1.000  O
  O217     1.0000 0.54046  0.22192  0.00000  Biso   1.000  O
  C1285    1.0000 0.81230  0.30960  0.00000  Biso   1.000  C
  C1286    1.0000 0.59046  0.25494  0.00000  Biso   1.000  C
  C1287    1.0000 0.62010  0.26210  0.00000  Biso   1.000  C
  C1288    1.0000 0.84345  0.31256  0.00000  Biso   1.000  C
  C1289    1.0000 0.70340  0.28420  0.00000  Biso   1.000  C
  C1290    1.0000 0.67670  0.27510  0.00000  Biso   1.000  C
  C1291    1.0000 0.75580  0.29570  0.00000  Biso   1.000  C
  C1292    1.0000 0.72640  0.28970  0.00000  Biso   1.000  C
  C1293    1.0000 0.85515  0.28520  0.00000  Biso   1.000  C
  C1294    1.0000 0.87740  0.23000  0.00000  Biso   1.000  C
  C1295    1.0000 0.88980  0.20420  0.00000  Biso   1.000  C
  C1296    1.0000 0.90880  0.15880  0.00000  Biso   1.000  C
  C1297    1.0000 0.89860  0.18550  0.00000  Biso   1.000  C
  C1298    1.0000 0.93540  0.10380  0.00000  Biso   1.000  C
  C1299    1.0000 0.94630  0.07600  0.00000  Biso   1.000  C
  O218     1.0000 0.95688  0.02279  0.00000  Biso   1.000  O
  O219     1.0000 0.45954  0.77808  0.00000  Biso   1.000  O
  C1300    1.0000 0.18770  0.69040  0.00000  Biso   1.000  C
  C1301    1.0000 0.40954  0.74506  0.00000  Biso   1.000  C
  C1302    1.0000 0.37990  0.73790  0.00000  Biso   1.000  C
  C1303    1.0000 0.15655  0.68744  0.00000  Biso   1.000  C
  C1304    1.0000 0.29660  0.71580  0.00000  Biso   1.000  C
  C1305    1.0000 0.32330  0.72490  0.00000  Biso   1.000  C
  C1306    1.0000 0.24420  0.70430  0.00000  Biso   1.000  C
  C1307    1.0000 0.27360  0.71030  0.00000  Biso   1.000  C
  C1308    1.0000 0.14485  0.71480  0.00000  Biso   1.000  C
  C1309    1.0000 0.12260  0.77000  0.00000  Biso   1.000  C
  C1310    1.0000 0.11020  0.79580  0.00000  Biso   1.000  C
  C1311    1.0000 0.09120  0.84120  0.00000  Biso   1.000  C
  C1312    1.0000 0.10140  0.81450  0.00000  Biso   1.000  C
  C1313    1.0000 0.06460  0.89620  0.00000  Biso   1.000  C
  C1314    1.0000 0.05370  0.92400  0.00000  Biso   1.000  C
  O220     1.0000 0.04312  0.97721  0.00000  Biso   1.000  O
  O221     1.0000 0.54046  0.77808  0.00000  Biso   1.000  O
  C1315    1.0000 0.81230  0.69040  0.00000  Biso   1.000  C
  C1316    1.0000 0.59046  0.74506  0.00000  Biso   1.000  C
  C1317    1.0000 0.62010  0.73790  0.00000  Biso   1.000  C
  C1318    1.0000 0.84345  0.68744  0.00000  Biso   1.000  C
  C1319    1.0000 0.70340  0.71580  0.00000  Biso   1.000  C
  C1320    1.0000 0.67670  0.72490  0.00000  Biso   1.000  C
  C1321    1.0000 0.75580  0.70430  0.00000  Biso   1.000  C
  C1322    1.0000 0.72640  0.71030  0.00000  Biso   1.000  C
  C1323    1.0000 0.85515  0.71480  0.00000  Biso   1.000  C
  C1324    1.0000 0.87740  0.77000  0.00000  Biso   1.000  C
  C1325    1.0000 0.88980  0.79580  0.00000  Biso   1.000  C
  C1326    1.0000 0.90880  0.84120  0.00000  Biso   1.000  C
  C1327    1.0000 0.89860  0.81450  0.00000  Biso   1.000  C
  C1328    1.0000 0.93540  0.89620  0.00000  Biso   1.000  C
  C1329    1.0000 0.94630  0.92400  0.00000  Biso   1.000  C
  O222     1.0000 0.95688  0.97721  0.00000  Biso   1.000  O
  O223     1.0000 0.45954  0.22192  0.00000  Biso   1.000  O
  C1330    1.0000 0.18770  0.30960  0.00000  Biso   1.000  C
  C1331    1.0000 0.40954  0.25494  0.00000  Biso   1.000  C
  C1332    1.0000 0.37990  0.26210  0.00000  Biso   1.000  C
  C1333    1.0000 0.15655  0.31256  0.00000  Biso   1.000  C
  C1334    1.0000 0.29660  0.28420  0.00000  Biso   1.000  C
  C1335    1.0000 0.32330  0.27510  0.00000  Biso   1.000  C
  C1336    1.0000 0.24420  0.29570  0.00000  Biso   1.000  C
  C1337    1.0000 0.27360  0.28970  0.00000  Biso   1.000  C
  C1338    1.0000 0.14485  0.28520  0.00000  Biso   1.000  C
  C1339    1.0000 0.12260  0.23000  0.00000  Biso   1.000  C
  C1340    1.0000 0.11020  0.20420  0.00000  Biso   1.000  C
  C1341    1.0000 0.09120  0.15880  0.00000  Biso   1.000  C
  C1342    1.0000 0.10140  0.18550  0.00000  Biso   1.000  C
  C1343    1.0000 0.06460  0.10380  0.00000  Biso   1.000  C
  C1344    1.0000 0.05370  0.07600  0.00000  Biso   1.000  C
  O224     1.0000 0.04312  0.02279  0.00000  Biso   1.000  O
  O225     1.0000 0.22192  0.00000  0.45954  Biso   1.000  O
  C1345    1.0000 0.30960  0.00000  0.18770  Biso   1.000  C
  C1346    1.0000 0.25494  0.00000  0.40954  Biso   1.000  C
  C1347    1.0000 0.26210  0.00000  0.37990  Biso   1.000  C
  C1348    1.0000 0.31256  0.00000  0.15655  Biso   1.000  C
  C1349    1.0000 0.28420  0.00000  0.29660  Biso   1.000  C
  C1350    1.0000 0.27510  0.00000  0.32330  Biso   1.000  C
  C1351    1.0000 0.29570  0.00000  0.24420  Biso   1.000  C
  C1352    1.0000 0.28970  0.00000  0.27360  Biso   1.000  C
  C1353    1.0000 0.28520  0.00000  0.14485  Biso   1.000  C
  C1354    1.0000 0.23000  0.00000  0.12260  Biso   1.000  C
  C1355    1.0000 0.20420  0.00000  0.11020  Biso   1.000  C
  C1356    1.0000 0.15880  0.00000  0.09120  Biso   1.000  C
  C1357    1.0000 0.18550  0.00000  0.10140  Biso   1.000  C
  C1358    1.0000 0.10380  0.00000  0.06460  Biso   1.000  C
  C1359    1.0000 0.07600  0.00000  0.05370  Biso   1.000  C
  O226     1.0000 0.02279  0.00000  0.04312  Biso   1.000  O
  O227     1.0000 0.77808  0.00000  0.54046  Biso   1.000  O
  C1360    1.0000 0.69040  0.00000  0.81230  Biso   1.000  C
  C1361    1.0000 0.74506  0.00000  0.59046  Biso   1.000  C
  C1362    1.0000 0.73790  0.00000  0.62010  Biso   1.000  C
  C1363    1.0000 0.68744  0.00000  0.84345  Biso   1.000  C
  C1364    1.0000 0.71580  0.00000  0.70340  Biso   1.000  C
  C1365    1.0000 0.72490  0.00000  0.67670  Biso   1.000  C
  C1366    1.0000 0.70430  0.00000  0.75580  Biso   1.000  C
  C1367    1.0000 0.71030  0.00000  0.72640  Biso   1.000  C
  C1368    1.0000 0.71480  0.00000  0.85515  Biso   1.000  C
  C1369    1.0000 0.77000  0.00000  0.87740  Biso   1.000  C
  C1370    1.0000 0.79580  0.00000  0.88980  Biso   1.000  C
  C1371    1.0000 0.84120  0.00000  0.90880  Biso   1.000  C
  C1372    1.0000 0.81450  0.00000  0.89860  Biso   1.000  C
  C1373    1.0000 0.89620  0.00000  0.93540  Biso   1.000  C
  C1374    1.0000 0.92400  0.00000  0.94630  Biso   1.000  C
  O228     1.0000 0.97721  0.00000  0.95688  Biso   1.000  O
  O229     1.0000 0.77808  0.00000  0.45954  Biso   1.000  O
  C1375    1.0000 0.69040  0.00000  0.18770  Biso   1.000  C
  C1376    1.0000 0.74506  0.00000  0.40954  Biso   1.000  C
  C1377    1.0000 0.73790  0.00000  0.37990  Biso   1.000  C
  C1378    1.0000 0.68744  0.00000  0.15655  Biso   1.000  C
  C1379    1.0000 0.71580  0.00000  0.29660  Biso   1.000  C
  C1380    1.0000 0.72490  0.00000  0.32330  Biso   1.000  C
  C1381    1.0000 0.70430  0.00000  0.24420  Biso   1.000  C
  C1382    1.0000 0.71030  0.00000  0.27360  Biso   1.000  C
  C1383    1.0000 0.71480  0.00000  0.14485  Biso   1.000  C
  C1384    1.0000 0.77000  0.00000  0.12260  Biso   1.000  C
  C1385    1.0000 0.79580  0.00000  0.11020  Biso   1.000  C
  C1386    1.0000 0.84120  0.00000  0.09120  Biso   1.000  C
  C1387    1.0000 0.81450  0.00000  0.10140  Biso   1.000  C
  C1388    1.0000 0.89620  0.00000  0.06460  Biso   1.000  C
  C1389    1.0000 0.92400  0.00000  0.05370  Biso   1.000  C
  O230     1.0000 0.97721  0.00000  0.04312  Biso   1.000  O
  O231     1.0000 0.22192  0.00000  0.54046  Biso   1.000  O
  C1390    1.0000 0.30960  0.00000  0.81230  Biso   1.000  C
  C1391    1.0000 0.25494  0.00000  0.59046  Biso   1.000  C
  C1392    1.0000 0.26210  0.00000  0.62010  Biso   1.000  C
  C1393    1.0000 0.31256  0.00000  0.84345  Biso   1.000  C
  C1394    1.0000 0.28420  0.00000  0.70340  Biso   1.000  C
  C1395    1.0000 0.27510  0.00000  0.67670  Biso   1.000  C
  C1396    1.0000 0.29570  0.00000  0.75580  Biso   1.000  C
  C1397    1.0000 0.28970  0.00000  0.72640  Biso   1.000  C
  C1398    1.0000 0.28520  0.00000  0.85515  Biso   1.000  C
  C1399    1.0000 0.23000  0.00000  0.87740  Biso   1.000  C
  C1400    1.0000 0.20420  0.00000  0.88980  Biso   1.000  C
  C1401    1.0000 0.15880  0.00000  0.90880  Biso   1.000  C
  C1402    1.0000 0.18550  0.00000  0.89860  Biso   1.000  C
  C1403    1.0000 0.10380  0.00000  0.93540  Biso   1.000  C
  C1404    1.0000 0.07600  0.00000  0.94630  Biso   1.000  C
  O232     1.0000 0.02279  0.00000  0.95688  Biso   1.000  O
  O233     1.0000 0.00000  0.54046  0.77808  Biso   1.000  O
  C1405    1.0000 0.00000  0.81230  0.69040  Biso   1.000  C
  C1406    1.0000 0.00000  0.59046  0.74506  Biso   1.000  C
  C1407    1.0000 0.00000  0.62010  0.73790  Biso   1.000  C
  C1408    1.0000 0.00000  0.84345  0.68744  Biso   1.000  C
  C1409    1.0000 0.00000  0.70340  0.71580  Biso   1.000  C
  C1410    1.0000 0.00000  0.67670  0.72490  Biso   1.000  C
  C1411    1.0000 0.00000  0.75580  0.70430  Biso   1.000  C
  C1412    1.0000 0.00000  0.72640  0.71030  Biso   1.000  C
  C1413    1.0000 0.00000  0.85515  0.71480  Biso   1.000  C
  C1414    1.0000 0.00000  0.87740  0.77000  Biso   1.000  C
  C1415    1.0000 0.00000  0.88980  0.79580  Biso   1.000  C
  C1416    1.0000 0.00000  0.90880  0.84120  Biso   1.000  C
  C1417    1.0000 0.00000  0.89860  0.81450  Biso   1.000  C
  C1418    1.0000 0.00000  0.93540  0.89620  Biso   1.000  C
  C1419    1.0000 0.00000  0.94630  0.92400  Biso   1.000  C
  O234     1.0000 0.00000  0.95688  0.97721  Biso   1.000  O
  O235     1.0000 0.00000  0.45954  0.22192  Biso   1.000  O
  C1420    1.0000 0.00000  0.18770  0.30960  Biso   1.000  C
  C1421    1.0000 0.00000  0.40954  0.25494  Biso   1.000  C
  C1422    1.0000 0.00000  0.37990  0.26210  Biso   1.000  C
  C1423    1.0000 0.00000  0.15655  0.31256  Biso   1.000  C
  C1424    1.0000 0.00000  0.29660  0.28420  Biso   1.000  C
  C1425    1.0000 0.00000  0.32330  0.27510  Biso   1.000  C
  C1426    1.0000 0.00000  0.24420  0.29570  Biso   1.000  C
  C1427    1.0000 0.00000  0.27360  0.28970  Biso   1.000  C
  C1428    1.0000 0.00000  0.14485  0.28520  Biso   1.000  C
  C1429    1.0000 0.00000  0.12260  0.23000  Biso   1.000  C
  C1430    1.0000 0.00000  0.11020  0.20420  Biso   1.000  C
  C1431    1.0000 0.00000  0.09120  0.15880  Biso   1.000  C
  C1432    1.0000 0.00000  0.10140  0.18550  Biso   1.000  C
  C1433    1.0000 0.00000  0.06460  0.10380  Biso   1.000  C
  C1434    1.0000 0.00000  0.05370  0.07600  Biso   1.000  C
  O236     1.0000 0.00000  0.04312  0.02279  Biso   1.000  O
  O237     1.0000 0.00000  0.54046  0.22192  Biso   1.000  O
  C1435    1.0000 0.00000  0.81230  0.30960  Biso   1.000  C
  C1436    1.0000 0.00000  0.59046  0.25494  Biso   1.000  C
  C1437    1.0000 0.00000  0.62010  0.26210  Biso   1.000  C
  C1438    1.0000 0.00000  0.84345  0.31256  Biso   1.000  C
  C1439    1.0000 0.00000  0.70340  0.28420  Biso   1.000  C
  C1440    1.0000 0.00000  0.67670  0.27510  Biso   1.000  C
  C1441    1.0000 0.00000  0.75580  0.29570  Biso   1.000  C
  C1442    1.0000 0.00000  0.72640  0.28970  Biso   1.000  C
  C1443    1.0000 0.00000  0.85515  0.28520  Biso   1.000  C
  C1444    1.0000 0.00000  0.87740  0.23000  Biso   1.000  C
  C1445    1.0000 0.00000  0.88980  0.20420  Biso   1.000  C
  C1446    1.0000 0.00000  0.90880  0.15880  Biso   1.000  C
  C1447    1.0000 0.00000  0.89860  0.18550  Biso   1.000  C
  C1448    1.0000 0.00000  0.93540  0.10380  Biso   1.000  C
  C1449    1.0000 0.00000  0.94630  0.07600  Biso   1.000  C
  O238     1.0000 0.00000  0.95688  0.02279  Biso   1.000  O
  O239     1.0000 0.00000  0.45954  0.77808  Biso   1.000  O
  C1450    1.0000 0.00000  0.18770  0.69040  Biso   1.000  C
  C1451    1.0000 0.00000  0.40954  0.74506  Biso   1.000  C
  C1452    1.0000 0.00000  0.37990  0.73790  Biso   1.000  C
  C1453    1.0000 0.00000  0.15655  0.68744  Biso   1.000  C
  C1454    1.0000 0.00000  0.29660  0.71580  Biso   1.000  C
  C1455    1.0000 0.00000  0.32330  0.72490  Biso   1.000  C
  C1456    1.0000 0.00000  0.24420  0.70430  Biso   1.000  C
  C1457    1.0000 0.00000  0.27360  0.71030  Biso   1.000  C
  C1458    1.0000 0.00000  0.14485  0.71480  Biso   1.000  C
  C1459    1.0000 0.00000  0.12260  0.77000  Biso   1.000  C
  C1460    1.0000 0.00000  0.11020  0.79580  Biso   1.000  C
  C1461    1.0000 0.00000  0.09120  0.84120  Biso   1.000  C
  C1462    1.0000 0.00000  0.10140  0.81450  Biso   1.000  C
  C1463    1.0000 0.00000  0.06460  0.89620  Biso   1.000  C
  C1464    1.0000 0.00000  0.05370  0.92400  Biso   1.000  C
  O240     1.0000 0.00000  0.04312  0.97721  Biso   1.000  O
  O241     1.0000 0.72830  0.00000  0.53103  Biso   1.000  O
  O242     1.0000 0.27170  0.00000  0.53103  Biso   1.000  O
  O243     1.0000 0.27170  0.00000  0.46897  Biso   1.000  O
  O244     1.0000 0.72830  0.00000  0.46897  Biso   1.000  O
  O245     1.0000 0.53103  0.72830  0.00000  Biso   1.000  O
  O246     1.0000 0.53103  0.27170  0.00000  Biso   1.000  O
  O247     1.0000 0.46897  0.27170  0.00000  Biso   1.000  O
  O248     1.0000 0.46897  0.72830  0.00000  Biso   1.000  O
  O249     1.0000 0.00000  0.53103  0.72830  Biso   1.000  O
  O250     1.0000 0.00000  0.53103  0.27170  Biso   1.000  O
  O251     1.0000 0.00000  0.46897  0.27170  Biso   1.000  O
  O252     1.0000 0.00000  0.46897  0.72830  Biso   1.000  O
  O253     1.0000 0.50000  0.22830  0.96897  Biso   1.000  O
  O254     1.0000 0.50000  0.77170  0.96897  Biso   1.000  O
  O255     1.0000 0.50000  0.77170  0.03103  Biso   1.000  O
  O256     1.0000 0.50000  0.22830  0.03103  Biso   1.000  O
  O257     1.0000 0.22830  0.03103  0.50000  Biso   1.000  O
  O258     1.0000 0.77170  0.03103  0.50000  Biso   1.000  O
  O259     1.0000 0.77170  0.96897  0.50000  Biso   1.000  O
  O260     1.0000 0.22830  0.96897  0.50000  Biso   1.000  O
  O261     1.0000 0.03103  0.50000  0.77170  Biso   1.000  O
  O262     1.0000 0.03103  0.50000  0.22830  Biso   1.000  O
  O263     1.0000 0.96897  0.50000  0.22830  Biso   1.000  O
  O264     1.0000 0.96897  0.50000  0.77170  Biso   1.000  O
