data_image0
_cell_length_a       26.7213
_cell_length_b       26.7213
_cell_length_c       26.7213
_cell_angle_alpha    90
_cell_angle_beta     90
_cell_angle_gamma    90

_symmetry_space_group_name_H-M    "P 1"
_symmetry_int_tables_number       1

loop_
  _symmetry_equiv_pos_as_xyz
  'x, y, z'

loop_
  _atom_site_label
  _atom_site_occupancy
  _atom_site_fract_x
  _atom_site_fract_y
  _atom_site_fract_z
  _atom_site_thermal_displace_type
  _atom_site_B_iso_or_equiv
  _atom_site_type_symbol
  C1       1.0000 0.20600  0.14450  0.01200  Biso   1.000  C
  H1       1.0000 0.21190  0.10860  0.02160  Biso   1.000  H
  C2       1.0000 0.24220  0.18150  0.01280  Biso   1.000  C
  C3       1.0000 0.20600  0.64450  0.51200  Biso   1.000  C
  H2       1.0000 0.21190  0.60860  0.52160  Biso   1.000  H
  C4       1.0000 0.24220  0.68150  0.51280  Biso   1.000  C
  C5       1.0000 0.70600  0.14450  0.51200  Biso   1.000  C
  H3       1.0000 0.71190  0.10860  0.52160  Biso   1.000  H
  C6       1.0000 0.74220  0.18150  0.51280  Biso   1.000  C
  C7       1.0000 0.70600  0.64450  0.01200  Biso   1.000  C
  H4       1.0000 0.71190  0.60860  0.02160  Biso   1.000  H
  C8       1.0000 0.74220  0.68150  0.01280  Biso   1.000  C
  C9       1.0000 0.79400  0.85550  0.01200  Biso   1.000  C
  H5       1.0000 0.78810  0.89140  0.02160  Biso   1.000  H
  C10      1.0000 0.75780  0.81850  0.01280  Biso   1.000  C
  C11      1.0000 0.79400  0.35550  0.51200  Biso   1.000  C
  H6       1.0000 0.78810  0.39140  0.52160  Biso   1.000  H
  C12      1.0000 0.75780  0.31850  0.51280  Biso   1.000  C
  C13      1.0000 0.29400  0.85550  0.51200  Biso   1.000  C
  H7       1.0000 0.28810  0.89140  0.52160  Biso   1.000  H
  C14      1.0000 0.25780  0.81850  0.51280  Biso   1.000  C
  C15      1.0000 0.29400  0.35550  0.01200  Biso   1.000  C
  H8       1.0000 0.28810  0.39140  0.02160  Biso   1.000  H
  C16      1.0000 0.25780  0.31850  0.01280  Biso   1.000  C
  C17      1.0000 0.79400  0.14450  0.98800  Biso   1.000  C
  H9       1.0000 0.78810  0.10860  0.97840  Biso   1.000  H
  C18      1.0000 0.75780  0.18150  0.98720  Biso   1.000  C
  C19      1.0000 0.79400  0.64450  0.48800  Biso   1.000  C
  H10      1.0000 0.78810  0.60860  0.47840  Biso   1.000  H
  C20      1.0000 0.75780  0.68150  0.48720  Biso   1.000  C
  C21      1.0000 0.29400  0.14450  0.48800  Biso   1.000  C
  H11      1.0000 0.28810  0.10860  0.47840  Biso   1.000  H
  C22      1.0000 0.25780  0.18150  0.48720  Biso   1.000  C
  C23      1.0000 0.29400  0.64450  0.98800  Biso   1.000  C
  H12      1.0000 0.28810  0.60860  0.97840  Biso   1.000  H
  C24      1.0000 0.25780  0.68150  0.98720  Biso   1.000  C
  C25      1.0000 0.20600  0.85550  0.98800  Biso   1.000  C
  H13      1.0000 0.21190  0.89140  0.97840  Biso   1.000  H
  C26      1.0000 0.24220  0.81850  0.98720  Biso   1.000  C
  C27      1.0000 0.20600  0.35550  0.48800  Biso   1.000  C
  H14      1.0000 0.21190  0.39140  0.47840  Biso   1.000  H
  C28      1.0000 0.24220  0.31850  0.48720  Biso   1.000  C
  C29      1.0000 0.70600  0.85550  0.48800  Biso   1.000  C
  H15      1.0000 0.71190  0.89140  0.47840  Biso   1.000  H
  C30      1.0000 0.74220  0.81850  0.48720  Biso   1.000  C
  C31      1.0000 0.70600  0.35550  0.98800  Biso   1.000  C
  H16      1.0000 0.71190  0.39140  0.97840  Biso   1.000  H
  C32      1.0000 0.74220  0.31850  0.98720  Biso   1.000  C
  C33      1.0000 0.01200  0.20600  0.14450  Biso   1.000  C
  H17      1.0000 0.02160  0.21190  0.10860  Biso   1.000  H
  C34      1.0000 0.01280  0.24220  0.18150  Biso   1.000  C
  C35      1.0000 0.01200  0.70600  0.64450  Biso   1.000  C
  H18      1.0000 0.02160  0.71190  0.60860  Biso   1.000  H
  C36      1.0000 0.01280  0.74220  0.68150  Biso   1.000  C
  C37      1.0000 0.51200  0.20600  0.64450  Biso   1.000  C
  H19      1.0000 0.52160  0.21190  0.60860  Biso   1.000  H
  C38      1.0000 0.51280  0.24220  0.68150  Biso   1.000  C
  C39      1.0000 0.51200  0.70600  0.14450  Biso   1.000  C
  H20      1.0000 0.52160  0.71190  0.10860  Biso   1.000  H
  C40      1.0000 0.51280  0.74220  0.18150  Biso   1.000  C
  C41      1.0000 0.01200  0.79400  0.85550  Biso   1.000  C
  H21      1.0000 0.02160  0.78810  0.89140  Biso   1.000  H
  C42      1.0000 0.01280  0.75780  0.81850  Biso   1.000  C
  C43      1.0000 0.01200  0.29400  0.35550  Biso   1.000  C
  H22      1.0000 0.02160  0.28810  0.39140  Biso   1.000  H
  C44      1.0000 0.01280  0.25780  0.31850  Biso   1.000  C
  C45      1.0000 0.51200  0.79400  0.35550  Biso   1.000  C
  H23      1.0000 0.52160  0.78810  0.39140  Biso   1.000  H
  C46      1.0000 0.51280  0.75780  0.31850  Biso   1.000  C
  C47      1.0000 0.51200  0.29400  0.85550  Biso   1.000  C
  H24      1.0000 0.52160  0.28810  0.89140  Biso   1.000  H
  C48      1.0000 0.51280  0.25780  0.81850  Biso   1.000  C
  C49      1.0000 0.98800  0.79400  0.14450  Biso   1.000  C
  H25      1.0000 0.97840  0.78810  0.10860  Biso   1.000  H
  C50      1.0000 0.98720  0.75780  0.18150  Biso   1.000  C
  C51      1.0000 0.98800  0.29400  0.64450  Biso   1.000  C
  H26      1.0000 0.97840  0.28810  0.60860  Biso   1.000  H
  C52      1.0000 0.98720  0.25780  0.68150  Biso   1.000  C
  C53      1.0000 0.48800  0.79400  0.64450  Biso   1.000  C
  H27      1.0000 0.47840  0.78810  0.60860  Biso   1.000  H
  C54      1.0000 0.48720  0.75780  0.68150  Biso   1.000  C
  C55      1.0000 0.48800  0.29400  0.14450  Biso   1.000  C
  H28      1.0000 0.47840  0.28810  0.10860  Biso   1.000  H
  C56      1.0000 0.48720  0.25780  0.18150  Biso   1.000  C
  C57      1.0000 0.98800  0.20600  0.85550  Biso   1.000  C
  H29      1.0000 0.97840  0.21190  0.89140  Biso   1.000  H
  C58      1.0000 0.98720  0.24220  0.81850  Biso   1.000  C
  C59      1.0000 0.98800  0.70600  0.35550  Biso   1.000  C
  H30      1.0000 0.97840  0.71190  0.39140  Biso   1.000  H
  C60      1.0000 0.98720  0.74220  0.31850  Biso   1.000  C
  C61      1.0000 0.48800  0.20600  0.35550  Biso   1.000  C
  H31      1.0000 0.47840  0.21190  0.39140  Biso   1.000  H
  C62      1.0000 0.48720  0.24220  0.31850  Biso   1.000  C
  C63      1.0000 0.48800  0.70600  0.85550  Biso   1.000  C
  H32      1.0000 0.47840  0.71190  0.89140  Biso   1.000  H
  C64      1.0000 0.48720  0.74220  0.81850  Biso   1.000  C
  C65      1.0000 0.14450  0.01200  0.20600  Biso   1.000  C
  H33      1.0000 0.10860  0.02160  0.21190  Biso   1.000  H
  C66      1.0000 0.18150  0.01280  0.24220  Biso   1.000  C
  C67      1.0000 0.14450  0.51200  0.70600  Biso   1.000  C
  H34      1.0000 0.10860  0.52160  0.71190  Biso   1.000  H
  C68      1.0000 0.18150  0.51280  0.74220  Biso   1.000  C
  C69      1.0000 0.64450  0.01200  0.70600  Biso   1.000  C
  H35      1.0000 0.60860  0.02160  0.71190  Biso   1.000  H
  C70      1.0000 0.68150  0.01280  0.74220  Biso   1.000  C
  C71      1.0000 0.64450  0.51200  0.20600  Biso   1.000  C
  H36      1.0000 0.60860  0.52160  0.21190  Biso   1.000  H
  C72      1.0000 0.68150  0.51280  0.24220  Biso   1.000  C
  C73      1.0000 0.85550  0.01200  0.79400  Biso   1.000  C
  H37      1.0000 0.89140  0.02160  0.78810  Biso   1.000  H
  C74      1.0000 0.81850  0.01280  0.75780  Biso   1.000  C
  C75      1.0000 0.85550  0.51200  0.29400  Biso   1.000  C
  H38      1.0000 0.89140  0.52160  0.28810  Biso   1.000  H
  C76      1.0000 0.81850  0.51280  0.25780  Biso   1.000  C
  C77      1.0000 0.35550  0.01200  0.29400  Biso   1.000  C
  H39      1.0000 0.39140  0.02160  0.28810  Biso   1.000  H
  C78      1.0000 0.31850  0.01280  0.25780  Biso   1.000  C
  C79      1.0000 0.35550  0.51200  0.79400  Biso   1.000  C
  H40      1.0000 0.39140  0.52160  0.78810  Biso   1.000  H
  C80      1.0000 0.31850  0.51280  0.75780  Biso   1.000  C
  C81      1.0000 0.14450  0.98800  0.79400  Biso   1.000  C
  H41      1.0000 0.10860  0.97840  0.78810  Biso   1.000  H
  C82      1.0000 0.18150  0.98720  0.75780  Biso   1.000  C
  C83      1.0000 0.14450  0.48800  0.29400  Biso   1.000  C
  H42      1.0000 0.10860  0.47840  0.28810  Biso   1.000  H
  C84      1.0000 0.18150  0.48720  0.25780  Biso   1.000  C
  C85      1.0000 0.64450  0.98800  0.29400  Biso   1.000  C
  H43      1.0000 0.60860  0.97840  0.28810  Biso   1.000  H
  C86      1.0000 0.68150  0.98720  0.25780  Biso   1.000  C
  C87      1.0000 0.64450  0.48800  0.79400  Biso   1.000  C
  H44      1.0000 0.60860  0.47840  0.78810  Biso   1.000  H
  C88      1.0000 0.68150  0.48720  0.75780  Biso   1.000  C
  C89      1.0000 0.85550  0.98800  0.20600  Biso   1.000  C
  H45      1.0000 0.89140  0.97840  0.21190  Biso   1.000  H
  C90      1.0000 0.81850  0.98720  0.24220  Biso   1.000  C
  C91      1.0000 0.85550  0.48800  0.70600  Biso   1.000  C
  H46      1.0000 0.89140  0.47840  0.71190  Biso   1.000  H
  C92      1.0000 0.81850  0.48720  0.74220  Biso   1.000  C
  C93      1.0000 0.35550  0.98800  0.70600  Biso   1.000  C
  H47      1.0000 0.39140  0.97840  0.71190  Biso   1.000  H
  C94      1.0000 0.31850  0.98720  0.74220  Biso   1.000  C
  C95      1.0000 0.35550  0.48800  0.20600  Biso   1.000  C
  H48      1.0000 0.39140  0.47840  0.21190  Biso   1.000  H
  C96      1.0000 0.31850  0.48720  0.24220  Biso   1.000  C
  C97      1.0000 0.14450  0.20600  0.98800  Biso   1.000  C
  H49      1.0000 0.10860  0.21190  0.97840  Biso   1.000  H
  C98      1.0000 0.18150  0.24220  0.98720  Biso   1.000  C
  C99      1.0000 0.14450  0.70600  0.48800  Biso   1.000  C
  H50      1.0000 0.10860  0.71190  0.47840  Biso   1.000  H
  C100     1.0000 0.18150  0.74220  0.48720  Biso   1.000  C
  C101     1.0000 0.64450  0.20600  0.48800  Biso   1.000  C
  H51      1.0000 0.60860  0.21190  0.47840  Biso   1.000  H
  C102     1.0000 0.68150  0.24220  0.48720  Biso   1.000  C
  C103     1.0000 0.64450  0.70600  0.98800  Biso   1.000  C
  H52      1.0000 0.60860  0.71190  0.97840  Biso   1.000  H
  C104     1.0000 0.68150  0.74220  0.98720  Biso   1.000  C
  C105     1.0000 0.85550  0.79400  0.98800  Biso   1.000  C
  H53      1.0000 0.89140  0.78810  0.97840  Biso   1.000  H
  C106     1.0000 0.81850  0.75780  0.98720  Biso   1.000  C
  C107     1.0000 0.85550  0.29400  0.48800  Biso   1.000  C
  H54      1.0000 0.89140  0.28810  0.47840  Biso   1.000  H
  C108     1.0000 0.81850  0.25780  0.48720  Biso   1.000  C
  C109     1.0000 0.35550  0.79400  0.48800  Biso   1.000  C
  H55      1.0000 0.39140  0.78810  0.47840  Biso   1.000  H
  C110     1.0000 0.31850  0.75780  0.48720  Biso   1.000  C
  C111     1.0000 0.35550  0.29400  0.98800  Biso   1.000  C
  H56      1.0000 0.39140  0.28810  0.97840  Biso   1.000  H
  C112     1.0000 0.31850  0.25780  0.98720  Biso   1.000  C
  C113     1.0000 0.14450  0.79400  0.01200  Biso   1.000  C
  H57      1.0000 0.10860  0.78810  0.02160  Biso   1.000  H
  C114     1.0000 0.18150  0.75780  0.01280  Biso   1.000  C
  C115     1.0000 0.14450  0.29400  0.51200  Biso   1.000  C
  H58      1.0000 0.10860  0.28810  0.52160  Biso   1.000  H
  C116     1.0000 0.18150  0.25780  0.51280  Biso   1.000  C
  C117     1.0000 0.64450  0.79400  0.51200  Biso   1.000  C
  H59      1.0000 0.60860  0.78810  0.52160  Biso   1.000  H
  C118     1.0000 0.68150  0.75780  0.51280  Biso   1.000  C
  C119     1.0000 0.64450  0.29400  0.01200  Biso   1.000  C
  H60      1.0000 0.60860  0.28810  0.02160  Biso   1.000  H
  C120     1.0000 0.68150  0.25780  0.01280  Biso   1.000  C
  C121     1.0000 0.85550  0.20600  0.01200  Biso   1.000  C
  H61      1.0000 0.89140  0.21190  0.02160  Biso   1.000  H
  C122     1.0000 0.81850  0.24220  0.01280  Biso   1.000  C
  C123     1.0000 0.85550  0.70600  0.51200  Biso   1.000  C
  H62      1.0000 0.89140  0.71190  0.52160  Biso   1.000  H
  C124     1.0000 0.81850  0.74220  0.51280  Biso   1.000  C
  C125     1.0000 0.35550  0.20600  0.51200  Biso   1.000  C
  H63      1.0000 0.39140  0.21190  0.52160  Biso   1.000  H
  C126     1.0000 0.31850  0.24220  0.51280  Biso   1.000  C
  C127     1.0000 0.35550  0.70600  0.01200  Biso   1.000  C
  H64      1.0000 0.39140  0.71190  0.02160  Biso   1.000  H
  C128     1.0000 0.31850  0.74220  0.01280  Biso   1.000  C
  C129     1.0000 0.20600  0.01200  0.85550  Biso   1.000  C
  H65      1.0000 0.21190  0.02160  0.89140  Biso   1.000  H
  C130     1.0000 0.24220  0.01280  0.81850  Biso   1.000  C
  C131     1.0000 0.20600  0.51200  0.35550  Biso   1.000  C
  H66      1.0000 0.21190  0.52160  0.39140  Biso   1.000  H
  C132     1.0000 0.24220  0.51280  0.31850  Biso   1.000  C
  C133     1.0000 0.70600  0.01200  0.35550  Biso   1.000  C
  H67      1.0000 0.71190  0.02160  0.39140  Biso   1.000  H
  C134     1.0000 0.74220  0.01280  0.31850  Biso   1.000  C
  C135     1.0000 0.70600  0.51200  0.85550  Biso   1.000  C
  H68      1.0000 0.71190  0.52160  0.89140  Biso   1.000  H
  C136     1.0000 0.74220  0.51280  0.81850  Biso   1.000  C
  C137     1.0000 0.79400  0.01200  0.14450  Biso   1.000  C
  H69      1.0000 0.78810  0.02160  0.10860  Biso   1.000  H
  C138     1.0000 0.75780  0.01280  0.18150  Biso   1.000  C
  C139     1.0000 0.79400  0.51200  0.64450  Biso   1.000  C
  H70      1.0000 0.78810  0.52160  0.60860  Biso   1.000  H
  C140     1.0000 0.75780  0.51280  0.68150  Biso   1.000  C
  C141     1.0000 0.29400  0.01200  0.64450  Biso   1.000  C
  H71      1.0000 0.28810  0.02160  0.60860  Biso   1.000  H
  C142     1.0000 0.25780  0.01280  0.68150  Biso   1.000  C
  C143     1.0000 0.29400  0.51200  0.14450  Biso   1.000  C
  H72      1.0000 0.28810  0.52160  0.10860  Biso   1.000  H
  C144     1.0000 0.25780  0.51280  0.18150  Biso   1.000  C
  C145     1.0000 0.79400  0.98800  0.85550  Biso   1.000  C
  H73      1.0000 0.78810  0.97840  0.89140  Biso   1.000  H
  C146     1.0000 0.75780  0.98720  0.81850  Biso   1.000  C
  C147     1.0000 0.79400  0.48800  0.35550  Biso   1.000  C
  H74      1.0000 0.78810  0.47840  0.39140  Biso   1.000  H
  C148     1.0000 0.75780  0.48720  0.31850  Biso   1.000  C
  C149     1.0000 0.29400  0.98800  0.35550  Biso   1.000  C
  H75      1.0000 0.28810  0.97840  0.39140  Biso   1.000  H
  C150     1.0000 0.25780  0.98720  0.31850  Biso   1.000  C
  C151     1.0000 0.29400  0.48800  0.85550  Biso   1.000  C
  H76      1.0000 0.28810  0.47840  0.89140  Biso   1.000  H
  C152     1.0000 0.25780  0.48720  0.81850  Biso   1.000  C
  C153     1.0000 0.20600  0.98800  0.14450  Biso   1.000  C
  H77      1.0000 0.21190  0.97840  0.10860  Biso   1.000  H
  C154     1.0000 0.24220  0.98720  0.18150  Biso   1.000  C
  C155     1.0000 0.20600  0.48800  0.64450  Biso   1.000  C
  H78      1.0000 0.21190  0.47840  0.60860  Biso   1.000  H
  C156     1.0000 0.24220  0.48720  0.68150  Biso   1.000  C
  C157     1.0000 0.70600  0.98800  0.64450  Biso   1.000  C
  H79      1.0000 0.71190  0.97840  0.60860  Biso   1.000  H
  C158     1.0000 0.74220  0.98720  0.68150  Biso   1.000  C
  C159     1.0000 0.70600  0.48800  0.14450  Biso   1.000  C
  H80      1.0000 0.71190  0.47840  0.10860  Biso   1.000  H
  C160     1.0000 0.74220  0.48720  0.18150  Biso   1.000  C
  C161     1.0000 0.01200  0.14450  0.79400  Biso   1.000  C
  H81      1.0000 0.02160  0.10860  0.78810  Biso   1.000  H
  C162     1.0000 0.01280  0.18150  0.75780  Biso   1.000  C
  C163     1.0000 0.01200  0.64450  0.29400  Biso   1.000  C
  H82      1.0000 0.02160  0.60860  0.28810  Biso   1.000  H
  C164     1.0000 0.01280  0.68150  0.25780  Biso   1.000  C
  C165     1.0000 0.51200  0.14450  0.29400  Biso   1.000  C
  H83      1.0000 0.52160  0.10860  0.28810  Biso   1.000  H
  C166     1.0000 0.51280  0.18150  0.25780  Biso   1.000  C
  C167     1.0000 0.51200  0.64450  0.79400  Biso   1.000  C
  H84      1.0000 0.52160  0.60860  0.78810  Biso   1.000  H
  C168     1.0000 0.51280  0.68150  0.75780  Biso   1.000  C
  C169     1.0000 0.01200  0.85550  0.20600  Biso   1.000  C
  H85      1.0000 0.02160  0.89140  0.21190  Biso   1.000  H
  C170     1.0000 0.01280  0.81850  0.24220  Biso   1.000  C
  C171     1.0000 0.01200  0.35550  0.70600  Biso   1.000  C
  H86      1.0000 0.02160  0.39140  0.71190  Biso   1.000  H
  C172     1.0000 0.01280  0.31850  0.74220  Biso   1.000  C
  C173     1.0000 0.51200  0.85550  0.70600  Biso   1.000  C
  H87      1.0000 0.52160  0.89140  0.71190  Biso   1.000  H
  C174     1.0000 0.51280  0.81850  0.74220  Biso   1.000  C
  C175     1.0000 0.51200  0.35550  0.20600  Biso   1.000  C
  H88      1.0000 0.52160  0.39140  0.21190  Biso   1.000  H
  C176     1.0000 0.51280  0.31850  0.24220  Biso   1.000  C
  C177     1.0000 0.98800  0.14450  0.20600  Biso   1.000  C
  H89      1.0000 0.97840  0.10860  0.21190  Biso   1.000  H
  C178     1.0000 0.98720  0.18150  0.24220  Biso   1.000  C
  C179     1.0000 0.98800  0.64450  0.70600  Biso   1.000  C
  H90      1.0000 0.97840  0.60860  0.71190  Biso   1.000  H
  C180     1.0000 0.98720  0.68150  0.74220  Biso   1.000  C
  C181     1.0000 0.48800  0.14450  0.70600  Biso   1.000  C
  H91      1.0000 0.47840  0.10860  0.71190  Biso   1.000  H
  C182     1.0000 0.48720  0.18150  0.74220  Biso   1.000  C
  C183     1.0000 0.48800  0.64450  0.20600  Biso   1.000  C
  H92      1.0000 0.47840  0.60860  0.21190  Biso   1.000  H
  C184     1.0000 0.48720  0.68150  0.24220  Biso   1.000  C
  C185     1.0000 0.98800  0.85550  0.79400  Biso   1.000  C
  H93      1.0000 0.97840  0.89140  0.78810  Biso   1.000  H
  C186     1.0000 0.98720  0.81850  0.75780  Biso   1.000  C
  C187     1.0000 0.98800  0.35550  0.29400  Biso   1.000  C
  H94      1.0000 0.97840  0.39140  0.28810  Biso   1.000  H
  C188     1.0000 0.98720  0.31850  0.25780  Biso   1.000  C
  C189     1.0000 0.48800  0.85550  0.29400  Biso   1.000  C
  H95      1.0000 0.47840  0.89140  0.28810  Biso   1.000  H
  C190     1.0000 0.48720  0.81850  0.25780  Biso   1.000  C
  C191     1.0000 0.48800  0.35550  0.79400  Biso   1.000  C
  H96      1.0000 0.47840  0.39140  0.78810  Biso   1.000  H
  C192     1.0000 0.48720  0.31850  0.75780  Biso   1.000  C
  C193     1.0000 0.79400  0.85550  0.98800  Biso   1.000  C
  H97      1.0000 0.78810  0.89140  0.97840  Biso   1.000  H
  C194     1.0000 0.75780  0.81850  0.98720  Biso   1.000  C
  C195     1.0000 0.79400  0.35550  0.48800  Biso   1.000  C
  H98      1.0000 0.78810  0.39140  0.47840  Biso   1.000  H
  C196     1.0000 0.75780  0.31850  0.48720  Biso   1.000  C
  C197     1.0000 0.29400  0.85550  0.48800  Biso   1.000  C
  H99      1.0000 0.28810  0.89140  0.47840  Biso   1.000  H
  C198     1.0000 0.25780  0.81850  0.48720  Biso   1.000  C
  C199     1.0000 0.29400  0.35550  0.98800  Biso   1.000  C
  H100     1.0000 0.28810  0.39140  0.97840  Biso   1.000  H
  C200     1.0000 0.25780  0.31850  0.98720  Biso   1.000  C
  C201     1.0000 0.20600  0.14450  0.98800  Biso   1.000  C
  H101     1.0000 0.21190  0.10860  0.97840  Biso   1.000  H
  C202     1.0000 0.24220  0.18150  0.98720  Biso   1.000  C
  C203     1.0000 0.20600  0.64450  0.48800  Biso   1.000  C
  H102     1.0000 0.21190  0.60860  0.47840  Biso   1.000  H
  C204     1.0000 0.24220  0.68150  0.48720  Biso   1.000  C
  C205     1.0000 0.70600  0.14450  0.48800  Biso   1.000  C
  H103     1.0000 0.71190  0.10860  0.47840  Biso   1.000  H
  C206     1.0000 0.74220  0.18150  0.48720  Biso   1.000  C
  C207     1.0000 0.70600  0.64450  0.98800  Biso   1.000  C
  H104     1.0000 0.71190  0.60860  0.97840  Biso   1.000  H
  C208     1.0000 0.74220  0.68150  0.98720  Biso   1.000  C
  C209     1.0000 0.20600  0.85550  0.01200  Biso   1.000  C
  H105     1.0000 0.21190  0.89140  0.02160  Biso   1.000  H
  C210     1.0000 0.24220  0.81850  0.01280  Biso   1.000  C
  C211     1.0000 0.20600  0.35550  0.51200  Biso   1.000  C
  H106     1.0000 0.21190  0.39140  0.52160  Biso   1.000  H
  C212     1.0000 0.24220  0.31850  0.51280  Biso   1.000  C
  C213     1.0000 0.70600  0.85550  0.51200  Biso   1.000  C
  H107     1.0000 0.71190  0.89140  0.52160  Biso   1.000  H
  C214     1.0000 0.74220  0.81850  0.51280  Biso   1.000  C
  C215     1.0000 0.70600  0.35550  0.01200  Biso   1.000  C
  H108     1.0000 0.71190  0.39140  0.02160  Biso   1.000  H
  C216     1.0000 0.74220  0.31850  0.01280  Biso   1.000  C
  C217     1.0000 0.79400  0.14450  0.01200  Biso   1.000  C
  H109     1.0000 0.78810  0.10860  0.02160  Biso   1.000  H
  C218     1.0000 0.75780  0.18150  0.01280  Biso   1.000  C
  C219     1.0000 0.79400  0.64450  0.51200  Biso   1.000  C
  H110     1.0000 0.78810  0.60860  0.52160  Biso   1.000  H
  C220     1.0000 0.75780  0.68150  0.51280  Biso   1.000  C
  C221     1.0000 0.29400  0.14450  0.51200  Biso   1.000  C
  H111     1.0000 0.28810  0.10860  0.52160  Biso   1.000  H
  C222     1.0000 0.25780  0.18150  0.51280  Biso   1.000  C
  C223     1.0000 0.29400  0.64450  0.01200  Biso   1.000  C
  H112     1.0000 0.28810  0.60860  0.02160  Biso   1.000  H
  C224     1.0000 0.25780  0.68150  0.01280  Biso   1.000  C
  C225     1.0000 0.98800  0.79400  0.85550  Biso   1.000  C
  H113     1.0000 0.97840  0.78810  0.89140  Biso   1.000  H
  C226     1.0000 0.98720  0.75780  0.81850  Biso   1.000  C
  C227     1.0000 0.98800  0.29400  0.35550  Biso   1.000  C
  H114     1.0000 0.97840  0.28810  0.39140  Biso   1.000  H
  C228     1.0000 0.98720  0.25780  0.31850  Biso   1.000  C
  C229     1.0000 0.48800  0.79400  0.35550  Biso   1.000  C
  H115     1.0000 0.47840  0.78810  0.39140  Biso   1.000  H
  C230     1.0000 0.48720  0.75780  0.31850  Biso   1.000  C
  C231     1.0000 0.48800  0.29400  0.85550  Biso   1.000  C
  H116     1.0000 0.47840  0.28810  0.89140  Biso   1.000  H
  C232     1.0000 0.48720  0.25780  0.81850  Biso   1.000  C
  C233     1.0000 0.98800  0.20600  0.14450  Biso   1.000  C
  H117     1.0000 0.97840  0.21190  0.10860  Biso   1.000  H
  C234     1.0000 0.98720  0.24220  0.18150  Biso   1.000  C
  C235     1.0000 0.98800  0.70600  0.64450  Biso   1.000  C
  H118     1.0000 0.97840  0.71190  0.60860  Biso   1.000  H
  C236     1.0000 0.98720  0.74220  0.68150  Biso   1.000  C
  C237     1.0000 0.48800  0.20600  0.64450  Biso   1.000  C
  H119     1.0000 0.47840  0.21190  0.60860  Biso   1.000  H
  C238     1.0000 0.48720  0.24220  0.68150  Biso   1.000  C
  C239     1.0000 0.48800  0.70600  0.14450  Biso   1.000  C
  H120     1.0000 0.47840  0.71190  0.10860  Biso   1.000  H
  C240     1.0000 0.48720  0.74220  0.18150  Biso   1.000  C
  C241     1.0000 0.01200  0.20600  0.85550  Biso   1.000  C
  H121     1.0000 0.02160  0.21190  0.89140  Biso   1.000  H
  C242     1.0000 0.01280  0.24220  0.81850  Biso   1.000  C
  C243     1.0000 0.01200  0.70600  0.35550  Biso   1.000  C
  H122     1.0000 0.02160  0.71190  0.39140  Biso   1.000  H
  C244     1.0000 0.01280  0.74220  0.31850  Biso   1.000  C
  C245     1.0000 0.51200  0.20600  0.35550  Biso   1.000  C
  H123     1.0000 0.52160  0.21190  0.39140  Biso   1.000  H
  C246     1.0000 0.51280  0.24220  0.31850  Biso   1.000  C
  C247     1.0000 0.51200  0.70600  0.85550  Biso   1.000  C
  H124     1.0000 0.52160  0.71190  0.89140  Biso   1.000  H
  C248     1.0000 0.51280  0.74220  0.81850  Biso   1.000  C
  C249     1.0000 0.01200  0.79400  0.14450  Biso   1.000  C
  H125     1.0000 0.02160  0.78810  0.10860  Biso   1.000  H
  C250     1.0000 0.01280  0.75780  0.18150  Biso   1.000  C
  C251     1.0000 0.01200  0.29400  0.64450  Biso   1.000  C
  H126     1.0000 0.02160  0.28810  0.60860  Biso   1.000  H
  C252     1.0000 0.01280  0.25780  0.68150  Biso   1.000  C
  C253     1.0000 0.51200  0.79400  0.64450  Biso   1.000  C
  H127     1.0000 0.52160  0.78810  0.60860  Biso   1.000  H
  C254     1.0000 0.51280  0.75780  0.68150  Biso   1.000  C
  C255     1.0000 0.51200  0.29400  0.14450  Biso   1.000  C
  H128     1.0000 0.52160  0.28810  0.10860  Biso   1.000  H
  C256     1.0000 0.51280  0.25780  0.18150  Biso   1.000  C
  C257     1.0000 0.85550  0.98800  0.79400  Biso   1.000  C
  H129     1.0000 0.89140  0.97840  0.78810  Biso   1.000  H
  C258     1.0000 0.81850  0.98720  0.75780  Biso   1.000  C
  C259     1.0000 0.85550  0.48800  0.29400  Biso   1.000  C
  H130     1.0000 0.89140  0.47840  0.28810  Biso   1.000  H
  C260     1.0000 0.81850  0.48720  0.25780  Biso   1.000  C
  C261     1.0000 0.35550  0.98800  0.29400  Biso   1.000  C
  H131     1.0000 0.39140  0.97840  0.28810  Biso   1.000  H
  C262     1.0000 0.31850  0.98720  0.25780  Biso   1.000  C
  C263     1.0000 0.35550  0.48800  0.79400  Biso   1.000  C
  H132     1.0000 0.39140  0.47840  0.78810  Biso   1.000  H
  C264     1.0000 0.31850  0.48720  0.75780  Biso   1.000  C
  C265     1.0000 0.14450  0.98800  0.20600  Biso   1.000  C
  H133     1.0000 0.10860  0.97840  0.21190  Biso   1.000  H
  C266     1.0000 0.18150  0.98720  0.24220  Biso   1.000  C
  C267     1.0000 0.14450  0.48800  0.70600  Biso   1.000  C
  H134     1.0000 0.10860  0.47840  0.71190  Biso   1.000  H
  C268     1.0000 0.18150  0.48720  0.74220  Biso   1.000  C
  C269     1.0000 0.64450  0.98800  0.70600  Biso   1.000  C
  H135     1.0000 0.60860  0.97840  0.71190  Biso   1.000  H
  C270     1.0000 0.68150  0.98720  0.74220  Biso   1.000  C
  C271     1.0000 0.64450  0.48800  0.20600  Biso   1.000  C
  H136     1.0000 0.60860  0.47840  0.21190  Biso   1.000  H
  C272     1.0000 0.68150  0.48720  0.24220  Biso   1.000  C
  C273     1.0000 0.85550  0.01200  0.20600  Biso   1.000  C
  H137     1.0000 0.89140  0.02160  0.21190  Biso   1.000  H
  C274     1.0000 0.81850  0.01280  0.24220  Biso   1.000  C
  C275     1.0000 0.85550  0.51200  0.70600  Biso   1.000  C
  H138     1.0000 0.89140  0.52160  0.71190  Biso   1.000  H
  C276     1.0000 0.81850  0.51280  0.74220  Biso   1.000  C
  C277     1.0000 0.35550  0.01200  0.70600  Biso   1.000  C
  H139     1.0000 0.39140  0.02160  0.71190  Biso   1.000  H
  C278     1.0000 0.31850  0.01280  0.74220  Biso   1.000  C
  C279     1.0000 0.35550  0.51200  0.20600  Biso   1.000  C
  H140     1.0000 0.39140  0.52160  0.21190  Biso   1.000  H
  C280     1.0000 0.31850  0.51280  0.24220  Biso   1.000  C
  C281     1.0000 0.14450  0.01200  0.79400  Biso   1.000  C
  H141     1.0000 0.10860  0.02160  0.78810  Biso   1.000  H
  C282     1.0000 0.18150  0.01280  0.75780  Biso   1.000  C
  C283     1.0000 0.14450  0.51200  0.29400  Biso   1.000  C
  H142     1.0000 0.10860  0.52160  0.28810  Biso   1.000  H
  C284     1.0000 0.18150  0.51280  0.25780  Biso   1.000  C
  C285     1.0000 0.64450  0.01200  0.29400  Biso   1.000  C
  H143     1.0000 0.60860  0.02160  0.28810  Biso   1.000  H
  C286     1.0000 0.68150  0.01280  0.25780  Biso   1.000  C
  C287     1.0000 0.64450  0.51200  0.79400  Biso   1.000  C
  H144     1.0000 0.60860  0.52160  0.78810  Biso   1.000  H
  C288     1.0000 0.68150  0.51280  0.75780  Biso   1.000  C
  C289     1.0000 0.85550  0.79400  0.01200  Biso   1.000  C
  H145     1.0000 0.89140  0.78810  0.02160  Biso   1.000  H
  C290     1.0000 0.81850  0.75780  0.01280  Biso   1.000  C
  C291     1.0000 0.85550  0.29400  0.51200  Biso   1.000  C
  H146     1.0000 0.89140  0.28810  0.52160  Biso   1.000  H
  C292     1.0000 0.81850  0.25780  0.51280  Biso   1.000  C
  C293     1.0000 0.35550  0.79400  0.51200  Biso   1.000  C
  H147     1.0000 0.39140  0.78810  0.52160  Biso   1.000  H
  C294     1.0000 0.31850  0.75780  0.51280  Biso   1.000  C
  C295     1.0000 0.35550  0.29400  0.01200  Biso   1.000  C
  H148     1.0000 0.39140  0.28810  0.02160  Biso   1.000  H
  C296     1.0000 0.31850  0.25780  0.01280  Biso   1.000  C
  C297     1.0000 0.14450  0.20600  0.01200  Biso   1.000  C
  H149     1.0000 0.10860  0.21190  0.02160  Biso   1.000  H
  C298     1.0000 0.18150  0.24220  0.01280  Biso   1.000  C
  C299     1.0000 0.14450  0.70600  0.51200  Biso   1.000  C
  H150     1.0000 0.10860  0.71190  0.52160  Biso   1.000  H
  C300     1.0000 0.18150  0.74220  0.51280  Biso   1.000  C
  C301     1.0000 0.64450  0.20600  0.51200  Biso   1.000  C
  H151     1.0000 0.60860  0.21190  0.52160  Biso   1.000  H
  C302     1.0000 0.68150  0.24220  0.51280  Biso   1.000  C
  C303     1.0000 0.64450  0.70600  0.01200  Biso   1.000  C
  H152     1.0000 0.60860  0.71190  0.02160  Biso   1.000  H
  C304     1.0000 0.68150  0.74220  0.01280  Biso   1.000  C
  C305     1.0000 0.85550  0.20600  0.98800  Biso   1.000  C
  H153     1.0000 0.89140  0.21190  0.97840  Biso   1.000  H
  C306     1.0000 0.81850  0.24220  0.98720  Biso   1.000  C
  C307     1.0000 0.85550  0.70600  0.48800  Biso   1.000  C
  H154     1.0000 0.89140  0.71190  0.47840  Biso   1.000  H
  C308     1.0000 0.81850  0.74220  0.48720  Biso   1.000  C
  C309     1.0000 0.35550  0.20600  0.48800  Biso   1.000  C
  H155     1.0000 0.39140  0.21190  0.47840  Biso   1.000  H
  C310     1.0000 0.31850  0.24220  0.48720  Biso   1.000  C
  C311     1.0000 0.35550  0.70600  0.98800  Biso   1.000  C
  H156     1.0000 0.39140  0.71190  0.97840  Biso   1.000  H
  C312     1.0000 0.31850  0.74220  0.98720  Biso   1.000  C
  C313     1.0000 0.14450  0.79400  0.98800  Biso   1.000  C
  H157     1.0000 0.10860  0.78810  0.97840  Biso   1.000  H
  C314     1.0000 0.18150  0.75780  0.98720  Biso   1.000  C
  C315     1.0000 0.14450  0.29400  0.48800  Biso   1.000  C
  H158     1.0000 0.10860  0.28810  0.47840  Biso   1.000  H
  C316     1.0000 0.18150  0.25780  0.48720  Biso   1.000  C
  C317     1.0000 0.64450  0.79400  0.48800  Biso   1.000  C
  H159     1.0000 0.60860  0.78810  0.47840  Biso   1.000  H
  C318     1.0000 0.68150  0.75780  0.48720  Biso   1.000  C
  C319     1.0000 0.64450  0.29400  0.98800  Biso   1.000  C
  H160     1.0000 0.60860  0.28810  0.97840  Biso   1.000  H
  C320     1.0000 0.68150  0.25780  0.98720  Biso   1.000  C
  C321     1.0000 0.79400  0.98800  0.14450  Biso   1.000  C
  H161     1.0000 0.78810  0.97840  0.10860  Biso   1.000  H
  C322     1.0000 0.75780  0.98720  0.18150  Biso   1.000  C
  C323     1.0000 0.79400  0.48800  0.64450  Biso   1.000  C
  H162     1.0000 0.78810  0.47840  0.60860  Biso   1.000  H
  C324     1.0000 0.75780  0.48720  0.68150  Biso   1.000  C
  C325     1.0000 0.29400  0.98800  0.64450  Biso   1.000  C
  H163     1.0000 0.28810  0.97840  0.60860  Biso   1.000  H
  C326     1.0000 0.25780  0.98720  0.68150  Biso   1.000  C
  C327     1.0000 0.29400  0.48800  0.14450  Biso   1.000  C
  H164     1.0000 0.28810  0.47840  0.10860  Biso   1.000  H
  C328     1.0000 0.25780  0.48720  0.18150  Biso   1.000  C
  C329     1.0000 0.20600  0.98800  0.85550  Biso   1.000  C
  H165     1.0000 0.21190  0.97840  0.89140  Biso   1.000  H
  C330     1.0000 0.24220  0.98720  0.81850  Biso   1.000  C
  C331     1.0000 0.20600  0.48800  0.35550  Biso   1.000  C
  H166     1.0000 0.21190  0.47840  0.39140  Biso   1.000  H
  C332     1.0000 0.24220  0.48720  0.31850  Biso   1.000  C
  C333     1.0000 0.70600  0.98800  0.35550  Biso   1.000  C
  H167     1.0000 0.71190  0.97840  0.39140  Biso   1.000  H
  C334     1.0000 0.74220  0.98720  0.31850  Biso   1.000  C
  C335     1.0000 0.70600  0.48800  0.85550  Biso   1.000  C
  H168     1.0000 0.71190  0.47840  0.89140  Biso   1.000  H
  C336     1.0000 0.74220  0.48720  0.81850  Biso   1.000  C
  C337     1.0000 0.20600  0.01200  0.14450  Biso   1.000  C
  H169     1.0000 0.21190  0.02160  0.10860  Biso   1.000  H
  C338     1.0000 0.24220  0.01280  0.18150  Biso   1.000  C
  C339     1.0000 0.20600  0.51200  0.64450  Biso   1.000  C
  H170     1.0000 0.21190  0.52160  0.60860  Biso   1.000  H
  C340     1.0000 0.24220  0.51280  0.68150  Biso   1.000  C
  C341     1.0000 0.70600  0.01200  0.64450  Biso   1.000  C
  H171     1.0000 0.71190  0.02160  0.60860  Biso   1.000  H
  C342     1.0000 0.74220  0.01280  0.68150  Biso   1.000  C
  C343     1.0000 0.70600  0.51200  0.14450  Biso   1.000  C
  H172     1.0000 0.71190  0.52160  0.10860  Biso   1.000  H
  C344     1.0000 0.74220  0.51280  0.18150  Biso   1.000  C
  C345     1.0000 0.79400  0.01200  0.85550  Biso   1.000  C
  H173     1.0000 0.78810  0.02160  0.89140  Biso   1.000  H
  C346     1.0000 0.75780  0.01280  0.81850  Biso   1.000  C
  C347     1.0000 0.79400  0.51200  0.35550  Biso   1.000  C
  H174     1.0000 0.78810  0.52160  0.39140  Biso   1.000  H
  C348     1.0000 0.75780  0.51280  0.31850  Biso   1.000  C
  C349     1.0000 0.29400  0.01200  0.35550  Biso   1.000  C
  H175     1.0000 0.28810  0.02160  0.39140  Biso   1.000  H
  C350     1.0000 0.25780  0.01280  0.31850  Biso   1.000  C
  C351     1.0000 0.29400  0.51200  0.85550  Biso   1.000  C
  H176     1.0000 0.28810  0.52160  0.89140  Biso   1.000  H
  C352     1.0000 0.25780  0.51280  0.81850  Biso   1.000  C
  C353     1.0000 0.98800  0.85550  0.20600  Biso   1.000  C
  H177     1.0000 0.97840  0.89140  0.21190  Biso   1.000  H
  C354     1.0000 0.98720  0.81850  0.24220  Biso   1.000  C
  C355     1.0000 0.98800  0.35550  0.70600  Biso   1.000  C
  H178     1.0000 0.97840  0.39140  0.71190  Biso   1.000  H
  C356     1.0000 0.98720  0.31850  0.74220  Biso   1.000  C
  C357     1.0000 0.48800  0.85550  0.70600  Biso   1.000  C
  H179     1.0000 0.47840  0.89140  0.71190  Biso   1.000  H
  C358     1.0000 0.48720  0.81850  0.74220  Biso   1.000  C
  C359     1.0000 0.48800  0.35550  0.20600  Biso   1.000  C
  H180     1.0000 0.47840  0.39140  0.21190  Biso   1.000  H
  C360     1.0000 0.48720  0.31850  0.24220  Biso   1.000  C
  C361     1.0000 0.98800  0.14450  0.79400  Biso   1.000  C
  H181     1.0000 0.97840  0.10860  0.78810  Biso   1.000  H
  C362     1.0000 0.98720  0.18150  0.75780  Biso   1.000  C
  C363     1.0000 0.98800  0.64450  0.29400  Biso   1.000  C
  H182     1.0000 0.97840  0.60860  0.28810  Biso   1.000  H
  C364     1.0000 0.98720  0.68150  0.25780  Biso   1.000  C
  C365     1.0000 0.48800  0.14450  0.29400  Biso   1.000  C
  H183     1.0000 0.47840  0.10860  0.28810  Biso   1.000  H
  C366     1.0000 0.48720  0.18150  0.25780  Biso   1.000  C
  C367     1.0000 0.48800  0.64450  0.79400  Biso   1.000  C
  H184     1.0000 0.47840  0.60860  0.78810  Biso   1.000  H
  C368     1.0000 0.48720  0.68150  0.75780  Biso   1.000  C
  C369     1.0000 0.01200  0.85550  0.79400  Biso   1.000  C
  H185     1.0000 0.02160  0.89140  0.78810  Biso   1.000  H
  C370     1.0000 0.01280  0.81850  0.75780  Biso   1.000  C
  C371     1.0000 0.01200  0.35550  0.29400  Biso   1.000  C
  H186     1.0000 0.02160  0.39140  0.28810  Biso   1.000  H
  C372     1.0000 0.01280  0.31850  0.25780  Biso   1.000  C
  C373     1.0000 0.51200  0.85550  0.29400  Biso   1.000  C
  H187     1.0000 0.52160  0.89140  0.28810  Biso   1.000  H
  C374     1.0000 0.51280  0.81850  0.25780  Biso   1.000  C
  C375     1.0000 0.51200  0.35550  0.79400  Biso   1.000  C
  H188     1.0000 0.52160  0.39140  0.78810  Biso   1.000  H
  C376     1.0000 0.51280  0.31850  0.75780  Biso   1.000  C
  C377     1.0000 0.01200  0.14450  0.20600  Biso   1.000  C
  H189     1.0000 0.02160  0.10860  0.21190  Biso   1.000  H
  C378     1.0000 0.01280  0.18150  0.24220  Biso   1.000  C
  C379     1.0000 0.01200  0.64450  0.70600  Biso   1.000  C
  H190     1.0000 0.02160  0.60860  0.71190  Biso   1.000  H
  C380     1.0000 0.01280  0.68150  0.74220  Biso   1.000  C
  C381     1.0000 0.51200  0.14450  0.70600  Biso   1.000  C
  H191     1.0000 0.52160  0.10860  0.71190  Biso   1.000  H
  C382     1.0000 0.51280  0.18150  0.74220  Biso   1.000  C
  C383     1.0000 0.51200  0.64450  0.20600  Biso   1.000  C
  H192     1.0000 0.52160  0.60860  0.21190  Biso   1.000  H
  C384     1.0000 0.51280  0.68150  0.24220  Biso   1.000  C
  Zr1      1.0000 0.09223  0.00000  0.00000  Biso   1.000  Zr
  Zr2      1.0000 0.09223  0.50000  0.50000  Biso   1.000  Zr
  Zr3      1.0000 0.59223  0.00000  0.50000  Biso   1.000  Zr
  Zr4      1.0000 0.59223  0.50000  0.00000  Biso   1.000  Zr
  Zr5      1.0000 0.90777  0.00000  0.00000  Biso   1.000  Zr
  Zr6      1.0000 0.90777  0.50000  0.50000  Biso   1.000  Zr
  Zr7      1.0000 0.40777  0.00000  0.50000  Biso   1.000  Zr
  Zr8      1.0000 0.40777  0.50000  0.00000  Biso   1.000  Zr
  Zr9      1.0000 0.00000  0.09223  0.00000  Biso   1.000  Zr
  Zr10     1.0000 0.00000  0.59223  0.50000  Biso   1.000  Zr
  Zr11     1.0000 0.50000  0.09223  0.50000  Biso   1.000  Zr
  Zr12     1.0000 0.50000  0.59223  0.00000  Biso   1.000  Zr
  Zr13     1.0000 0.00000  0.90777  0.00000  Biso   1.000  Zr
  Zr14     1.0000 0.00000  0.40777  0.50000  Biso   1.000  Zr
  Zr15     1.0000 0.50000  0.90777  0.50000  Biso   1.000  Zr
  Zr16     1.0000 0.50000  0.40777  0.00000  Biso   1.000  Zr
  Zr17     1.0000 0.00000  0.00000  0.09223  Biso   1.000  Zr
  Zr18     1.0000 0.00000  0.50000  0.59223  Biso   1.000  Zr
  Zr19     1.0000 0.50000  0.00000  0.59223  Biso   1.000  Zr
  Zr20     1.0000 0.50000  0.50000  0.09223  Biso   1.000  Zr
  Zr21     1.0000 0.00000  0.00000  0.90777  Biso   1.000  Zr
  Zr22     1.0000 0.00000  0.50000  0.40777  Biso   1.000  Zr
  Zr23     1.0000 0.50000  0.00000  0.40777  Biso   1.000  Zr
  Zr24     1.0000 0.50000  0.50000  0.90777  Biso   1.000  Zr
  O1       1.0000 0.13260  0.07250  0.00000  Biso   1.000  O
  O2       1.0000 0.13260  0.57250  0.50000  Biso   1.000  O
  O3       1.0000 0.63260  0.07250  0.50000  Biso   1.000  O
  O4       1.0000 0.63260  0.57250  0.00000  Biso   1.000  O
  O5       1.0000 0.86740  0.92750  0.00000  Biso   1.000  O
  O6       1.0000 0.86740  0.42750  0.50000  Biso   1.000  O
  O7       1.0000 0.36740  0.92750  0.50000  Biso   1.000  O
  O8       1.0000 0.36740  0.42750  0.00000  Biso   1.000  O
  O9       1.0000 0.86740  0.07250  0.00000  Biso   1.000  O
  O10      1.0000 0.86740  0.57250  0.50000  Biso   1.000  O
  O11      1.0000 0.36740  0.07250  0.50000  Biso   1.000  O
  O12      1.0000 0.36740  0.57250  0.00000  Biso   1.000  O
  O13      1.0000 0.13260  0.92750  0.00000  Biso   1.000  O
  O14      1.0000 0.13260  0.42750  0.50000  Biso   1.000  O
  O15      1.0000 0.63260  0.92750  0.50000  Biso   1.000  O
  O16      1.0000 0.63260  0.42750  0.00000  Biso   1.000  O
  O17      1.0000 0.00000  0.13260  0.07250  Biso   1.000  O
  O18      1.0000 0.00000  0.63260  0.57250  Biso   1.000  O
  O19      1.0000 0.50000  0.13260  0.57250  Biso   1.000  O
  O20      1.0000 0.50000  0.63260  0.07250  Biso   1.000  O
  O21      1.0000 0.00000  0.86740  0.92750  Biso   1.000  O
  O22      1.0000 0.00000  0.36740  0.42750  Biso   1.000  O
  O23      1.0000 0.50000  0.86740  0.42750  Biso   1.000  O
  O24      1.0000 0.50000  0.36740  0.92750  Biso   1.000  O
  O25      1.0000 0.00000  0.86740  0.07250  Biso   1.000  O
  O26      1.0000 0.00000  0.36740  0.57250  Biso   1.000  O
  O27      1.0000 0.50000  0.86740  0.57250  Biso   1.000  O
  O28      1.0000 0.50000  0.36740  0.07250  Biso   1.000  O
  O29      1.0000 0.00000  0.13260  0.92750  Biso   1.000  O
  O30      1.0000 0.00000  0.63260  0.42750  Biso   1.000  O
  O31      1.0000 0.50000  0.13260  0.42750  Biso   1.000  O
  O32      1.0000 0.50000  0.63260  0.92750  Biso   1.000  O
  O33      1.0000 0.07250  0.00000  0.13260  Biso   1.000  O
  O34      1.0000 0.07250  0.50000  0.63260  Biso   1.000  O
  O35      1.0000 0.57250  0.00000  0.63260  Biso   1.000  O
  O36      1.0000 0.57250  0.50000  0.13260  Biso   1.000  O
  O37      1.0000 0.92750  0.00000  0.86740  Biso   1.000  O
  O38      1.0000 0.92750  0.50000  0.36740  Biso   1.000  O
  O39      1.0000 0.42750  0.00000  0.36740  Biso   1.000  O
  O40      1.0000 0.42750  0.50000  0.86740  Biso   1.000  O
  O41      1.0000 0.07250  0.00000  0.86740  Biso   1.000  O
  O42      1.0000 0.07250  0.50000  0.36740  Biso   1.000  O
  O43      1.0000 0.57250  0.00000  0.36740  Biso   1.000  O
  O44      1.0000 0.57250  0.50000  0.86740  Biso   1.000  O
  O45      1.0000 0.92750  0.00000  0.13260  Biso   1.000  O
  O46      1.0000 0.92750  0.50000  0.63260  Biso   1.000  O
  O47      1.0000 0.42750  0.00000  0.63260  Biso   1.000  O
  O48      1.0000 0.42750  0.50000  0.13260  Biso   1.000  O
  O49      1.0000 0.07250  0.13260  0.00000  Biso   1.000  O
  O50      1.0000 0.07250  0.63260  0.50000  Biso   1.000  O
  O51      1.0000 0.57250  0.13260  0.50000  Biso   1.000  O
  O52      1.0000 0.57250  0.63260  0.00000  Biso   1.000  O
  O53      1.0000 0.92750  0.86740  0.00000  Biso   1.000  O
  O54      1.0000 0.92750  0.36740  0.50000  Biso   1.000  O
  O55      1.0000 0.42750  0.86740  0.50000  Biso   1.000  O
  O56      1.0000 0.42750  0.36740  0.00000  Biso   1.000  O
  O57      1.0000 0.07250  0.86740  0.00000  Biso   1.000  O
  O58      1.0000 0.07250  0.36740  0.50000  Biso   1.000  O
  O59      1.0000 0.57250  0.86740  0.50000  Biso   1.000  O
  O60      1.0000 0.57250  0.36740  0.00000  Biso   1.000  O
  O61      1.0000 0.92750  0.13260  0.00000  Biso   1.000  O
  O62      1.0000 0.92750  0.63260  0.50000  Biso   1.000  O
  O63      1.0000 0.42750  0.13260  0.50000  Biso   1.000  O
  O64      1.0000 0.42750  0.63260  0.00000  Biso   1.000  O
  O65      1.0000 0.13260  0.00000  0.92750  Biso   1.000  O
  O66      1.0000 0.13260  0.50000  0.42750  Biso   1.000  O
  O67      1.0000 0.63260  0.00000  0.42750  Biso   1.000  O
  O68      1.0000 0.63260  0.50000  0.92750  Biso   1.000  O
  O69      1.0000 0.86740  0.00000  0.07250  Biso   1.000  O
  O70      1.0000 0.86740  0.50000  0.57250  Biso   1.000  O
  O71      1.0000 0.36740  0.00000  0.57250  Biso   1.000  O
  O72      1.0000 0.36740  0.50000  0.07250  Biso   1.000  O
  O73      1.0000 0.86740  0.00000  0.92750  Biso   1.000  O
  O74      1.0000 0.86740  0.50000  0.42750  Biso   1.000  O
  O75      1.0000 0.36740  0.00000  0.42750  Biso   1.000  O
  O76      1.0000 0.36740  0.50000  0.92750  Biso   1.000  O
  O77      1.0000 0.13260  0.00000  0.07250  Biso   1.000  O
  O78      1.0000 0.13260  0.50000  0.57250  Biso   1.000  O
  O79      1.0000 0.63260  0.00000  0.57250  Biso   1.000  O
  O80      1.0000 0.63260  0.50000  0.07250  Biso   1.000  O
  O81      1.0000 0.00000  0.07250  0.86740  Biso   1.000  O
  O82      1.0000 0.00000  0.57250  0.36740  Biso   1.000  O
  O83      1.0000 0.50000  0.07250  0.36740  Biso   1.000  O
  O84      1.0000 0.50000  0.57250  0.86740  Biso   1.000  O
  O85      1.0000 0.00000  0.92750  0.13260  Biso   1.000  O
  O86      1.0000 0.00000  0.42750  0.63260  Biso   1.000  O
  O87      1.0000 0.50000  0.92750  0.63260  Biso   1.000  O
  O88      1.0000 0.50000  0.42750  0.13260  Biso   1.000  O
  O89      1.0000 0.00000  0.07250  0.13260  Biso   1.000  O
  O90      1.0000 0.00000  0.57250  0.63260  Biso   1.000  O
  O91      1.0000 0.50000  0.07250  0.63260  Biso   1.000  O
  O92      1.0000 0.50000  0.57250  0.13260  Biso   1.000  O
  O93      1.0000 0.00000  0.92750  0.86740  Biso   1.000  O
  O94      1.0000 0.00000  0.42750  0.36740  Biso   1.000  O
  O95      1.0000 0.50000  0.92750  0.36740  Biso   1.000  O
  O96      1.0000 0.50000  0.42750  0.86740  Biso   1.000  O
  C385     1.0000 0.11760  0.11760  0.00000  Biso   1.000  C
  C386     1.0000 0.15650  0.15650  0.00000  Biso   1.000  C
  C387     1.0000 0.23050  0.23050  0.00000  Biso   1.000  C
  C388     1.0000 0.11760  0.61760  0.50000  Biso   1.000  C
  C389     1.0000 0.15650  0.65650  0.50000  Biso   1.000  C
  C390     1.0000 0.23050  0.73050  0.50000  Biso   1.000  C
  C391     1.0000 0.61760  0.11760  0.50000  Biso   1.000  C
  C392     1.0000 0.65650  0.15650  0.50000  Biso   1.000  C
  C393     1.0000 0.73050  0.23050  0.50000  Biso   1.000  C
  C394     1.0000 0.61760  0.61760  0.00000  Biso   1.000  C
  C395     1.0000 0.65650  0.65650  0.00000  Biso   1.000  C
  C396     1.0000 0.73050  0.73050  0.00000  Biso   1.000  C
  C397     1.0000 0.88240  0.88240  0.00000  Biso   1.000  C
  C398     1.0000 0.84350  0.84350  0.00000  Biso   1.000  C
  C399     1.0000 0.76950  0.76950  0.00000  Biso   1.000  C
  C400     1.0000 0.88240  0.38240  0.50000  Biso   1.000  C
  C401     1.0000 0.84350  0.34350  0.50000  Biso   1.000  C
  C402     1.0000 0.76950  0.26950  0.50000  Biso   1.000  C
  C403     1.0000 0.38240  0.88240  0.50000  Biso   1.000  C
  C404     1.0000 0.34350  0.84350  0.50000  Biso   1.000  C
  C405     1.0000 0.26950  0.76950  0.50000  Biso   1.000  C
  C406     1.0000 0.38240  0.38240  0.00000  Biso   1.000  C
  C407     1.0000 0.34350  0.34350  0.00000  Biso   1.000  C
  C408     1.0000 0.26950  0.26950  0.00000  Biso   1.000  C
  C409     1.0000 0.88240  0.11760  0.00000  Biso   1.000  C
  C410     1.0000 0.84350  0.15650  0.00000  Biso   1.000  C
  C411     1.0000 0.76950  0.23050  0.00000  Biso   1.000  C
  C412     1.0000 0.88240  0.61760  0.50000  Biso   1.000  C
  C413     1.0000 0.84350  0.65650  0.50000  Biso   1.000  C
  C414     1.0000 0.76950  0.73050  0.50000  Biso   1.000  C
  C415     1.0000 0.38240  0.11760  0.50000  Biso   1.000  C
  C416     1.0000 0.34350  0.15650  0.50000  Biso   1.000  C
  C417     1.0000 0.26950  0.23050  0.50000  Biso   1.000  C
  C418     1.0000 0.38240  0.61760  0.00000  Biso   1.000  C
  C419     1.0000 0.34350  0.65650  0.00000  Biso   1.000  C
  C420     1.0000 0.26950  0.73050  0.00000  Biso   1.000  C
  C421     1.0000 0.11760  0.88240  0.00000  Biso   1.000  C
  C422     1.0000 0.15650  0.84350  0.00000  Biso   1.000  C
  C423     1.0000 0.23050  0.76950  0.00000  Biso   1.000  C
  C424     1.0000 0.11760  0.38240  0.50000  Biso   1.000  C
  C425     1.0000 0.15650  0.34350  0.50000  Biso   1.000  C
  C426     1.0000 0.23050  0.26950  0.50000  Biso   1.000  C
  C427     1.0000 0.61760  0.88240  0.50000  Biso   1.000  C
  C428     1.0000 0.65650  0.84350  0.50000  Biso   1.000  C
  C429     1.0000 0.73050  0.76950  0.50000  Biso   1.000  C
  C430     1.0000 0.61760  0.38240  0.00000  Biso   1.000  C
  C431     1.0000 0.65650  0.34350  0.00000  Biso   1.000  C
  C432     1.0000 0.73050  0.26950  0.00000  Biso   1.000  C
  C433     1.0000 0.00000  0.11760  0.11760  Biso   1.000  C
  C434     1.0000 0.00000  0.15650  0.15650  Biso   1.000  C
  C435     1.0000 0.00000  0.23050  0.23050  Biso   1.000  C
  C436     1.0000 0.00000  0.61760  0.61760  Biso   1.000  C
  C437     1.0000 0.00000  0.65650  0.65650  Biso   1.000  C
  C438     1.0000 0.00000  0.73050  0.73050  Biso   1.000  C
  C439     1.0000 0.50000  0.11760  0.61760  Biso   1.000  C
  C440     1.0000 0.50000  0.15650  0.65650  Biso   1.000  C
  C441     1.0000 0.50000  0.23050  0.73050  Biso   1.000  C
  C442     1.0000 0.50000  0.61760  0.11760  Biso   1.000  C
  C443     1.0000 0.50000  0.65650  0.15650  Biso   1.000  C
  C444     1.0000 0.50000  0.73050  0.23050  Biso   1.000  C
  C445     1.0000 0.00000  0.88240  0.88240  Biso   1.000  C
  C446     1.0000 0.00000  0.84350  0.84350  Biso   1.000  C
  C447     1.0000 0.00000  0.76950  0.76950  Biso   1.000  C
  C448     1.0000 0.00000  0.38240  0.38240  Biso   1.000  C
  C449     1.0000 0.00000  0.34350  0.34350  Biso   1.000  C
  C450     1.0000 0.00000  0.26950  0.26950  Biso   1.000  C
  C451     1.0000 0.50000  0.88240  0.38240  Biso   1.000  C
  C452     1.0000 0.50000  0.84350  0.34350  Biso   1.000  C
  C453     1.0000 0.50000  0.76950  0.26950  Biso   1.000  C
  C454     1.0000 0.50000  0.38240  0.88240  Biso   1.000  C
  C455     1.0000 0.50000  0.34350  0.84350  Biso   1.000  C
  C456     1.0000 0.50000  0.26950  0.76950  Biso   1.000  C
  C457     1.0000 0.00000  0.88240  0.11760  Biso   1.000  C
  C458     1.0000 0.00000  0.84350  0.15650  Biso   1.000  C
  C459     1.0000 0.00000  0.76950  0.23050  Biso   1.000  C
  C460     1.0000 0.00000  0.38240  0.61760  Biso   1.000  C
  C461     1.0000 0.00000  0.34350  0.65650  Biso   1.000  C
  C462     1.0000 0.00000  0.26950  0.73050  Biso   1.000  C
  C463     1.0000 0.50000  0.88240  0.61760  Biso   1.000  C
  C464     1.0000 0.50000  0.84350  0.65650  Biso   1.000  C
  C465     1.0000 0.50000  0.76950  0.73050  Biso   1.000  C
  C466     1.0000 0.50000  0.38240  0.11760  Biso   1.000  C
  C467     1.0000 0.50000  0.34350  0.15650  Biso   1.000  C
  C468     1.0000 0.50000  0.26950  0.23050  Biso   1.000  C
  C469     1.0000 0.00000  0.11760  0.88240  Biso   1.000  C
  C470     1.0000 0.00000  0.15650  0.84350  Biso   1.000  C
  C471     1.0000 0.00000  0.23050  0.76950  Biso   1.000  C
  C472     1.0000 0.00000  0.61760  0.38240  Biso   1.000  C
  C473     1.0000 0.00000  0.65650  0.34350  Biso   1.000  C
  C474     1.0000 0.00000  0.73050  0.26950  Biso   1.000  C
  C475     1.0000 0.50000  0.11760  0.38240  Biso   1.000  C
  C476     1.0000 0.50000  0.15650  0.34350  Biso   1.000  C
  C477     1.0000 0.50000  0.23050  0.26950  Biso   1.000  C
  C478     1.0000 0.50000  0.61760  0.88240  Biso   1.000  C
  C479     1.0000 0.50000  0.65650  0.84350  Biso   1.000  C
  C480     1.0000 0.50000  0.73050  0.76950  Biso   1.000  C
  C481     1.0000 0.11760  0.00000  0.11760  Biso   1.000  C
  C482     1.0000 0.15650  0.00000  0.15650  Biso   1.000  C
  C483     1.0000 0.23050  0.00000  0.23050  Biso   1.000  C
  C484     1.0000 0.11760  0.50000  0.61760  Biso   1.000  C
  C485     1.0000 0.15650  0.50000  0.65650  Biso   1.000  C
  C486     1.0000 0.23050  0.50000  0.73050  Biso   1.000  C
  C487     1.0000 0.61760  0.00000  0.61760  Biso   1.000  C
  C488     1.0000 0.65650  0.00000  0.65650  Biso   1.000  C
  C489     1.0000 0.73050  0.00000  0.73050  Biso   1.000  C
  C490     1.0000 0.61760  0.50000  0.11760  Biso   1.000  C
  C491     1.0000 0.65650  0.50000  0.15650  Biso   1.000  C
  C492     1.0000 0.73050  0.50000  0.23050  Biso   1.000  C
  C493     1.0000 0.88240  0.00000  0.88240  Biso   1.000  C
  C494     1.0000 0.84350  0.00000  0.84350  Biso   1.000  C
  C495     1.0000 0.76950  0.00000  0.76950  Biso   1.000  C
  C496     1.0000 0.88240  0.50000  0.38240  Biso   1.000  C
  C497     1.0000 0.84350  0.50000  0.34350  Biso   1.000  C
  C498     1.0000 0.76950  0.50000  0.26950  Biso   1.000  C
  C499     1.0000 0.38240  0.00000  0.38240  Biso   1.000  C
  C500     1.0000 0.34350  0.00000  0.34350  Biso   1.000  C
  C501     1.0000 0.26950  0.00000  0.26950  Biso   1.000  C
  C502     1.0000 0.38240  0.50000  0.88240  Biso   1.000  C
  C503     1.0000 0.34350  0.50000  0.84350  Biso   1.000  C
  C504     1.0000 0.26950  0.50000  0.76950  Biso   1.000  C
  C505     1.0000 0.11760  0.00000  0.88240  Biso   1.000  C
  C506     1.0000 0.15650  0.00000  0.84350  Biso   1.000  C
  C507     1.0000 0.23050  0.00000  0.76950  Biso   1.000  C
  C508     1.0000 0.11760  0.50000  0.38240  Biso   1.000  C
  C509     1.0000 0.15650  0.50000  0.34350  Biso   1.000  C
  C510     1.0000 0.23050  0.50000  0.26950  Biso   1.000  C
  C511     1.0000 0.61760  0.00000  0.38240  Biso   1.000  C
  C512     1.0000 0.65650  0.00000  0.34350  Biso   1.000  C
  C513     1.0000 0.73050  0.00000  0.26950  Biso   1.000  C
  C514     1.0000 0.61760  0.50000  0.88240  Biso   1.000  C
  C515     1.0000 0.65650  0.50000  0.84350  Biso   1.000  C
  C516     1.0000 0.73050  0.50000  0.76950  Biso   1.000  C
  C517     1.0000 0.88240  0.00000  0.11760  Biso   1.000  C
  C518     1.0000 0.84350  0.00000  0.15650  Biso   1.000  C
  C519     1.0000 0.76950  0.00000  0.23050  Biso   1.000  C
  C520     1.0000 0.88240  0.50000  0.61760  Biso   1.000  C
  C521     1.0000 0.84350  0.50000  0.65650  Biso   1.000  C
  C522     1.0000 0.76950  0.50000  0.73050  Biso   1.000  C
  C523     1.0000 0.38240  0.00000  0.61760  Biso   1.000  C
  C524     1.0000 0.34350  0.00000  0.65650  Biso   1.000  C
  C525     1.0000 0.26950  0.00000  0.73050  Biso   1.000  C
  C526     1.0000 0.38240  0.50000  0.11760  Biso   1.000  C
  C527     1.0000 0.34350  0.50000  0.15650  Biso   1.000  C
  C528     1.0000 0.26950  0.50000  0.23050  Biso   1.000  C
  O97      1.0000 0.03840  0.03840  0.03840  Biso   1.000  O
  O98      1.0000 0.05170  0.05170  0.05170  Biso   1.000  O
  H193     1.0000 0.07330  0.07330  0.07330  Biso   1.000  H
  O99      1.0000 0.03840  0.53840  0.53840  Biso   1.000  O
  O100     1.0000 0.05170  0.55170  0.55170  Biso   1.000  O
  H194     1.0000 0.07330  0.57330  0.57330  Biso   1.000  H
  O101     1.0000 0.53840  0.03840  0.53840  Biso   1.000  O
  O102     1.0000 0.55170  0.05170  0.55170  Biso   1.000  O
  H195     1.0000 0.57330  0.07330  0.57330  Biso   1.000  H
  O103     1.0000 0.53840  0.53840  0.03840  Biso   1.000  O
  O104     1.0000 0.55170  0.55170  0.05170  Biso   1.000  O
  H196     1.0000 0.57330  0.57330  0.07330  Biso   1.000  H
  O105     1.0000 0.96160  0.96160  0.03840  Biso   1.000  O
  O106     1.0000 0.94830  0.94830  0.05170  Biso   1.000  O
  H197     1.0000 0.92670  0.92670  0.07330  Biso   1.000  H
  O107     1.0000 0.96160  0.46160  0.53840  Biso   1.000  O
  O108     1.0000 0.94830  0.44830  0.55170  Biso   1.000  O
  H198     1.0000 0.92670  0.42670  0.57330  Biso   1.000  H
  O109     1.0000 0.46160  0.96160  0.53840  Biso   1.000  O
  O110     1.0000 0.44830  0.94830  0.55170  Biso   1.000  O
  H199     1.0000 0.42670  0.92670  0.57330  Biso   1.000  H
  O111     1.0000 0.46160  0.46160  0.03840  Biso   1.000  O
  O112     1.0000 0.44830  0.44830  0.05170  Biso   1.000  O
  H200     1.0000 0.42670  0.42670  0.07330  Biso   1.000  H
  O113     1.0000 0.96160  0.03840  0.96160  Biso   1.000  O
  O114     1.0000 0.94830  0.05170  0.94830  Biso   1.000  O
  H201     1.0000 0.92670  0.07330  0.92670  Biso   1.000  H
  O115     1.0000 0.96160  0.53840  0.46160  Biso   1.000  O
  O116     1.0000 0.94830  0.55170  0.44830  Biso   1.000  O
  H202     1.0000 0.92670  0.57330  0.42670  Biso   1.000  H
  O117     1.0000 0.46160  0.03840  0.46160  Biso   1.000  O
  O118     1.0000 0.44830  0.05170  0.44830  Biso   1.000  O
  H203     1.0000 0.42670  0.07330  0.42670  Biso   1.000  H
  O119     1.0000 0.46160  0.53840  0.96160  Biso   1.000  O
  O120     1.0000 0.44830  0.55170  0.94830  Biso   1.000  O
  H204     1.0000 0.42670  0.57330  0.92670  Biso   1.000  H
  O121     1.0000 0.03840  0.96160  0.96160  Biso   1.000  O
  O122     1.0000 0.05170  0.94830  0.94830  Biso   1.000  O
  H205     1.0000 0.07330  0.92670  0.92670  Biso   1.000  H
  O123     1.0000 0.03840  0.46160  0.46160  Biso   1.000  O
  O124     1.0000 0.05170  0.44830  0.44830  Biso   1.000  O
  H206     1.0000 0.07330  0.42670  0.42670  Biso   1.000  H
  O125     1.0000 0.53840  0.96160  0.46160  Biso   1.000  O
  O126     1.0000 0.55170  0.94830  0.44830  Biso   1.000  O
  H207     1.0000 0.57330  0.92670  0.42670  Biso   1.000  H
  O127     1.0000 0.53840  0.46160  0.96160  Biso   1.000  O
  O128     1.0000 0.55170  0.44830  0.94830  Biso   1.000  O
  H208     1.0000 0.57330  0.42670  0.92670  Biso   1.000  H
  O129     1.0000 0.03840  0.03840  0.96160  Biso   1.000  O
  O130     1.0000 0.05170  0.05170  0.94830  Biso   1.000  O
  H209     1.0000 0.07330  0.07330  0.92670  Biso   1.000  H
  O131     1.0000 0.03840  0.53840  0.46160  Biso   1.000  O
  O132     1.0000 0.05170  0.55170  0.44830  Biso   1.000  O
  H210     1.0000 0.07330  0.57330  0.42670  Biso   1.000  H
  O133     1.0000 0.53840  0.03840  0.46160  Biso   1.000  O
  O134     1.0000 0.55170  0.05170  0.44830  Biso   1.000  O
  H211     1.0000 0.57330  0.07330  0.42670  Biso   1.000  H
  O135     1.0000 0.53840  0.53840  0.96160  Biso   1.000  O
  O136     1.0000 0.55170  0.55170  0.94830  Biso   1.000  O
  H212     1.0000 0.57330  0.57330  0.92670  Biso   1.000  H
  O137     1.0000 0.96160  0.96160  0.96160  Biso   1.000  O
  O138     1.0000 0.94830  0.94830  0.94830  Biso   1.000  O
  H213     1.0000 0.92670  0.92670  0.92670  Biso   1.000  H
  O139     1.0000 0.96160  0.46160  0.46160  Biso   1.000  O
  O140     1.0000 0.94830  0.44830  0.44830  Biso   1.000  O
  H214     1.0000 0.92670  0.42670  0.42670  Biso   1.000  H
  O141     1.0000 0.46160  0.96160  0.46160  Biso   1.000  O
  O142     1.0000 0.44830  0.94830  0.44830  Biso   1.000  O
  H215     1.0000 0.42670  0.92670  0.42670  Biso   1.000  H
  O143     1.0000 0.46160  0.46160  0.96160  Biso   1.000  O
  O144     1.0000 0.44830  0.44830  0.94830  Biso   1.000  O
  H216     1.0000 0.42670  0.42670  0.92670  Biso   1.000  H
  O145     1.0000 0.03840  0.96160  0.03840  Biso   1.000  O
  O146     1.0000 0.05170  0.94830  0.05170  Biso   1.000  O
  H217     1.0000 0.07330  0.92670  0.07330  Biso   1.000  H
  O147     1.0000 0.03840  0.46160  0.53840  Biso   1.000  O
  O148     1.0000 0.05170  0.44830  0.55170  Biso   1.000  O
  H218     1.0000 0.07330  0.42670  0.57330  Biso   1.000  H
  O149     1.0000 0.53840  0.96160  0.53840  Biso   1.000  O
  O150     1.0000 0.55170  0.94830  0.55170  Biso   1.000  O
  H219     1.0000 0.57330  0.92670  0.57330  Biso   1.000  H
  O151     1.0000 0.53840  0.46160  0.03840  Biso   1.000  O
  O152     1.0000 0.55170  0.44830  0.05170  Biso   1.000  O
  H220     1.0000 0.57330  0.42670  0.07330  Biso   1.000  H
  O153     1.0000 0.96160  0.03840  0.03840  Biso   1.000  O
  O154     1.0000 0.94830  0.05170  0.05170  Biso   1.000  O
  H221     1.0000 0.92670  0.07330  0.07330  Biso   1.000  H
  O155     1.0000 0.96160  0.53840  0.53840  Biso   1.000  O
  O156     1.0000 0.94830  0.55170  0.55170  Biso   1.000  O
  H222     1.0000 0.92670  0.57330  0.57330  Biso   1.000  H
  O157     1.0000 0.46160  0.03840  0.53840  Biso   1.000  O
  O158     1.0000 0.44830  0.05170  0.55170  Biso   1.000  O
  H223     1.0000 0.42670  0.07330  0.57330  Biso   1.000  H
  O159     1.0000 0.46160  0.53840  0.03840  Biso   1.000  O
  O160     1.0000 0.44830  0.55170  0.05170  Biso   1.000  O
  H224     1.0000 0.42670  0.57330  0.07330  Biso   1.000  H
  Re1      1.0000 0.31210  0.18790  0.04440  Biso   1.000  Re
  Cl1      1.0000 0.35600  0.14400  0.97000  Biso   1.000  Cl
  Re2      1.0000 0.31210  0.68790  0.54440  Biso   1.000  Re
  Cl2      1.0000 0.35600  0.64400  0.47000  Biso   1.000  Cl
  Re3      1.0000 0.68790  0.81210  0.04440  Biso   1.000  Re
  Cl3      1.0000 0.64400  0.85600  0.97000  Biso   1.000  Cl
  Re4      1.0000 0.68790  0.31210  0.54440  Biso   1.000  Re
  Cl4      1.0000 0.64400  0.35600  0.47000  Biso   1.000  Cl
  Re5      1.0000 0.18790  0.31210  0.04440  Biso   1.000  Re
  Cl5      1.0000 0.14400  0.35600  0.97000  Biso   1.000  Cl
  Re6      1.0000 0.68790  0.18790  0.95560  Biso   1.000  Re
  Cl6      1.0000 0.64400  0.14400  0.03000  Biso   1.000  Cl
  Re7      1.0000 0.68790  0.68790  0.45560  Biso   1.000  Re
  Cl7      1.0000 0.64400  0.64400  0.53000  Biso   1.000  Cl
  Re8      1.0000 0.18790  0.18790  0.45560  Biso   1.000  Re
  Cl8      1.0000 0.14400  0.14400  0.53000  Biso   1.000  Cl
  Re9      1.0000 0.31210  0.81210  0.95560  Biso   1.000  Re
  Cl9      1.0000 0.35600  0.85600  0.03000  Biso   1.000  Cl
  Re10     1.0000 0.31210  0.31210  0.45560  Biso   1.000  Re
  Cl10     1.0000 0.35600  0.35600  0.53000  Biso   1.000  Cl
  Re11     1.0000 0.04440  0.31210  0.18790  Biso   1.000  Re
  Cl11     1.0000 0.97000  0.35600  0.14400  Biso   1.000  Cl
  Re12     1.0000 0.54440  0.31210  0.68790  Biso   1.000  Re
  Cl12     1.0000 0.47000  0.35600  0.64400  Biso   1.000  Cl
  Re13     1.0000 0.04440  0.68790  0.81210  Biso   1.000  Re
  Cl13     1.0000 0.97000  0.64400  0.85600  Biso   1.000  Cl
  Re14     1.0000 0.04440  0.18790  0.31210  Biso   1.000  Re
  Cl14     1.0000 0.97000  0.14400  0.35600  Biso   1.000  Cl
  Re15     1.0000 0.54440  0.68790  0.31210  Biso   1.000  Re
  Cl15     1.0000 0.47000  0.64400  0.35600  Biso   1.000  Cl
  Re16     1.0000 0.95560  0.68790  0.18790  Biso   1.000  Re
  Cl16     1.0000 0.03000  0.64400  0.14400  Biso   1.000  Cl
  Re17     1.0000 0.45560  0.68790  0.68790  Biso   1.000  Re
  Cl17     1.0000 0.53000  0.64400  0.64400  Biso   1.000  Cl
  Re18     1.0000 0.45560  0.18790  0.18790  Biso   1.000  Re
  Cl18     1.0000 0.53000  0.14400  0.14400  Biso   1.000  Cl
  Re19     1.0000 0.95560  0.31210  0.81210  Biso   1.000  Re
  Cl19     1.0000 0.03000  0.35600  0.85600  Biso   1.000  Cl
  Re20     1.0000 0.45560  0.31210  0.31210  Biso   1.000  Re
  Cl20     1.0000 0.53000  0.35600  0.35600  Biso   1.000  Cl
  Re21     1.0000 0.18790  0.04440  0.31210  Biso   1.000  Re
  Cl21     1.0000 0.14400  0.97000  0.35600  Biso   1.000  Cl
  Re22     1.0000 0.18790  0.54440  0.81210  Biso   1.000  Re
  Cl22     1.0000 0.14400  0.47000  0.85600  Biso   1.000  Cl
  Re23     1.0000 0.81210  0.04440  0.68790  Biso   1.000  Re
  Cl23     1.0000 0.85600  0.97000  0.64400  Biso   1.000  Cl
  Re24     1.0000 0.81210  0.54440  0.18790  Biso   1.000  Re
  Cl24     1.0000 0.85600  0.47000  0.14400  Biso   1.000  Cl
  Re25     1.0000 0.31210  0.04440  0.18790  Biso   1.000  Re
  Cl25     1.0000 0.35600  0.97000  0.14400  Biso   1.000  Cl
  Re26     1.0000 0.18790  0.95560  0.68790  Biso   1.000  Re
  Cl26     1.0000 0.14400  0.03000  0.64400  Biso   1.000  Cl
  Re27     1.0000 0.18790  0.45560  0.18790  Biso   1.000  Re
  Cl27     1.0000 0.14400  0.53000  0.14400  Biso   1.000  Cl
  Re28     1.0000 0.81210  0.95560  0.31210  Biso   1.000  Re
  Cl28     1.0000 0.85600  0.03000  0.35600  Biso   1.000  Cl
  Re29     1.0000 0.81210  0.45560  0.81210  Biso   1.000  Re
  Cl29     1.0000 0.85600  0.53000  0.85600  Biso   1.000  Cl
  Re30     1.0000 0.31210  0.45560  0.31210  Biso   1.000  Re
  Cl30     1.0000 0.35600  0.53000  0.35600  Biso   1.000  Cl
  Re31     1.0000 0.18790  0.31210  0.95560  Biso   1.000  Re
  Cl31     1.0000 0.14400  0.35600  0.03000  Biso   1.000  Cl
  Re32     1.0000 0.18790  0.81210  0.45560  Biso   1.000  Re
  Cl32     1.0000 0.14400  0.85600  0.53000  Biso   1.000  Cl
  Re33     1.0000 0.81210  0.68790  0.95560  Biso   1.000  Re
  Cl33     1.0000 0.85600  0.64400  0.03000  Biso   1.000  Cl
  Re34     1.0000 0.81210  0.18790  0.45560  Biso   1.000  Re
  Cl34     1.0000 0.85600  0.14400  0.53000  Biso   1.000  Cl
  Re35     1.0000 0.31210  0.18790  0.95560  Biso   1.000  Re
  Cl35     1.0000 0.35600  0.14400  0.03000  Biso   1.000  Cl
  Re36     1.0000 0.18790  0.68790  0.04440  Biso   1.000  Re
  Cl36     1.0000 0.14400  0.64400  0.97000  Biso   1.000  Cl
  Re37     1.0000 0.18790  0.18790  0.54440  Biso   1.000  Re
  Cl37     1.0000 0.14400  0.14400  0.47000  Biso   1.000  Cl
  Re38     1.0000 0.81210  0.31210  0.04440  Biso   1.000  Re
  Cl38     1.0000 0.85600  0.35600  0.97000  Biso   1.000  Cl
  Re39     1.0000 0.81210  0.81210  0.54440  Biso   1.000  Re
  Cl39     1.0000 0.85600  0.85600  0.47000  Biso   1.000  Cl
  Re40     1.0000 0.31210  0.31210  0.54440  Biso   1.000  Re
  Cl40     1.0000 0.35600  0.35600  0.47000  Biso   1.000  Cl
  Re41     1.0000 0.31210  0.04440  0.81210  Biso   1.000  Re
  Cl41     1.0000 0.35600  0.97000  0.85600  Biso   1.000  Cl
  Re42     1.0000 0.31210  0.54440  0.31210  Biso   1.000  Re
  Cl42     1.0000 0.35600  0.47000  0.35600  Biso   1.000  Cl
  Re43     1.0000 0.68790  0.04440  0.18790  Biso   1.000  Re
  Cl43     1.0000 0.64400  0.97000  0.14400  Biso   1.000  Cl
  Re44     1.0000 0.68790  0.54440  0.68790  Biso   1.000  Re
  Cl44     1.0000 0.64400  0.47000  0.64400  Biso   1.000  Cl
  Re45     1.0000 0.18790  0.54440  0.18790  Biso   1.000  Re
  Cl45     1.0000 0.14400  0.47000  0.14400  Biso   1.000  Cl
  Re46     1.0000 0.68790  0.95560  0.81210  Biso   1.000  Re
  Cl46     1.0000 0.64400  0.03000  0.85600  Biso   1.000  Cl
  Re47     1.0000 0.68790  0.45560  0.31210  Biso   1.000  Re
  Cl47     1.0000 0.64400  0.53000  0.35600  Biso   1.000  Cl
  Re48     1.0000 0.18790  0.95560  0.31210  Biso   1.000  Re
  Cl48     1.0000 0.14400  0.03000  0.35600  Biso   1.000  Cl
  Re49     1.0000 0.31210  0.95560  0.18790  Biso   1.000  Re
  Cl49     1.0000 0.35600  0.03000  0.14400  Biso   1.000  Cl
  Re50     1.0000 0.31210  0.45560  0.68790  Biso   1.000  Re
  Cl50     1.0000 0.35600  0.53000  0.64400  Biso   1.000  Cl
  Re51     1.0000 0.04440  0.18790  0.68790  Biso   1.000  Re
  Cl51     1.0000 0.97000  0.14400  0.64400  Biso   1.000  Cl
  Re52     1.0000 0.54440  0.18790  0.18790  Biso   1.000  Re
  Cl52     1.0000 0.47000  0.14400  0.14400  Biso   1.000  Cl
  Re53     1.0000 0.04440  0.81210  0.31210  Biso   1.000  Re
  Cl53     1.0000 0.97000  0.85600  0.35600  Biso   1.000  Cl
  Re54     1.0000 0.54440  0.81210  0.81210  Biso   1.000  Re
  Cl54     1.0000 0.47000  0.85600  0.85600  Biso   1.000  Cl
  Re55     1.0000 0.54440  0.31210  0.31210  Biso   1.000  Re
  Cl55     1.0000 0.47000  0.35600  0.35600  Biso   1.000  Cl
  Re56     1.0000 0.95560  0.18790  0.31210  Biso   1.000  Re
  Cl56     1.0000 0.03000  0.14400  0.35600  Biso   1.000  Cl
  Re57     1.0000 0.45560  0.18790  0.81210  Biso   1.000  Re
  Cl57     1.0000 0.53000  0.14400  0.85600  Biso   1.000  Cl
  Re58     1.0000 0.95560  0.81210  0.68790  Biso   1.000  Re
  Cl58     1.0000 0.03000  0.85600  0.64400  Biso   1.000  Cl
  Re59     1.0000 0.95560  0.31210  0.18790  Biso   1.000  Re
  Cl59     1.0000 0.03000  0.35600  0.14400  Biso   1.000  Cl
  Re60     1.0000 0.45560  0.81210  0.18790  Biso   1.000  Re
  Cl60     1.0000 0.53000  0.85600  0.14400  Biso   1.000  Cl
  Re61     1.0000 0.68790  0.81210  0.95560  Biso   1.000  Re
  Cl61     1.0000 0.64400  0.85600  0.03000  Biso   1.000  Cl
  Re62     1.0000 0.68790  0.31210  0.45560  Biso   1.000  Re
  Cl62     1.0000 0.64400  0.35600  0.53000  Biso   1.000  Cl
  Re63     1.0000 0.31210  0.68790  0.45560  Biso   1.000  Re
  Cl63     1.0000 0.35600  0.64400  0.53000  Biso   1.000  Cl
  Re64     1.0000 0.31210  0.81210  0.04440  Biso   1.000  Re
  Cl64     1.0000 0.35600  0.85600  0.97000  Biso   1.000  Cl
  Re65     1.0000 0.68790  0.18790  0.04440  Biso   1.000  Re
  Cl65     1.0000 0.64400  0.14400  0.97000  Biso   1.000  Cl
  Re66     1.0000 0.68790  0.68790  0.54440  Biso   1.000  Re
  Cl66     1.0000 0.64400  0.64400  0.47000  Biso   1.000  Cl
  Re67     1.0000 0.95560  0.68790  0.81210  Biso   1.000  Re
  Cl67     1.0000 0.03000  0.64400  0.85600  Biso   1.000  Cl
  Re68     1.0000 0.45560  0.68790  0.31210  Biso   1.000  Re
  Cl68     1.0000 0.53000  0.64400  0.35600  Biso   1.000  Cl
  Re69     1.0000 0.45560  0.31210  0.68790  Biso   1.000  Re
  Cl69     1.0000 0.53000  0.35600  0.64400  Biso   1.000  Cl
  Re70     1.0000 0.04440  0.31210  0.81210  Biso   1.000  Re
  Cl70     1.0000 0.97000  0.35600  0.85600  Biso   1.000  Cl
  Re71     1.0000 0.04440  0.68790  0.18790  Biso   1.000  Re
  Cl71     1.0000 0.97000  0.64400  0.14400  Biso   1.000  Cl
  Re72     1.0000 0.54440  0.68790  0.68790  Biso   1.000  Re
  Cl72     1.0000 0.47000  0.64400  0.64400  Biso   1.000  Cl
  Re73     1.0000 0.81210  0.95560  0.68790  Biso   1.000  Re
  Cl73     1.0000 0.85600  0.03000  0.64400  Biso   1.000  Cl
  Re74     1.0000 0.81210  0.45560  0.18790  Biso   1.000  Re
  Cl74     1.0000 0.85600  0.53000  0.14400  Biso   1.000  Cl
  Re75     1.0000 0.18790  0.45560  0.81210  Biso   1.000  Re
  Cl75     1.0000 0.14400  0.53000  0.85600  Biso   1.000  Cl
  Re76     1.0000 0.81210  0.04440  0.31210  Biso   1.000  Re
  Cl76     1.0000 0.85600  0.97000  0.35600  Biso   1.000  Cl
  Re77     1.0000 0.81210  0.54440  0.81210  Biso   1.000  Re
  Cl77     1.0000 0.85600  0.47000  0.85600  Biso   1.000  Cl
  Re78     1.0000 0.18790  0.04440  0.68790  Biso   1.000  Re
  Cl78     1.0000 0.14400  0.97000  0.64400  Biso   1.000  Cl
  Re79     1.0000 0.81210  0.68790  0.04440  Biso   1.000  Re
  Cl79     1.0000 0.85600  0.64400  0.97000  Biso   1.000  Cl
  Re80     1.0000 0.81210  0.18790  0.54440  Biso   1.000  Re
  Cl80     1.0000 0.85600  0.14400  0.47000  Biso   1.000  Cl
  Re81     1.0000 0.18790  0.81210  0.54440  Biso   1.000  Re
  Cl81     1.0000 0.14400  0.85600  0.47000  Biso   1.000  Cl
  Re82     1.0000 0.81210  0.31210  0.95560  Biso   1.000  Re
  Cl82     1.0000 0.85600  0.35600  0.03000  Biso   1.000  Cl
  Re83     1.0000 0.81210  0.81210  0.45560  Biso   1.000  Re
  Cl83     1.0000 0.85600  0.85600  0.53000  Biso   1.000  Cl
  Re84     1.0000 0.18790  0.68790  0.95560  Biso   1.000  Re
  Cl84     1.0000 0.14400  0.64400  0.03000  Biso   1.000  Cl
  Re85     1.0000 0.68790  0.95560  0.18790  Biso   1.000  Re
  Cl85     1.0000 0.64400  0.03000  0.14400  Biso   1.000  Cl
  Re86     1.0000 0.68790  0.45560  0.68790  Biso   1.000  Re
  Cl86     1.0000 0.64400  0.53000  0.64400  Biso   1.000  Cl
  Re87     1.0000 0.31210  0.95560  0.81210  Biso   1.000  Re
  Cl87     1.0000 0.35600  0.03000  0.85600  Biso   1.000  Cl
  Re88     1.0000 0.31210  0.54440  0.68790  Biso   1.000  Re
  Cl88     1.0000 0.35600  0.47000  0.64400  Biso   1.000  Cl
  Re89     1.0000 0.68790  0.04440  0.81210  Biso   1.000  Re
  Cl89     1.0000 0.64400  0.97000  0.85600  Biso   1.000  Cl
  Re90     1.0000 0.68790  0.54440  0.31210  Biso   1.000  Re
  Cl90     1.0000 0.64400  0.47000  0.35600  Biso   1.000  Cl
  Re91     1.0000 0.95560  0.81210  0.31210  Biso   1.000  Re
  Cl91     1.0000 0.03000  0.85600  0.35600  Biso   1.000  Cl
  Re92     1.0000 0.45560  0.81210  0.81210  Biso   1.000  Re
  Cl92     1.0000 0.53000  0.85600  0.85600  Biso   1.000  Cl
  Re93     1.0000 0.95560  0.18790  0.68790  Biso   1.000  Re
  Cl93     1.0000 0.03000  0.14400  0.64400  Biso   1.000  Cl
  Re94     1.0000 0.04440  0.81210  0.68790  Biso   1.000  Re
  Cl94     1.0000 0.97000  0.85600  0.64400  Biso   1.000  Cl
  Re95     1.0000 0.54440  0.81210  0.18790  Biso   1.000  Re
  Cl95     1.0000 0.47000  0.85600  0.14400  Biso   1.000  Cl
  Re96     1.0000 0.54440  0.18790  0.81210  Biso   1.000  Re
  Cl96     1.0000 0.47000  0.14400  0.85600  Biso   1.000  Cl
