data_image0
_cell_length_a       25.616
_cell_length_b       28.157
_cell_length_c       40.549
_cell_angle_alpha    90
_cell_angle_beta     90
_cell_angle_gamma    90

_symmetry_space_group_name_H-M    "P 1"
_symmetry_int_tables_number       1

loop_
  _symmetry_equiv_pos_as_xyz
  'x, y, z'

loop_
  _atom_site_label
  _atom_site_occupancy
  _atom_site_fract_x
  _atom_site_fract_y
  _atom_site_fract_z
  _atom_site_thermal_displace_type
  _atom_site_B_iso_or_equiv
  _atom_site_type_symbol
  C1       1.0000 0.80090  0.06550  0.27895  Biso   1.000  C
  C2       1.0000 0.82710  0.10690  0.29557  Biso   1.000  C
  C3       1.0000 0.86630  0.13070  0.27953  Biso   1.000  C
  H1       1.0000 0.87730  0.12090  0.25880  Biso   1.000  H
  C4       1.0000 0.88920  0.16920  0.29460  Biso   1.000  C
  C5       1.0000 0.93050  0.19960  0.27690  Biso   1.000  C
  C6       1.0000 0.81150  0.12070  0.32705  Biso   1.000  C
  H2       1.0000 0.78500  0.10400  0.33760  Biso   1.000  H
  C7       1.0000 0.87380  0.18270  0.32601  Biso   1.000  C
  H3       1.0000 0.89020  0.20850  0.33600  Biso   1.000  H
  C8       1.0000 0.83460  0.15890  0.34295  Biso   1.000  C
  C9       1.0000 0.81770  0.17420  0.37636  Biso   1.000  C
  C10      1.0000 0.76650  0.17010  0.38673  Biso   1.000  C
  H4       1.0000 0.74250  0.15530  0.37290  Biso   1.000  H
  C11      1.0000 0.85160  0.19630  0.39759  Biso   1.000  C
  H5       1.0000 0.88640  0.19950  0.39140  Biso   1.000  H
  C12      1.0000 0.74960  0.18710  0.41673  Biso   1.000  C
  H6       1.0000 0.71480  0.18370  0.42280  Biso   1.000  H
  C13      1.0000 0.83550  0.21420  0.42843  Biso   1.000  C
  H7       1.0000 0.85940  0.22910  0.44230  Biso   1.000  H
  C14      1.0000 0.78430  0.20940  0.43792  Biso   1.000  C
  C15      1.0000 0.76700  0.23030  0.47023  Biso   1.000  C
  H8       1.0000 0.82260  0.15450  0.52230  Biso   1.000  H
  H9       1.0000 0.84880  0.17110  0.48930  Biso   1.000  H
  H10      1.0000 0.79870  0.13920  0.48840  Biso   1.000  H
  O1       1.0000 0.81920  0.05000  0.25239  Biso   1.000  O
  O2       1.0000 0.74007  0.95120  0.20712  Biso   1.000  O
  O3       1.0000 0.05421  0.26430  0.20857  Biso   1.000  O
  O4       1.0000 0.94584  0.18500  0.24947  Biso   1.000  O
  C16      1.0000 0.80090  0.56550  0.77895  Biso   1.000  C
  C17      1.0000 0.82710  0.60690  0.79557  Biso   1.000  C
  C18      1.0000 0.86630  0.63070  0.77953  Biso   1.000  C
  H11      1.0000 0.87730  0.62090  0.75880  Biso   1.000  H
  C19      1.0000 0.88920  0.66920  0.79460  Biso   1.000  C
  C20      1.0000 0.93050  0.69960  0.77690  Biso   1.000  C
  C21      1.0000 0.81150  0.62070  0.82705  Biso   1.000  C
  H12      1.0000 0.78500  0.60400  0.83760  Biso   1.000  H
  C22      1.0000 0.87380  0.68270  0.82601  Biso   1.000  C
  H13      1.0000 0.89020  0.70850  0.83600  Biso   1.000  H
  C23      1.0000 0.83460  0.65890  0.84295  Biso   1.000  C
  C24      1.0000 0.81770  0.67420  0.87636  Biso   1.000  C
  C25      1.0000 0.76650  0.67010  0.88673  Biso   1.000  C
  H14      1.0000 0.74250  0.65530  0.87290  Biso   1.000  H
  C26      1.0000 0.85160  0.69630  0.89759  Biso   1.000  C
  H15      1.0000 0.88640  0.69950  0.89140  Biso   1.000  H
  C27      1.0000 0.74960  0.68710  0.91673  Biso   1.000  C
  H16      1.0000 0.71480  0.68370  0.92280  Biso   1.000  H
  C28      1.0000 0.83550  0.71420  0.92843  Biso   1.000  C
  H17      1.0000 0.85940  0.72910  0.94230  Biso   1.000  H
  C29      1.0000 0.78430  0.70940  0.93792  Biso   1.000  C
  C30      1.0000 0.76700  0.73030  0.97023  Biso   1.000  C
  H18      1.0000 0.82260  0.65450  0.02230  Biso   1.000  H
  H19      1.0000 0.84880  0.67110  0.98930  Biso   1.000  H
  H20      1.0000 0.79870  0.63920  0.98840  Biso   1.000  H
  O5       1.0000 0.81920  0.55000  0.75239  Biso   1.000  O
  O6       1.0000 0.74007  0.45120  0.70712  Biso   1.000  O
  O7       1.0000 0.05421  0.76430  0.70857  Biso   1.000  O
  O8       1.0000 0.94584  0.68500  0.74947  Biso   1.000  O
  C31      1.0000 0.30090  0.06550  0.77895  Biso   1.000  C
  C32      1.0000 0.32710  0.10690  0.79557  Biso   1.000  C
  C33      1.0000 0.36630  0.13070  0.77953  Biso   1.000  C
  H21      1.0000 0.37730  0.12090  0.75880  Biso   1.000  H
  C34      1.0000 0.38920  0.16920  0.79460  Biso   1.000  C
  C35      1.0000 0.43050  0.19960  0.77690  Biso   1.000  C
  C36      1.0000 0.31150  0.12070  0.82705  Biso   1.000  C
  H22      1.0000 0.28500  0.10400  0.83760  Biso   1.000  H
  C37      1.0000 0.37380  0.18270  0.82601  Biso   1.000  C
  H23      1.0000 0.39020  0.20850  0.83600  Biso   1.000  H
  C38      1.0000 0.33460  0.15890  0.84295  Biso   1.000  C
  C39      1.0000 0.31770  0.17420  0.87636  Biso   1.000  C
  C40      1.0000 0.26650  0.17010  0.88673  Biso   1.000  C
  H24      1.0000 0.24250  0.15530  0.87290  Biso   1.000  H
  C41      1.0000 0.35160  0.19630  0.89759  Biso   1.000  C
  H25      1.0000 0.38640  0.19950  0.89140  Biso   1.000  H
  C42      1.0000 0.24960  0.18710  0.91673  Biso   1.000  C
  H26      1.0000 0.21480  0.18370  0.92280  Biso   1.000  H
  C43      1.0000 0.33550  0.21420  0.92843  Biso   1.000  C
  H27      1.0000 0.35940  0.22910  0.94230  Biso   1.000  H
  C44      1.0000 0.28430  0.20940  0.93792  Biso   1.000  C
  C45      1.0000 0.26700  0.23030  0.97023  Biso   1.000  C
  H28      1.0000 0.32260  0.15450  0.02230  Biso   1.000  H
  H29      1.0000 0.34880  0.17110  0.98930  Biso   1.000  H
  H30      1.0000 0.29870  0.13920  0.98840  Biso   1.000  H
  O9       1.0000 0.31920  0.05000  0.75239  Biso   1.000  O
  O10      1.0000 0.24007  0.95120  0.70712  Biso   1.000  O
  O11      1.0000 0.55421  0.26430  0.70857  Biso   1.000  O
  O12      1.0000 0.44584  0.18500  0.74947  Biso   1.000  O
  C46      1.0000 0.30090  0.56550  0.27895  Biso   1.000  C
  C47      1.0000 0.32710  0.60690  0.29557  Biso   1.000  C
  C48      1.0000 0.36630  0.63070  0.27953  Biso   1.000  C
  H31      1.0000 0.37730  0.62090  0.25880  Biso   1.000  H
  C49      1.0000 0.38920  0.66920  0.29460  Biso   1.000  C
  C50      1.0000 0.43050  0.69960  0.27690  Biso   1.000  C
  C51      1.0000 0.31150  0.62070  0.32705  Biso   1.000  C
  H32      1.0000 0.28500  0.60400  0.33760  Biso   1.000  H
  C52      1.0000 0.37380  0.68270  0.32601  Biso   1.000  C
  H33      1.0000 0.39020  0.70850  0.33600  Biso   1.000  H
  C53      1.0000 0.33460  0.65890  0.34295  Biso   1.000  C
  C54      1.0000 0.31770  0.67420  0.37636  Biso   1.000  C
  C55      1.0000 0.26650  0.67010  0.38673  Biso   1.000  C
  H34      1.0000 0.24250  0.65530  0.37290  Biso   1.000  H
  C56      1.0000 0.35160  0.69630  0.39759  Biso   1.000  C
  H35      1.0000 0.38640  0.69950  0.39140  Biso   1.000  H
  C57      1.0000 0.24960  0.68710  0.41673  Biso   1.000  C
  H36      1.0000 0.21480  0.68370  0.42280  Biso   1.000  H
  C58      1.0000 0.33550  0.71420  0.42843  Biso   1.000  C
  H37      1.0000 0.35940  0.72910  0.44230  Biso   1.000  H
  C59      1.0000 0.28430  0.70940  0.43792  Biso   1.000  C
  C60      1.0000 0.26700  0.73030  0.47023  Biso   1.000  C
  H38      1.0000 0.32260  0.65450  0.52230  Biso   1.000  H
  H39      1.0000 0.34880  0.67110  0.48930  Biso   1.000  H
  H40      1.0000 0.29870  0.63920  0.48840  Biso   1.000  H
  O13      1.0000 0.31920  0.55000  0.25239  Biso   1.000  O
  O14      1.0000 0.24007  0.45120  0.20712  Biso   1.000  O
  O15      1.0000 0.55421  0.76430  0.20857  Biso   1.000  O
  O16      1.0000 0.44584  0.68500  0.24947  Biso   1.000  O
  C61      1.0000 0.19910  0.93450  0.27895  Biso   1.000  C
  C62      1.0000 0.17290  0.89310  0.29557  Biso   1.000  C
  C63      1.0000 0.13370  0.86930  0.27953  Biso   1.000  C
  H41      1.0000 0.12270  0.87910  0.25880  Biso   1.000  H
  C64      1.0000 0.11080  0.83080  0.29460  Biso   1.000  C
  C65      1.0000 0.06950  0.80040  0.27690  Biso   1.000  C
  C66      1.0000 0.18850  0.87930  0.32705  Biso   1.000  C
  H42      1.0000 0.21500  0.89600  0.33760  Biso   1.000  H
  C67      1.0000 0.12620  0.81730  0.32601  Biso   1.000  C
  H43      1.0000 0.10980  0.79150  0.33600  Biso   1.000  H
  C68      1.0000 0.16540  0.84110  0.34295  Biso   1.000  C
  C69      1.0000 0.18230  0.82580  0.37636  Biso   1.000  C
  C70      1.0000 0.23350  0.82990  0.38673  Biso   1.000  C
  H44      1.0000 0.25750  0.84470  0.37290  Biso   1.000  H
  C71      1.0000 0.14840  0.80370  0.39759  Biso   1.000  C
  H45      1.0000 0.11360  0.80050  0.39140  Biso   1.000  H
  C72      1.0000 0.25040  0.81290  0.41673  Biso   1.000  C
  H46      1.0000 0.28520  0.81630  0.42280  Biso   1.000  H
  C73      1.0000 0.16450  0.78580  0.42843  Biso   1.000  C
  H47      1.0000 0.14060  0.77090  0.44230  Biso   1.000  H
  C74      1.0000 0.21570  0.79060  0.43792  Biso   1.000  C
  C75      1.0000 0.23300  0.76970  0.47023  Biso   1.000  C
  H48      1.0000 0.17740  0.84550  0.52230  Biso   1.000  H
  H49      1.0000 0.15120  0.82890  0.48930  Biso   1.000  H
  H50      1.0000 0.20130  0.86080  0.48840  Biso   1.000  H
  O17      1.0000 0.18080  0.95000  0.25239  Biso   1.000  O
  O18      1.0000 0.25993  0.04880  0.20712  Biso   1.000  O
  O19      1.0000 0.94579  0.73570  0.20857  Biso   1.000  O
  O20      1.0000 0.05416  0.81500  0.24947  Biso   1.000  O
  C76      1.0000 0.19910  0.43450  0.77895  Biso   1.000  C
  C77      1.0000 0.17290  0.39310  0.79557  Biso   1.000  C
  C78      1.0000 0.13370  0.36930  0.77953  Biso   1.000  C
  H51      1.0000 0.12270  0.37910  0.75880  Biso   1.000  H
  C79      1.0000 0.11080  0.33080  0.79460  Biso   1.000  C
  C80      1.0000 0.06950  0.30040  0.77690  Biso   1.000  C
  C81      1.0000 0.18850  0.37930  0.82705  Biso   1.000  C
  H52      1.0000 0.21500  0.39600  0.83760  Biso   1.000  H
  C82      1.0000 0.12620  0.31730  0.82601  Biso   1.000  C
  H53      1.0000 0.10980  0.29150  0.83600  Biso   1.000  H
  C83      1.0000 0.16540  0.34110  0.84295  Biso   1.000  C
  C84      1.0000 0.18230  0.32580  0.87636  Biso   1.000  C
  C85      1.0000 0.23350  0.32990  0.88673  Biso   1.000  C
  H54      1.0000 0.25750  0.34470  0.87290  Biso   1.000  H
  C86      1.0000 0.14840  0.30370  0.89759  Biso   1.000  C
  H55      1.0000 0.11360  0.30050  0.89140  Biso   1.000  H
  C87      1.0000 0.25040  0.31290  0.91673  Biso   1.000  C
  H56      1.0000 0.28520  0.31630  0.92280  Biso   1.000  H
  C88      1.0000 0.16450  0.28580  0.92843  Biso   1.000  C
  H57      1.0000 0.14060  0.27090  0.94230  Biso   1.000  H
  C89      1.0000 0.21570  0.29060  0.93792  Biso   1.000  C
  C90      1.0000 0.23300  0.26970  0.97023  Biso   1.000  C
  H58      1.0000 0.17740  0.34550  0.02230  Biso   1.000  H
  H59      1.0000 0.15120  0.32890  0.98930  Biso   1.000  H
  H60      1.0000 0.20130  0.36080  0.98840  Biso   1.000  H
  O21      1.0000 0.18080  0.45000  0.75239  Biso   1.000  O
  O22      1.0000 0.25993  0.54880  0.70712  Biso   1.000  O
  O23      1.0000 0.94579  0.23570  0.70857  Biso   1.000  O
  O24      1.0000 0.05416  0.31500  0.74947  Biso   1.000  O
  C91      1.0000 0.69910  0.93450  0.77895  Biso   1.000  C
  C92      1.0000 0.67290  0.89310  0.79557  Biso   1.000  C
  C93      1.0000 0.63370  0.86930  0.77953  Biso   1.000  C
  H61      1.0000 0.62270  0.87910  0.75880  Biso   1.000  H
  C94      1.0000 0.61080  0.83080  0.79460  Biso   1.000  C
  C95      1.0000 0.56950  0.80040  0.77690  Biso   1.000  C
  C96      1.0000 0.68850  0.87930  0.82705  Biso   1.000  C
  H62      1.0000 0.71500  0.89600  0.83760  Biso   1.000  H
  C97      1.0000 0.62620  0.81730  0.82601  Biso   1.000  C
  H63      1.0000 0.60980  0.79150  0.83600  Biso   1.000  H
  C98      1.0000 0.66540  0.84110  0.84295  Biso   1.000  C
  C99      1.0000 0.68230  0.82580  0.87636  Biso   1.000  C
  C100     1.0000 0.73350  0.82990  0.88673  Biso   1.000  C
  H64      1.0000 0.75750  0.84470  0.87290  Biso   1.000  H
  C101     1.0000 0.64840  0.80370  0.89759  Biso   1.000  C
  H65      1.0000 0.61360  0.80050  0.89140  Biso   1.000  H
  C102     1.0000 0.75040  0.81290  0.91673  Biso   1.000  C
  H66      1.0000 0.78520  0.81630  0.92280  Biso   1.000  H
  C103     1.0000 0.66450  0.78580  0.92843  Biso   1.000  C
  H67      1.0000 0.64060  0.77090  0.94230  Biso   1.000  H
  C104     1.0000 0.71570  0.79060  0.93792  Biso   1.000  C
  C105     1.0000 0.73300  0.76970  0.97023  Biso   1.000  C
  H68      1.0000 0.67740  0.84550  0.02230  Biso   1.000  H
  H69      1.0000 0.65120  0.82890  0.98930  Biso   1.000  H
  H70      1.0000 0.70130  0.86080  0.98840  Biso   1.000  H
  O25      1.0000 0.68080  0.95000  0.75239  Biso   1.000  O
  O26      1.0000 0.75993  0.04880  0.70712  Biso   1.000  O
  O27      1.0000 0.44579  0.73570  0.70857  Biso   1.000  O
  O28      1.0000 0.55416  0.81500  0.74947  Biso   1.000  O
  C106     1.0000 0.69910  0.43450  0.27895  Biso   1.000  C
  C107     1.0000 0.67290  0.39310  0.29557  Biso   1.000  C
  C108     1.0000 0.63370  0.36930  0.27953  Biso   1.000  C
  H71      1.0000 0.62270  0.37910  0.25880  Biso   1.000  H
  C109     1.0000 0.61080  0.33080  0.29460  Biso   1.000  C
  C110     1.0000 0.56950  0.30040  0.27690  Biso   1.000  C
  C111     1.0000 0.68850  0.37930  0.32705  Biso   1.000  C
  H72      1.0000 0.71500  0.39600  0.33760  Biso   1.000  H
  C112     1.0000 0.62620  0.31730  0.32601  Biso   1.000  C
  H73      1.0000 0.60980  0.29150  0.33600  Biso   1.000  H
  C113     1.0000 0.66540  0.34110  0.34295  Biso   1.000  C
  C114     1.0000 0.68230  0.32580  0.37636  Biso   1.000  C
  C115     1.0000 0.73350  0.32990  0.38673  Biso   1.000  C
  H74      1.0000 0.75750  0.34470  0.37290  Biso   1.000  H
  C116     1.0000 0.64840  0.30370  0.39759  Biso   1.000  C
  H75      1.0000 0.61360  0.30050  0.39140  Biso   1.000  H
  C117     1.0000 0.75040  0.31290  0.41673  Biso   1.000  C
  H76      1.0000 0.78520  0.31630  0.42280  Biso   1.000  H
  C118     1.0000 0.66450  0.28580  0.42843  Biso   1.000  C
  H77      1.0000 0.64060  0.27090  0.44230  Biso   1.000  H
  C119     1.0000 0.71570  0.29060  0.43792  Biso   1.000  C
  C120     1.0000 0.73300  0.26970  0.47023  Biso   1.000  C
  H78      1.0000 0.67740  0.34550  0.52230  Biso   1.000  H
  H79      1.0000 0.65120  0.32890  0.48930  Biso   1.000  H
  H80      1.0000 0.70130  0.36080  0.48840  Biso   1.000  H
  O29      1.0000 0.68080  0.45000  0.25239  Biso   1.000  O
  O30      1.0000 0.75993  0.54880  0.20712  Biso   1.000  O
  O31      1.0000 0.44579  0.23570  0.20857  Biso   1.000  O
  O32      1.0000 0.55416  0.31500  0.24947  Biso   1.000  O
  C121     1.0000 0.19910  0.06550  0.72105  Biso   1.000  C
  C122     1.0000 0.17290  0.10690  0.70443  Biso   1.000  C
  C123     1.0000 0.13370  0.13070  0.72047  Biso   1.000  C
  H81      1.0000 0.12270  0.12090  0.74120  Biso   1.000  H
  C124     1.0000 0.11080  0.16920  0.70540  Biso   1.000  C
  C125     1.0000 0.06950  0.19960  0.72310  Biso   1.000  C
  C126     1.0000 0.18850  0.12070  0.67295  Biso   1.000  C
  H82      1.0000 0.21500  0.10400  0.66240  Biso   1.000  H
  C127     1.0000 0.12620  0.18270  0.67399  Biso   1.000  C
  H83      1.0000 0.10980  0.20850  0.66400  Biso   1.000  H
  C128     1.0000 0.16540  0.15890  0.65705  Biso   1.000  C
  C129     1.0000 0.18230  0.17420  0.62364  Biso   1.000  C
  C130     1.0000 0.23350  0.17010  0.61327  Biso   1.000  C
  H84      1.0000 0.25750  0.15530  0.62710  Biso   1.000  H
  C131     1.0000 0.14840  0.19630  0.60241  Biso   1.000  C
  H85      1.0000 0.11360  0.19950  0.60860  Biso   1.000  H
  C132     1.0000 0.25040  0.18710  0.58327  Biso   1.000  C
  H86      1.0000 0.28520  0.18370  0.57720  Biso   1.000  H
  C133     1.0000 0.16450  0.21420  0.57157  Biso   1.000  C
  H87      1.0000 0.14060  0.22910  0.55770  Biso   1.000  H
  C134     1.0000 0.21570  0.20940  0.56208  Biso   1.000  C
  C135     1.0000 0.23300  0.23030  0.52977  Biso   1.000  C
  H88      1.0000 0.17740  0.15450  0.47770  Biso   1.000  H
  H89      1.0000 0.15120  0.17110  0.51070  Biso   1.000  H
  H90      1.0000 0.20130  0.13920  0.51160  Biso   1.000  H
  O33      1.0000 0.18080  0.05000  0.74761  Biso   1.000  O
  O34      1.0000 0.25993  0.95120  0.79288  Biso   1.000  O
  O35      1.0000 0.94579  0.26430  0.79143  Biso   1.000  O
  O36      1.0000 0.05416  0.18500  0.75053  Biso   1.000  O
  C136     1.0000 0.19910  0.56550  0.22105  Biso   1.000  C
  C137     1.0000 0.17290  0.60690  0.20443  Biso   1.000  C
  C138     1.0000 0.13370  0.63070  0.22047  Biso   1.000  C
  H91      1.0000 0.12270  0.62090  0.24120  Biso   1.000  H
  C139     1.0000 0.11080  0.66920  0.20540  Biso   1.000  C
  C140     1.0000 0.06950  0.69960  0.22310  Biso   1.000  C
  C141     1.0000 0.18850  0.62070  0.17295  Biso   1.000  C
  H92      1.0000 0.21500  0.60400  0.16240  Biso   1.000  H
  C142     1.0000 0.12620  0.68270  0.17399  Biso   1.000  C
  H93      1.0000 0.10980  0.70850  0.16400  Biso   1.000  H
  C143     1.0000 0.16540  0.65890  0.15705  Biso   1.000  C
  C144     1.0000 0.18230  0.67420  0.12364  Biso   1.000  C
  C145     1.0000 0.23350  0.67010  0.11327  Biso   1.000  C
  H94      1.0000 0.25750  0.65530  0.12710  Biso   1.000  H
  C146     1.0000 0.14840  0.69630  0.10241  Biso   1.000  C
  H95      1.0000 0.11360  0.69950  0.10860  Biso   1.000  H
  C147     1.0000 0.25040  0.68710  0.08327  Biso   1.000  C
  H96      1.0000 0.28520  0.68370  0.07720  Biso   1.000  H
  C148     1.0000 0.16450  0.71420  0.07157  Biso   1.000  C
  H97      1.0000 0.14060  0.72910  0.05770  Biso   1.000  H
  C149     1.0000 0.21570  0.70940  0.06208  Biso   1.000  C
  C150     1.0000 0.23300  0.73030  0.02977  Biso   1.000  C
  H98      1.0000 0.17740  0.65450  0.97770  Biso   1.000  H
  H99      1.0000 0.15120  0.67110  0.01070  Biso   1.000  H
  H100     1.0000 0.20130  0.63920  0.01160  Biso   1.000  H
  O37      1.0000 0.18080  0.55000  0.24761  Biso   1.000  O
  O38      1.0000 0.25993  0.45120  0.29288  Biso   1.000  O
  O39      1.0000 0.94579  0.76430  0.29143  Biso   1.000  O
  O40      1.0000 0.05416  0.68500  0.25053  Biso   1.000  O
  C151     1.0000 0.69910  0.06550  0.22105  Biso   1.000  C
  C152     1.0000 0.67290  0.10690  0.20443  Biso   1.000  C
  C153     1.0000 0.63370  0.13070  0.22047  Biso   1.000  C
  H101     1.0000 0.62270  0.12090  0.24120  Biso   1.000  H
  C154     1.0000 0.61080  0.16920  0.20540  Biso   1.000  C
  C155     1.0000 0.56950  0.19960  0.22310  Biso   1.000  C
  C156     1.0000 0.68850  0.12070  0.17295  Biso   1.000  C
  H102     1.0000 0.71500  0.10400  0.16240  Biso   1.000  H
  C157     1.0000 0.62620  0.18270  0.17399  Biso   1.000  C
  H103     1.0000 0.60980  0.20850  0.16400  Biso   1.000  H
  C158     1.0000 0.66540  0.15890  0.15705  Biso   1.000  C
  C159     1.0000 0.68230  0.17420  0.12364  Biso   1.000  C
  C160     1.0000 0.73350  0.17010  0.11327  Biso   1.000  C
  H104     1.0000 0.75750  0.15530  0.12710  Biso   1.000  H
  C161     1.0000 0.64840  0.19630  0.10241  Biso   1.000  C
  H105     1.0000 0.61360  0.19950  0.10860  Biso   1.000  H
  C162     1.0000 0.75040  0.18710  0.08327  Biso   1.000  C
  H106     1.0000 0.78520  0.18370  0.07720  Biso   1.000  H
  C163     1.0000 0.66450  0.21420  0.07157  Biso   1.000  C
  H107     1.0000 0.64060  0.22910  0.05770  Biso   1.000  H
  C164     1.0000 0.71570  0.20940  0.06208  Biso   1.000  C
  C165     1.0000 0.73300  0.23030  0.02977  Biso   1.000  C
  H108     1.0000 0.67740  0.15450  0.97770  Biso   1.000  H
  H109     1.0000 0.65120  0.17110  0.01070  Biso   1.000  H
  H110     1.0000 0.70130  0.13920  0.01160  Biso   1.000  H
  O41      1.0000 0.68080  0.05000  0.24761  Biso   1.000  O
  O42      1.0000 0.75993  0.95120  0.29288  Biso   1.000  O
  O43      1.0000 0.44579  0.26430  0.29143  Biso   1.000  O
  O44      1.0000 0.55416  0.18500  0.25053  Biso   1.000  O
  C166     1.0000 0.69910  0.56550  0.72105  Biso   1.000  C
  C167     1.0000 0.67290  0.60690  0.70443  Biso   1.000  C
  C168     1.0000 0.63370  0.63070  0.72047  Biso   1.000  C
  H111     1.0000 0.62270  0.62090  0.74120  Biso   1.000  H
  C169     1.0000 0.61080  0.66920  0.70540  Biso   1.000  C
  C170     1.0000 0.56950  0.69960  0.72310  Biso   1.000  C
  C171     1.0000 0.68850  0.62070  0.67295  Biso   1.000  C
  H112     1.0000 0.71500  0.60400  0.66240  Biso   1.000  H
  C172     1.0000 0.62620  0.68270  0.67399  Biso   1.000  C
  H113     1.0000 0.60980  0.70850  0.66400  Biso   1.000  H
  C173     1.0000 0.66540  0.65890  0.65705  Biso   1.000  C
  C174     1.0000 0.68230  0.67420  0.62364  Biso   1.000  C
  C175     1.0000 0.73350  0.67010  0.61327  Biso   1.000  C
  H114     1.0000 0.75750  0.65530  0.62710  Biso   1.000  H
  C176     1.0000 0.64840  0.69630  0.60241  Biso   1.000  C
  H115     1.0000 0.61360  0.69950  0.60860  Biso   1.000  H
  C177     1.0000 0.75040  0.68710  0.58327  Biso   1.000  C
  H116     1.0000 0.78520  0.68370  0.57720  Biso   1.000  H
  C178     1.0000 0.66450  0.71420  0.57157  Biso   1.000  C
  H117     1.0000 0.64060  0.72910  0.55770  Biso   1.000  H
  C179     1.0000 0.71570  0.70940  0.56208  Biso   1.000  C
  C180     1.0000 0.73300  0.73030  0.52977  Biso   1.000  C
  H118     1.0000 0.67740  0.65450  0.47770  Biso   1.000  H
  H119     1.0000 0.65120  0.67110  0.51070  Biso   1.000  H
  H120     1.0000 0.70130  0.63920  0.51160  Biso   1.000  H
  O45      1.0000 0.68080  0.55000  0.74761  Biso   1.000  O
  O46      1.0000 0.75993  0.45120  0.79288  Biso   1.000  O
  O47      1.0000 0.44579  0.76430  0.79143  Biso   1.000  O
  O48      1.0000 0.55416  0.68500  0.75053  Biso   1.000  O
  C181     1.0000 0.80090  0.93450  0.72105  Biso   1.000  C
  C182     1.0000 0.82710  0.89310  0.70443  Biso   1.000  C
  C183     1.0000 0.86630  0.86930  0.72047  Biso   1.000  C
  H121     1.0000 0.87730  0.87910  0.74120  Biso   1.000  H
  C184     1.0000 0.88920  0.83080  0.70540  Biso   1.000  C
  C185     1.0000 0.93050  0.80040  0.72310  Biso   1.000  C
  C186     1.0000 0.81150  0.87930  0.67295  Biso   1.000  C
  H122     1.0000 0.78500  0.89600  0.66240  Biso   1.000  H
  C187     1.0000 0.87380  0.81730  0.67399  Biso   1.000  C
  H123     1.0000 0.89020  0.79150  0.66400  Biso   1.000  H
  C188     1.0000 0.83460  0.84110  0.65705  Biso   1.000  C
  C189     1.0000 0.81770  0.82580  0.62364  Biso   1.000  C
  C190     1.0000 0.76650  0.82990  0.61327  Biso   1.000  C
  H124     1.0000 0.74250  0.84470  0.62710  Biso   1.000  H
  C191     1.0000 0.85160  0.80370  0.60241  Biso   1.000  C
  H125     1.0000 0.88640  0.80050  0.60860  Biso   1.000  H
  C192     1.0000 0.74960  0.81290  0.58327  Biso   1.000  C
  H126     1.0000 0.71480  0.81630  0.57720  Biso   1.000  H
  C193     1.0000 0.83550  0.78580  0.57157  Biso   1.000  C
  H127     1.0000 0.85940  0.77090  0.55770  Biso   1.000  H
  C194     1.0000 0.78430  0.79060  0.56208  Biso   1.000  C
  C195     1.0000 0.76700  0.76970  0.52977  Biso   1.000  C
  H128     1.0000 0.82260  0.84550  0.47770  Biso   1.000  H
  H129     1.0000 0.84880  0.82890  0.51070  Biso   1.000  H
  H130     1.0000 0.79870  0.86080  0.51160  Biso   1.000  H
  O49      1.0000 0.81920  0.95000  0.74761  Biso   1.000  O
  O50      1.0000 0.74007  0.04880  0.79288  Biso   1.000  O
  O51      1.0000 0.05421  0.73570  0.79143  Biso   1.000  O
  O52      1.0000 0.94584  0.81500  0.75053  Biso   1.000  O
  C196     1.0000 0.80090  0.43450  0.22105  Biso   1.000  C
  C197     1.0000 0.82710  0.39310  0.20443  Biso   1.000  C
  C198     1.0000 0.86630  0.36930  0.22047  Biso   1.000  C
  H131     1.0000 0.87730  0.37910  0.24120  Biso   1.000  H
  C199     1.0000 0.88920  0.33080  0.20540  Biso   1.000  C
  C200     1.0000 0.93050  0.30040  0.22310  Biso   1.000  C
  C201     1.0000 0.81150  0.37930  0.17295  Biso   1.000  C
  H132     1.0000 0.78500  0.39600  0.16240  Biso   1.000  H
  C202     1.0000 0.87380  0.31730  0.17399  Biso   1.000  C
  H133     1.0000 0.89020  0.29150  0.16400  Biso   1.000  H
  C203     1.0000 0.83460  0.34110  0.15705  Biso   1.000  C
  C204     1.0000 0.81770  0.32580  0.12364  Biso   1.000  C
  C205     1.0000 0.76650  0.32990  0.11327  Biso   1.000  C
  H134     1.0000 0.74250  0.34470  0.12710  Biso   1.000  H
  C206     1.0000 0.85160  0.30370  0.10241  Biso   1.000  C
  H135     1.0000 0.88640  0.30050  0.10860  Biso   1.000  H
  C207     1.0000 0.74960  0.31290  0.08327  Biso   1.000  C
  H136     1.0000 0.71480  0.31630  0.07720  Biso   1.000  H
  C208     1.0000 0.83550  0.28580  0.07157  Biso   1.000  C
  H137     1.0000 0.85940  0.27090  0.05770  Biso   1.000  H
  C209     1.0000 0.78430  0.29060  0.06208  Biso   1.000  C
  C210     1.0000 0.76700  0.26970  0.02977  Biso   1.000  C
  H138     1.0000 0.82260  0.34550  0.97770  Biso   1.000  H
  H139     1.0000 0.84880  0.32890  0.01070  Biso   1.000  H
  H140     1.0000 0.79870  0.36080  0.01160  Biso   1.000  H
  O53      1.0000 0.81920  0.45000  0.24761  Biso   1.000  O
  O54      1.0000 0.74007  0.54880  0.29288  Biso   1.000  O
  O55      1.0000 0.05421  0.23570  0.29143  Biso   1.000  O
  O56      1.0000 0.94584  0.31500  0.25053  Biso   1.000  O
  C211     1.0000 0.30090  0.93450  0.22105  Biso   1.000  C
  C212     1.0000 0.32710  0.89310  0.20443  Biso   1.000  C
  C213     1.0000 0.36630  0.86930  0.22047  Biso   1.000  C
  H141     1.0000 0.37730  0.87910  0.24120  Biso   1.000  H
  C214     1.0000 0.38920  0.83080  0.20540  Biso   1.000  C
  C215     1.0000 0.43050  0.80040  0.22310  Biso   1.000  C
  C216     1.0000 0.31150  0.87930  0.17295  Biso   1.000  C
  H142     1.0000 0.28500  0.89600  0.16240  Biso   1.000  H
  C217     1.0000 0.37380  0.81730  0.17399  Biso   1.000  C
  H143     1.0000 0.39020  0.79150  0.16400  Biso   1.000  H
  C218     1.0000 0.33460  0.84110  0.15705  Biso   1.000  C
  C219     1.0000 0.31770  0.82580  0.12364  Biso   1.000  C
  C220     1.0000 0.26650  0.82990  0.11327  Biso   1.000  C
  H144     1.0000 0.24250  0.84470  0.12710  Biso   1.000  H
  C221     1.0000 0.35160  0.80370  0.10241  Biso   1.000  C
  H145     1.0000 0.38640  0.80050  0.10860  Biso   1.000  H
  C222     1.0000 0.24960  0.81290  0.08327  Biso   1.000  C
  H146     1.0000 0.21480  0.81630  0.07720  Biso   1.000  H
  C223     1.0000 0.33550  0.78580  0.07157  Biso   1.000  C
  H147     1.0000 0.35940  0.77090  0.05770  Biso   1.000  H
  C224     1.0000 0.28430  0.79060  0.06208  Biso   1.000  C
  C225     1.0000 0.26700  0.76970  0.02977  Biso   1.000  C
  H148     1.0000 0.32260  0.84550  0.97770  Biso   1.000  H
  H149     1.0000 0.34880  0.82890  0.01070  Biso   1.000  H
  H150     1.0000 0.29870  0.86080  0.01160  Biso   1.000  H
  O57      1.0000 0.31920  0.95000  0.24761  Biso   1.000  O
  O58      1.0000 0.24007  0.04880  0.29288  Biso   1.000  O
  O59      1.0000 0.55421  0.73570  0.29143  Biso   1.000  O
  O60      1.0000 0.44584  0.81500  0.25053  Biso   1.000  O
  C226     1.0000 0.30090  0.43450  0.72105  Biso   1.000  C
  C227     1.0000 0.32710  0.39310  0.70443  Biso   1.000  C
  C228     1.0000 0.36630  0.36930  0.72047  Biso   1.000  C
  H151     1.0000 0.37730  0.37910  0.74120  Biso   1.000  H
  C229     1.0000 0.38920  0.33080  0.70540  Biso   1.000  C
  C230     1.0000 0.43050  0.30040  0.72310  Biso   1.000  C
  C231     1.0000 0.31150  0.37930  0.67295  Biso   1.000  C
  H152     1.0000 0.28500  0.39600  0.66240  Biso   1.000  H
  C232     1.0000 0.37380  0.31730  0.67399  Biso   1.000  C
  H153     1.0000 0.39020  0.29150  0.66400  Biso   1.000  H
  C233     1.0000 0.33460  0.34110  0.65705  Biso   1.000  C
  C234     1.0000 0.31770  0.32580  0.62364  Biso   1.000  C
  C235     1.0000 0.26650  0.32990  0.61327  Biso   1.000  C
  H154     1.0000 0.24250  0.34470  0.62710  Biso   1.000  H
  C236     1.0000 0.35160  0.30370  0.60241  Biso   1.000  C
  H155     1.0000 0.38640  0.30050  0.60860  Biso   1.000  H
  C237     1.0000 0.24960  0.31290  0.58327  Biso   1.000  C
  H156     1.0000 0.21480  0.31630  0.57720  Biso   1.000  H
  C238     1.0000 0.33550  0.28580  0.57157  Biso   1.000  C
  H157     1.0000 0.35940  0.27090  0.55770  Biso   1.000  H
  C239     1.0000 0.28430  0.29060  0.56208  Biso   1.000  C
  C240     1.0000 0.26700  0.26970  0.52977  Biso   1.000  C
  H158     1.0000 0.32260  0.34550  0.47770  Biso   1.000  H
  H159     1.0000 0.34880  0.32890  0.51070  Biso   1.000  H
  H160     1.0000 0.29870  0.36080  0.51160  Biso   1.000  H
  O61      1.0000 0.31920  0.45000  0.74761  Biso   1.000  O
  O62      1.0000 0.24007  0.54880  0.79288  Biso   1.000  O
  O63      1.0000 0.55421  0.23570  0.79143  Biso   1.000  O
  O64      1.0000 0.44584  0.31500  0.75053  Biso   1.000  O
  C241     1.0000 0.19910  0.93450  0.72105  Biso   1.000  C
  C242     1.0000 0.17290  0.89310  0.70443  Biso   1.000  C
  C243     1.0000 0.13370  0.86930  0.72047  Biso   1.000  C
  H161     1.0000 0.12270  0.87910  0.74120  Biso   1.000  H
  C244     1.0000 0.11080  0.83080  0.70540  Biso   1.000  C
  C245     1.0000 0.06950  0.80040  0.72310  Biso   1.000  C
  C246     1.0000 0.18850  0.87930  0.67295  Biso   1.000  C
  H162     1.0000 0.21500  0.89600  0.66240  Biso   1.000  H
  C247     1.0000 0.12620  0.81730  0.67399  Biso   1.000  C
  H163     1.0000 0.10980  0.79150  0.66400  Biso   1.000  H
  C248     1.0000 0.16540  0.84110  0.65705  Biso   1.000  C
  C249     1.0000 0.18230  0.82580  0.62364  Biso   1.000  C
  C250     1.0000 0.23350  0.82990  0.61327  Biso   1.000  C
  H164     1.0000 0.25750  0.84470  0.62710  Biso   1.000  H
  C251     1.0000 0.14840  0.80370  0.60241  Biso   1.000  C
  H165     1.0000 0.11360  0.80050  0.60860  Biso   1.000  H
  C252     1.0000 0.25040  0.81290  0.58327  Biso   1.000  C
  H166     1.0000 0.28520  0.81630  0.57720  Biso   1.000  H
  C253     1.0000 0.16450  0.78580  0.57157  Biso   1.000  C
  H167     1.0000 0.14060  0.77090  0.55770  Biso   1.000  H
  C254     1.0000 0.21570  0.79060  0.56208  Biso   1.000  C
  C255     1.0000 0.23300  0.76970  0.52977  Biso   1.000  C
  H168     1.0000 0.17740  0.84550  0.47770  Biso   1.000  H
  H169     1.0000 0.15120  0.82890  0.51070  Biso   1.000  H
  H170     1.0000 0.20130  0.86080  0.51160  Biso   1.000  H
  O65      1.0000 0.18080  0.95000  0.74761  Biso   1.000  O
  O66      1.0000 0.25993  0.04880  0.79288  Biso   1.000  O
  O67      1.0000 0.94579  0.73570  0.79143  Biso   1.000  O
  O68      1.0000 0.05416  0.81500  0.75053  Biso   1.000  O
  C256     1.0000 0.19910  0.43450  0.22105  Biso   1.000  C
  C257     1.0000 0.17290  0.39310  0.20443  Biso   1.000  C
  C258     1.0000 0.13370  0.36930  0.22047  Biso   1.000  C
  H171     1.0000 0.12270  0.37910  0.24120  Biso   1.000  H
  C259     1.0000 0.11080  0.33080  0.20540  Biso   1.000  C
  C260     1.0000 0.06950  0.30040  0.22310  Biso   1.000  C
  C261     1.0000 0.18850  0.37930  0.17295  Biso   1.000  C
  H172     1.0000 0.21500  0.39600  0.16240  Biso   1.000  H
  C262     1.0000 0.12620  0.31730  0.17399  Biso   1.000  C
  H173     1.0000 0.10980  0.29150  0.16400  Biso   1.000  H
  C263     1.0000 0.16540  0.34110  0.15705  Biso   1.000  C
  C264     1.0000 0.18230  0.32580  0.12364  Biso   1.000  C
  C265     1.0000 0.23350  0.32990  0.11327  Biso   1.000  C
  H174     1.0000 0.25750  0.34470  0.12710  Biso   1.000  H
  C266     1.0000 0.14840  0.30370  0.10241  Biso   1.000  C
  H175     1.0000 0.11360  0.30050  0.10860  Biso   1.000  H
  C267     1.0000 0.25040  0.31290  0.08327  Biso   1.000  C
  H176     1.0000 0.28520  0.31630  0.07720  Biso   1.000  H
  C268     1.0000 0.16450  0.28580  0.07157  Biso   1.000  C
  H177     1.0000 0.14060  0.27090  0.05770  Biso   1.000  H
  C269     1.0000 0.21570  0.29060  0.06208  Biso   1.000  C
  C270     1.0000 0.23300  0.26970  0.02977  Biso   1.000  C
  H178     1.0000 0.17740  0.34550  0.97770  Biso   1.000  H
  H179     1.0000 0.15120  0.32890  0.01070  Biso   1.000  H
  H180     1.0000 0.20130  0.36080  0.01160  Biso   1.000  H
  O69      1.0000 0.18080  0.45000  0.24761  Biso   1.000  O
  O70      1.0000 0.25993  0.54880  0.29288  Biso   1.000  O
  O71      1.0000 0.94579  0.23570  0.29143  Biso   1.000  O
  O72      1.0000 0.05416  0.31500  0.25053  Biso   1.000  O
  C271     1.0000 0.69910  0.93450  0.22105  Biso   1.000  C
  C272     1.0000 0.67290  0.89310  0.20443  Biso   1.000  C
  C273     1.0000 0.63370  0.86930  0.22047  Biso   1.000  C
  H181     1.0000 0.62270  0.87910  0.24120  Biso   1.000  H
  C274     1.0000 0.61080  0.83080  0.20540  Biso   1.000  C
  C275     1.0000 0.56950  0.80040  0.22310  Biso   1.000  C
  C276     1.0000 0.68850  0.87930  0.17295  Biso   1.000  C
  H182     1.0000 0.71500  0.89600  0.16240  Biso   1.000  H
  C277     1.0000 0.62620  0.81730  0.17399  Biso   1.000  C
  H183     1.0000 0.60980  0.79150  0.16400  Biso   1.000  H
  C278     1.0000 0.66540  0.84110  0.15705  Biso   1.000  C
  C279     1.0000 0.68230  0.82580  0.12364  Biso   1.000  C
  C280     1.0000 0.73350  0.82990  0.11327  Biso   1.000  C
  H184     1.0000 0.75750  0.84470  0.12710  Biso   1.000  H
  C281     1.0000 0.64840  0.80370  0.10241  Biso   1.000  C
  H185     1.0000 0.61360  0.80050  0.10860  Biso   1.000  H
  C282     1.0000 0.75040  0.81290  0.08327  Biso   1.000  C
  H186     1.0000 0.78520  0.81630  0.07720  Biso   1.000  H
  C283     1.0000 0.66450  0.78580  0.07157  Biso   1.000  C
  H187     1.0000 0.64060  0.77090  0.05770  Biso   1.000  H
  C284     1.0000 0.71570  0.79060  0.06208  Biso   1.000  C
  C285     1.0000 0.73300  0.76970  0.02977  Biso   1.000  C
  H188     1.0000 0.67740  0.84550  0.97770  Biso   1.000  H
  H189     1.0000 0.65120  0.82890  0.01070  Biso   1.000  H
  H190     1.0000 0.70130  0.86080  0.01160  Biso   1.000  H
  O73      1.0000 0.68080  0.95000  0.24761  Biso   1.000  O
  O74      1.0000 0.75993  0.04880  0.29288  Biso   1.000  O
  O75      1.0000 0.44579  0.73570  0.29143  Biso   1.000  O
  O76      1.0000 0.55416  0.81500  0.25053  Biso   1.000  O
  C286     1.0000 0.69910  0.43450  0.72105  Biso   1.000  C
  C287     1.0000 0.67290  0.39310  0.70443  Biso   1.000  C
  C288     1.0000 0.63370  0.36930  0.72047  Biso   1.000  C
  H191     1.0000 0.62270  0.37910  0.74120  Biso   1.000  H
  C289     1.0000 0.61080  0.33080  0.70540  Biso   1.000  C
  C290     1.0000 0.56950  0.30040  0.72310  Biso   1.000  C
  C291     1.0000 0.68850  0.37930  0.67295  Biso   1.000  C
  H192     1.0000 0.71500  0.39600  0.66240  Biso   1.000  H
  C292     1.0000 0.62620  0.31730  0.67399  Biso   1.000  C
  H193     1.0000 0.60980  0.29150  0.66400  Biso   1.000  H
  C293     1.0000 0.66540  0.34110  0.65705  Biso   1.000  C
  C294     1.0000 0.68230  0.32580  0.62364  Biso   1.000  C
  C295     1.0000 0.73350  0.32990  0.61327  Biso   1.000  C
  H194     1.0000 0.75750  0.34470  0.62710  Biso   1.000  H
  C296     1.0000 0.64840  0.30370  0.60241  Biso   1.000  C
  H195     1.0000 0.61360  0.30050  0.60860  Biso   1.000  H
  C297     1.0000 0.75040  0.31290  0.58327  Biso   1.000  C
  H196     1.0000 0.78520  0.31630  0.57720  Biso   1.000  H
  C298     1.0000 0.66450  0.28580  0.57157  Biso   1.000  C
  H197     1.0000 0.64060  0.27090  0.55770  Biso   1.000  H
  C299     1.0000 0.71570  0.29060  0.56208  Biso   1.000  C
  C300     1.0000 0.73300  0.26970  0.52977  Biso   1.000  C
  H198     1.0000 0.67740  0.34550  0.47770  Biso   1.000  H
  H199     1.0000 0.65120  0.32890  0.51070  Biso   1.000  H
  H200     1.0000 0.70130  0.36080  0.51160  Biso   1.000  H
  O77      1.0000 0.68080  0.45000  0.74761  Biso   1.000  O
  O78      1.0000 0.75993  0.54880  0.79288  Biso   1.000  O
  O79      1.0000 0.44579  0.23570  0.79143  Biso   1.000  O
  O80      1.0000 0.55416  0.31500  0.75053  Biso   1.000  O
  C301     1.0000 0.80090  0.06550  0.72105  Biso   1.000  C
  C302     1.0000 0.82710  0.10690  0.70443  Biso   1.000  C
  C303     1.0000 0.86630  0.13070  0.72047  Biso   1.000  C
  H201     1.0000 0.87730  0.12090  0.74120  Biso   1.000  H
  C304     1.0000 0.88920  0.16920  0.70540  Biso   1.000  C
  C305     1.0000 0.93050  0.19960  0.72310  Biso   1.000  C
  C306     1.0000 0.81150  0.12070  0.67295  Biso   1.000  C
  H202     1.0000 0.78500  0.10400  0.66240  Biso   1.000  H
  C307     1.0000 0.87380  0.18270  0.67399  Biso   1.000  C
  H203     1.0000 0.89020  0.20850  0.66400  Biso   1.000  H
  C308     1.0000 0.83460  0.15890  0.65705  Biso   1.000  C
  C309     1.0000 0.81770  0.17420  0.62364  Biso   1.000  C
  C310     1.0000 0.76650  0.17010  0.61327  Biso   1.000  C
  H204     1.0000 0.74250  0.15530  0.62710  Biso   1.000  H
  C311     1.0000 0.85160  0.19630  0.60241  Biso   1.000  C
  H205     1.0000 0.88640  0.19950  0.60860  Biso   1.000  H
  C312     1.0000 0.74960  0.18710  0.58327  Biso   1.000  C
  H206     1.0000 0.71480  0.18370  0.57720  Biso   1.000  H
  C313     1.0000 0.83550  0.21420  0.57157  Biso   1.000  C
  H207     1.0000 0.85940  0.22910  0.55770  Biso   1.000  H
  C314     1.0000 0.78430  0.20940  0.56208  Biso   1.000  C
  C315     1.0000 0.76700  0.23030  0.52977  Biso   1.000  C
  H208     1.0000 0.82260  0.15450  0.47770  Biso   1.000  H
  H209     1.0000 0.84880  0.17110  0.51070  Biso   1.000  H
  H210     1.0000 0.79870  0.13920  0.51160  Biso   1.000  H
  O81      1.0000 0.81920  0.05000  0.74761  Biso   1.000  O
  O82      1.0000 0.74007  0.95120  0.79288  Biso   1.000  O
  O83      1.0000 0.05421  0.26430  0.79143  Biso   1.000  O
  O84      1.0000 0.94584  0.18500  0.75053  Biso   1.000  O
  C316     1.0000 0.80090  0.56550  0.22105  Biso   1.000  C
  C317     1.0000 0.82710  0.60690  0.20443  Biso   1.000  C
  C318     1.0000 0.86630  0.63070  0.22047  Biso   1.000  C
  H211     1.0000 0.87730  0.62090  0.24120  Biso   1.000  H
  C319     1.0000 0.88920  0.66920  0.20540  Biso   1.000  C
  C320     1.0000 0.93050  0.69960  0.22310  Biso   1.000  C
  C321     1.0000 0.81150  0.62070  0.17295  Biso   1.000  C
  H212     1.0000 0.78500  0.60400  0.16240  Biso   1.000  H
  C322     1.0000 0.87380  0.68270  0.17399  Biso   1.000  C
  H213     1.0000 0.89020  0.70850  0.16400  Biso   1.000  H
  C323     1.0000 0.83460  0.65890  0.15705  Biso   1.000  C
  C324     1.0000 0.81770  0.67420  0.12364  Biso   1.000  C
  C325     1.0000 0.76650  0.67010  0.11327  Biso   1.000  C
  H214     1.0000 0.74250  0.65530  0.12710  Biso   1.000  H
  C326     1.0000 0.85160  0.69630  0.10241  Biso   1.000  C
  H215     1.0000 0.88640  0.69950  0.10860  Biso   1.000  H
  C327     1.0000 0.74960  0.68710  0.08327  Biso   1.000  C
  H216     1.0000 0.71480  0.68370  0.07720  Biso   1.000  H
  C328     1.0000 0.83550  0.71420  0.07157  Biso   1.000  C
  H217     1.0000 0.85940  0.72910  0.05770  Biso   1.000  H
  C329     1.0000 0.78430  0.70940  0.06208  Biso   1.000  C
  C330     1.0000 0.76700  0.73030  0.02977  Biso   1.000  C
  H218     1.0000 0.82260  0.65450  0.97770  Biso   1.000  H
  H219     1.0000 0.84880  0.67110  0.01070  Biso   1.000  H
  H220     1.0000 0.79870  0.63920  0.01160  Biso   1.000  H
  O85      1.0000 0.81920  0.55000  0.24761  Biso   1.000  O
  O86      1.0000 0.74007  0.45120  0.29288  Biso   1.000  O
  O87      1.0000 0.05421  0.76430  0.29143  Biso   1.000  O
  O88      1.0000 0.94584  0.68500  0.25053  Biso   1.000  O
  C331     1.0000 0.30090  0.06550  0.22105  Biso   1.000  C
  C332     1.0000 0.32710  0.10690  0.20443  Biso   1.000  C
  C333     1.0000 0.36630  0.13070  0.22047  Biso   1.000  C
  H221     1.0000 0.37730  0.12090  0.24120  Biso   1.000  H
  C334     1.0000 0.38920  0.16920  0.20540  Biso   1.000  C
  C335     1.0000 0.43050  0.19960  0.22310  Biso   1.000  C
  C336     1.0000 0.31150  0.12070  0.17295  Biso   1.000  C
  H222     1.0000 0.28500  0.10400  0.16240  Biso   1.000  H
  C337     1.0000 0.37380  0.18270  0.17399  Biso   1.000  C
  H223     1.0000 0.39020  0.20850  0.16400  Biso   1.000  H
  C338     1.0000 0.33460  0.15890  0.15705  Biso   1.000  C
  C339     1.0000 0.31770  0.17420  0.12364  Biso   1.000  C
  C340     1.0000 0.26650  0.17010  0.11327  Biso   1.000  C
  H224     1.0000 0.24250  0.15530  0.12710  Biso   1.000  H
  C341     1.0000 0.35160  0.19630  0.10241  Biso   1.000  C
  H225     1.0000 0.38640  0.19950  0.10860  Biso   1.000  H
  C342     1.0000 0.24960  0.18710  0.08327  Biso   1.000  C
  H226     1.0000 0.21480  0.18370  0.07720  Biso   1.000  H
  C343     1.0000 0.33550  0.21420  0.07157  Biso   1.000  C
  H227     1.0000 0.35940  0.22910  0.05770  Biso   1.000  H
  C344     1.0000 0.28430  0.20940  0.06208  Biso   1.000  C
  C345     1.0000 0.26700  0.23030  0.02977  Biso   1.000  C
  H228     1.0000 0.32260  0.15450  0.97770  Biso   1.000  H
  H229     1.0000 0.34880  0.17110  0.01070  Biso   1.000  H
  H230     1.0000 0.29870  0.13920  0.01160  Biso   1.000  H
  O89      1.0000 0.31920  0.05000  0.24761  Biso   1.000  O
  O90      1.0000 0.24007  0.95120  0.29288  Biso   1.000  O
  O91      1.0000 0.55421  0.26430  0.29143  Biso   1.000  O
  O92      1.0000 0.44584  0.18500  0.25053  Biso   1.000  O
  C346     1.0000 0.30090  0.56550  0.72105  Biso   1.000  C
  C347     1.0000 0.32710  0.60690  0.70443  Biso   1.000  C
  C348     1.0000 0.36630  0.63070  0.72047  Biso   1.000  C
  H231     1.0000 0.37730  0.62090  0.74120  Biso   1.000  H
  C349     1.0000 0.38920  0.66920  0.70540  Biso   1.000  C
  C350     1.0000 0.43050  0.69960  0.72310  Biso   1.000  C
  C351     1.0000 0.31150  0.62070  0.67295  Biso   1.000  C
  H232     1.0000 0.28500  0.60400  0.66240  Biso   1.000  H
  C352     1.0000 0.37380  0.68270  0.67399  Biso   1.000  C
  H233     1.0000 0.39020  0.70850  0.66400  Biso   1.000  H
  C353     1.0000 0.33460  0.65890  0.65705  Biso   1.000  C
  C354     1.0000 0.31770  0.67420  0.62364  Biso   1.000  C
  C355     1.0000 0.26650  0.67010  0.61327  Biso   1.000  C
  H234     1.0000 0.24250  0.65530  0.62710  Biso   1.000  H
  C356     1.0000 0.35160  0.69630  0.60241  Biso   1.000  C
  H235     1.0000 0.38640  0.69950  0.60860  Biso   1.000  H
  C357     1.0000 0.24960  0.68710  0.58327  Biso   1.000  C
  H236     1.0000 0.21480  0.68370  0.57720  Biso   1.000  H
  C358     1.0000 0.33550  0.71420  0.57157  Biso   1.000  C
  H237     1.0000 0.35940  0.72910  0.55770  Biso   1.000  H
  C359     1.0000 0.28430  0.70940  0.56208  Biso   1.000  C
  C360     1.0000 0.26700  0.73030  0.52977  Biso   1.000  C
  H238     1.0000 0.32260  0.65450  0.47770  Biso   1.000  H
  H239     1.0000 0.34880  0.67110  0.51070  Biso   1.000  H
  H240     1.0000 0.29870  0.63920  0.51160  Biso   1.000  H
  O93      1.0000 0.31920  0.55000  0.74761  Biso   1.000  O
  O94      1.0000 0.24007  0.45120  0.79288  Biso   1.000  O
  O95      1.0000 0.55421  0.76430  0.79143  Biso   1.000  O
  O96      1.0000 0.44584  0.68500  0.75053  Biso   1.000  O
  C361     1.0000 0.80090  0.93450  0.27895  Biso   1.000  C
  C362     1.0000 0.82710  0.89310  0.29557  Biso   1.000  C
  C363     1.0000 0.86630  0.86930  0.27953  Biso   1.000  C
  H241     1.0000 0.87730  0.87910  0.25880  Biso   1.000  H
  C364     1.0000 0.88920  0.83080  0.29460  Biso   1.000  C
  C365     1.0000 0.93050  0.80040  0.27690  Biso   1.000  C
  C366     1.0000 0.81150  0.87930  0.32705  Biso   1.000  C
  H242     1.0000 0.78500  0.89600  0.33760  Biso   1.000  H
  C367     1.0000 0.87380  0.81730  0.32601  Biso   1.000  C
  H243     1.0000 0.89020  0.79150  0.33600  Biso   1.000  H
  C368     1.0000 0.83460  0.84110  0.34295  Biso   1.000  C
  C369     1.0000 0.81770  0.82580  0.37636  Biso   1.000  C
  C370     1.0000 0.76650  0.82990  0.38673  Biso   1.000  C
  H244     1.0000 0.74250  0.84470  0.37290  Biso   1.000  H
  C371     1.0000 0.85160  0.80370  0.39759  Biso   1.000  C
  H245     1.0000 0.88640  0.80050  0.39140  Biso   1.000  H
  C372     1.0000 0.74960  0.81290  0.41673  Biso   1.000  C
  H246     1.0000 0.71480  0.81630  0.42280  Biso   1.000  H
  C373     1.0000 0.83550  0.78580  0.42843  Biso   1.000  C
  H247     1.0000 0.85940  0.77090  0.44230  Biso   1.000  H
  C374     1.0000 0.78430  0.79060  0.43792  Biso   1.000  C
  C375     1.0000 0.76700  0.76970  0.47023  Biso   1.000  C
  H248     1.0000 0.82260  0.84550  0.52230  Biso   1.000  H
  H249     1.0000 0.84880  0.82890  0.48930  Biso   1.000  H
  H250     1.0000 0.79870  0.86080  0.48840  Biso   1.000  H
  O97      1.0000 0.81920  0.95000  0.25239  Biso   1.000  O
  O98      1.0000 0.74007  0.04880  0.20712  Biso   1.000  O
  O99      1.0000 0.05421  0.73570  0.20857  Biso   1.000  O
  O100     1.0000 0.94584  0.81500  0.24947  Biso   1.000  O
  C376     1.0000 0.80090  0.43450  0.77895  Biso   1.000  C
  C377     1.0000 0.82710  0.39310  0.79557  Biso   1.000  C
  C378     1.0000 0.86630  0.36930  0.77953  Biso   1.000  C
  H251     1.0000 0.87730  0.37910  0.75880  Biso   1.000  H
  C379     1.0000 0.88920  0.33080  0.79460  Biso   1.000  C
  C380     1.0000 0.93050  0.30040  0.77690  Biso   1.000  C
  C381     1.0000 0.81150  0.37930  0.82705  Biso   1.000  C
  H252     1.0000 0.78500  0.39600  0.83760  Biso   1.000  H
  C382     1.0000 0.87380  0.31730  0.82601  Biso   1.000  C
  H253     1.0000 0.89020  0.29150  0.83600  Biso   1.000  H
  C383     1.0000 0.83460  0.34110  0.84295  Biso   1.000  C
  C384     1.0000 0.81770  0.32580  0.87636  Biso   1.000  C
  C385     1.0000 0.76650  0.32990  0.88673  Biso   1.000  C
  H254     1.0000 0.74250  0.34470  0.87290  Biso   1.000  H
  C386     1.0000 0.85160  0.30370  0.89759  Biso   1.000  C
  H255     1.0000 0.88640  0.30050  0.89140  Biso   1.000  H
  C387     1.0000 0.74960  0.31290  0.91673  Biso   1.000  C
  H256     1.0000 0.71480  0.31630  0.92280  Biso   1.000  H
  C388     1.0000 0.83550  0.28580  0.92843  Biso   1.000  C
  H257     1.0000 0.85940  0.27090  0.94230  Biso   1.000  H
  C389     1.0000 0.78430  0.29060  0.93792  Biso   1.000  C
  C390     1.0000 0.76700  0.26970  0.97023  Biso   1.000  C
  H258     1.0000 0.82260  0.34550  0.02230  Biso   1.000  H
  H259     1.0000 0.84880  0.32890  0.98930  Biso   1.000  H
  H260     1.0000 0.79870  0.36080  0.98840  Biso   1.000  H
  O101     1.0000 0.81920  0.45000  0.75239  Biso   1.000  O
  O102     1.0000 0.74007  0.54880  0.70712  Biso   1.000  O
  O103     1.0000 0.05421  0.23570  0.70857  Biso   1.000  O
  O104     1.0000 0.94584  0.31500  0.74947  Biso   1.000  O
  C391     1.0000 0.30090  0.93450  0.77895  Biso   1.000  C
  C392     1.0000 0.32710  0.89310  0.79557  Biso   1.000  C
  C393     1.0000 0.36630  0.86930  0.77953  Biso   1.000  C
  H261     1.0000 0.37730  0.87910  0.75880  Biso   1.000  H
  C394     1.0000 0.38920  0.83080  0.79460  Biso   1.000  C
  C395     1.0000 0.43050  0.80040  0.77690  Biso   1.000  C
  C396     1.0000 0.31150  0.87930  0.82705  Biso   1.000  C
  H262     1.0000 0.28500  0.89600  0.83760  Biso   1.000  H
  C397     1.0000 0.37380  0.81730  0.82601  Biso   1.000  C
  H263     1.0000 0.39020  0.79150  0.83600  Biso   1.000  H
  C398     1.0000 0.33460  0.84110  0.84295  Biso   1.000  C
  C399     1.0000 0.31770  0.82580  0.87636  Biso   1.000  C
  C400     1.0000 0.26650  0.82990  0.88673  Biso   1.000  C
  H264     1.0000 0.24250  0.84470  0.87290  Biso   1.000  H
  C401     1.0000 0.35160  0.80370  0.89759  Biso   1.000  C
  H265     1.0000 0.38640  0.80050  0.89140  Biso   1.000  H
  C402     1.0000 0.24960  0.81290  0.91673  Biso   1.000  C
  H266     1.0000 0.21480  0.81630  0.92280  Biso   1.000  H
  C403     1.0000 0.33550  0.78580  0.92843  Biso   1.000  C
  H267     1.0000 0.35940  0.77090  0.94230  Biso   1.000  H
  C404     1.0000 0.28430  0.79060  0.93792  Biso   1.000  C
  C405     1.0000 0.26700  0.76970  0.97023  Biso   1.000  C
  H268     1.0000 0.32260  0.84550  0.02230  Biso   1.000  H
  H269     1.0000 0.34880  0.82890  0.98930  Biso   1.000  H
  H270     1.0000 0.29870  0.86080  0.98840  Biso   1.000  H
  O105     1.0000 0.31920  0.95000  0.75239  Biso   1.000  O
  O106     1.0000 0.24007  0.04880  0.70712  Biso   1.000  O
  O107     1.0000 0.55421  0.73570  0.70857  Biso   1.000  O
  O108     1.0000 0.44584  0.81500  0.74947  Biso   1.000  O
  C406     1.0000 0.30090  0.43450  0.27895  Biso   1.000  C
  C407     1.0000 0.32710  0.39310  0.29557  Biso   1.000  C
  C408     1.0000 0.36630  0.36930  0.27953  Biso   1.000  C
  H271     1.0000 0.37730  0.37910  0.25880  Biso   1.000  H
  C409     1.0000 0.38920  0.33080  0.29460  Biso   1.000  C
  C410     1.0000 0.43050  0.30040  0.27690  Biso   1.000  C
  C411     1.0000 0.31150  0.37930  0.32705  Biso   1.000  C
  H272     1.0000 0.28500  0.39600  0.33760  Biso   1.000  H
  C412     1.0000 0.37380  0.31730  0.32601  Biso   1.000  C
  H273     1.0000 0.39020  0.29150  0.33600  Biso   1.000  H
  C413     1.0000 0.33460  0.34110  0.34295  Biso   1.000  C
  C414     1.0000 0.31770  0.32580  0.37636  Biso   1.000  C
  C415     1.0000 0.26650  0.32990  0.38673  Biso   1.000  C
  H274     1.0000 0.24250  0.34470  0.37290  Biso   1.000  H
  C416     1.0000 0.35160  0.30370  0.39759  Biso   1.000  C
  H275     1.0000 0.38640  0.30050  0.39140  Biso   1.000  H
  C417     1.0000 0.24960  0.31290  0.41673  Biso   1.000  C
  H276     1.0000 0.21480  0.31630  0.42280  Biso   1.000  H
  C418     1.0000 0.33550  0.28580  0.42843  Biso   1.000  C
  H277     1.0000 0.35940  0.27090  0.44230  Biso   1.000  H
  C419     1.0000 0.28430  0.29060  0.43792  Biso   1.000  C
  C420     1.0000 0.26700  0.26970  0.47023  Biso   1.000  C
  H278     1.0000 0.32260  0.34550  0.52230  Biso   1.000  H
  H279     1.0000 0.34880  0.32890  0.48930  Biso   1.000  H
  H280     1.0000 0.29870  0.36080  0.48840  Biso   1.000  H
  O109     1.0000 0.31920  0.45000  0.25239  Biso   1.000  O
  O110     1.0000 0.24007  0.54880  0.20712  Biso   1.000  O
  O111     1.0000 0.55421  0.23570  0.20857  Biso   1.000  O
  O112     1.0000 0.44584  0.31500  0.24947  Biso   1.000  O
  C421     1.0000 0.19910  0.06550  0.27895  Biso   1.000  C
  C422     1.0000 0.17290  0.10690  0.29557  Biso   1.000  C
  C423     1.0000 0.13370  0.13070  0.27953  Biso   1.000  C
  H281     1.0000 0.12270  0.12090  0.25880  Biso   1.000  H
  C424     1.0000 0.11080  0.16920  0.29460  Biso   1.000  C
  C425     1.0000 0.06950  0.19960  0.27690  Biso   1.000  C
  C426     1.0000 0.18850  0.12070  0.32705  Biso   1.000  C
  H282     1.0000 0.21500  0.10400  0.33760  Biso   1.000  H
  C427     1.0000 0.12620  0.18270  0.32601  Biso   1.000  C
  H283     1.0000 0.10980  0.20850  0.33600  Biso   1.000  H
  C428     1.0000 0.16540  0.15890  0.34295  Biso   1.000  C
  C429     1.0000 0.18230  0.17420  0.37636  Biso   1.000  C
  C430     1.0000 0.23350  0.17010  0.38673  Biso   1.000  C
  H284     1.0000 0.25750  0.15530  0.37290  Biso   1.000  H
  C431     1.0000 0.14840  0.19630  0.39759  Biso   1.000  C
  H285     1.0000 0.11360  0.19950  0.39140  Biso   1.000  H
  C432     1.0000 0.25040  0.18710  0.41673  Biso   1.000  C
  H286     1.0000 0.28520  0.18370  0.42280  Biso   1.000  H
  C433     1.0000 0.16450  0.21420  0.42843  Biso   1.000  C
  H287     1.0000 0.14060  0.22910  0.44230  Biso   1.000  H
  C434     1.0000 0.21570  0.20940  0.43792  Biso   1.000  C
  C435     1.0000 0.23300  0.23030  0.47023  Biso   1.000  C
  H288     1.0000 0.17740  0.15450  0.52230  Biso   1.000  H
  H289     1.0000 0.15120  0.17110  0.48930  Biso   1.000  H
  H290     1.0000 0.20130  0.13920  0.48840  Biso   1.000  H
  O113     1.0000 0.18080  0.05000  0.25239  Biso   1.000  O
  O114     1.0000 0.25993  0.95120  0.20712  Biso   1.000  O
  O115     1.0000 0.94579  0.26430  0.20857  Biso   1.000  O
  O116     1.0000 0.05416  0.18500  0.24947  Biso   1.000  O
  C436     1.0000 0.19910  0.56550  0.77895  Biso   1.000  C
  C437     1.0000 0.17290  0.60690  0.79557  Biso   1.000  C
  C438     1.0000 0.13370  0.63070  0.77953  Biso   1.000  C
  H291     1.0000 0.12270  0.62090  0.75880  Biso   1.000  H
  C439     1.0000 0.11080  0.66920  0.79460  Biso   1.000  C
  C440     1.0000 0.06950  0.69960  0.77690  Biso   1.000  C
  C441     1.0000 0.18850  0.62070  0.82705  Biso   1.000  C
  H292     1.0000 0.21500  0.60400  0.83760  Biso   1.000  H
  C442     1.0000 0.12620  0.68270  0.82601  Biso   1.000  C
  H293     1.0000 0.10980  0.70850  0.83600  Biso   1.000  H
  C443     1.0000 0.16540  0.65890  0.84295  Biso   1.000  C
  C444     1.0000 0.18230  0.67420  0.87636  Biso   1.000  C
  C445     1.0000 0.23350  0.67010  0.88673  Biso   1.000  C
  H294     1.0000 0.25750  0.65530  0.87290  Biso   1.000  H
  C446     1.0000 0.14840  0.69630  0.89759  Biso   1.000  C
  H295     1.0000 0.11360  0.69950  0.89140  Biso   1.000  H
  C447     1.0000 0.25040  0.68710  0.91673  Biso   1.000  C
  H296     1.0000 0.28520  0.68370  0.92280  Biso   1.000  H
  C448     1.0000 0.16450  0.71420  0.92843  Biso   1.000  C
  H297     1.0000 0.14060  0.72910  0.94230  Biso   1.000  H
  C449     1.0000 0.21570  0.70940  0.93792  Biso   1.000  C
  C450     1.0000 0.23300  0.73030  0.97023  Biso   1.000  C
  H298     1.0000 0.17740  0.65450  0.02230  Biso   1.000  H
  H299     1.0000 0.15120  0.67110  0.98930  Biso   1.000  H
  H300     1.0000 0.20130  0.63920  0.98840  Biso   1.000  H
  O117     1.0000 0.18080  0.55000  0.75239  Biso   1.000  O
  O118     1.0000 0.25993  0.45120  0.70712  Biso   1.000  O
  O119     1.0000 0.94579  0.76430  0.70857  Biso   1.000  O
  O120     1.0000 0.05416  0.68500  0.74947  Biso   1.000  O
  C451     1.0000 0.69910  0.06550  0.77895  Biso   1.000  C
  C452     1.0000 0.67290  0.10690  0.79557  Biso   1.000  C
  C453     1.0000 0.63370  0.13070  0.77953  Biso   1.000  C
  H301     1.0000 0.62270  0.12090  0.75880  Biso   1.000  H
  C454     1.0000 0.61080  0.16920  0.79460  Biso   1.000  C
  C455     1.0000 0.56950  0.19960  0.77690  Biso   1.000  C
  C456     1.0000 0.68850  0.12070  0.82705  Biso   1.000  C
  H302     1.0000 0.71500  0.10400  0.83760  Biso   1.000  H
  C457     1.0000 0.62620  0.18270  0.82601  Biso   1.000  C
  H303     1.0000 0.60980  0.20850  0.83600  Biso   1.000  H
  C458     1.0000 0.66540  0.15890  0.84295  Biso   1.000  C
  C459     1.0000 0.68230  0.17420  0.87636  Biso   1.000  C
  C460     1.0000 0.73350  0.17010  0.88673  Biso   1.000  C
  H304     1.0000 0.75750  0.15530  0.87290  Biso   1.000  H
  C461     1.0000 0.64840  0.19630  0.89759  Biso   1.000  C
  H305     1.0000 0.61360  0.19950  0.89140  Biso   1.000  H
  C462     1.0000 0.75040  0.18710  0.91673  Biso   1.000  C
  H306     1.0000 0.78520  0.18370  0.92280  Biso   1.000  H
  C463     1.0000 0.66450  0.21420  0.92843  Biso   1.000  C
  H307     1.0000 0.64060  0.22910  0.94230  Biso   1.000  H
  C464     1.0000 0.71570  0.20940  0.93792  Biso   1.000  C
  C465     1.0000 0.73300  0.23030  0.97023  Biso   1.000  C
  H308     1.0000 0.67740  0.15450  0.02230  Biso   1.000  H
  H309     1.0000 0.65120  0.17110  0.98930  Biso   1.000  H
  H310     1.0000 0.70130  0.13920  0.98840  Biso   1.000  H
  O121     1.0000 0.68080  0.05000  0.75239  Biso   1.000  O
  O122     1.0000 0.75993  0.95120  0.70712  Biso   1.000  O
  O123     1.0000 0.44579  0.26430  0.70857  Biso   1.000  O
  O124     1.0000 0.55416  0.18500  0.74947  Biso   1.000  O
  C466     1.0000 0.69910  0.56550  0.27895  Biso   1.000  C
  C467     1.0000 0.67290  0.60690  0.29557  Biso   1.000  C
  C468     1.0000 0.63370  0.63070  0.27953  Biso   1.000  C
  H311     1.0000 0.62270  0.62090  0.25880  Biso   1.000  H
  C469     1.0000 0.61080  0.66920  0.29460  Biso   1.000  C
  C470     1.0000 0.56950  0.69960  0.27690  Biso   1.000  C
  C471     1.0000 0.68850  0.62070  0.32705  Biso   1.000  C
  H312     1.0000 0.71500  0.60400  0.33760  Biso   1.000  H
  C472     1.0000 0.62620  0.68270  0.32601  Biso   1.000  C
  H313     1.0000 0.60980  0.70850  0.33600  Biso   1.000  H
  C473     1.0000 0.66540  0.65890  0.34295  Biso   1.000  C
  C474     1.0000 0.68230  0.67420  0.37636  Biso   1.000  C
  C475     1.0000 0.73350  0.67010  0.38673  Biso   1.000  C
  H314     1.0000 0.75750  0.65530  0.37290  Biso   1.000  H
  C476     1.0000 0.64840  0.69630  0.39759  Biso   1.000  C
  H315     1.0000 0.61360  0.69950  0.39140  Biso   1.000  H
  C477     1.0000 0.75040  0.68710  0.41673  Biso   1.000  C
  H316     1.0000 0.78520  0.68370  0.42280  Biso   1.000  H
  C478     1.0000 0.66450  0.71420  0.42843  Biso   1.000  C
  H317     1.0000 0.64060  0.72910  0.44230  Biso   1.000  H
  C479     1.0000 0.71570  0.70940  0.43792  Biso   1.000  C
  C480     1.0000 0.73300  0.73030  0.47023  Biso   1.000  C
  H318     1.0000 0.67740  0.65450  0.52230  Biso   1.000  H
  H319     1.0000 0.65120  0.67110  0.48930  Biso   1.000  H
  H320     1.0000 0.70130  0.63920  0.48840  Biso   1.000  H
  O125     1.0000 0.68080  0.55000  0.25239  Biso   1.000  O
  O126     1.0000 0.75993  0.45120  0.20712  Biso   1.000  O
  O127     1.0000 0.44579  0.76430  0.20857  Biso   1.000  O
  O128     1.0000 0.55416  0.68500  0.24947  Biso   1.000  O
  Cu1      1.0000 0.00000  0.21917  0.22422  Biso   1.000  Cu
  Cu2      1.0000 0.00000  0.71917  0.72422  Biso   1.000  Cu
  Cu3      1.0000 0.50000  0.21917  0.72422  Biso   1.000  Cu
  Cu4      1.0000 0.50000  0.71917  0.22422  Biso   1.000  Cu
  Cu5      1.0000 0.00000  0.78083  0.22422  Biso   1.000  Cu
  Cu6      1.0000 0.00000  0.28083  0.72422  Biso   1.000  Cu
  Cu7      1.0000 0.50000  0.78083  0.72422  Biso   1.000  Cu
  Cu8      1.0000 0.50000  0.28083  0.22422  Biso   1.000  Cu
  Cu9      1.0000 0.00000  0.21917  0.77578  Biso   1.000  Cu
  Cu10     1.0000 0.00000  0.71917  0.27578  Biso   1.000  Cu
  Cu11     1.0000 0.50000  0.21917  0.27578  Biso   1.000  Cu
  Cu12     1.0000 0.50000  0.71917  0.77578  Biso   1.000  Cu
  Cu13     1.0000 0.00000  0.78083  0.77578  Biso   1.000  Cu
  Cu14     1.0000 0.00000  0.28083  0.27578  Biso   1.000  Cu
  Cu15     1.0000 0.50000  0.78083  0.27578  Biso   1.000  Cu
  Cu16     1.0000 0.50000  0.28083  0.77578  Biso   1.000  Cu
  Cu17     1.0000 0.78524  0.00000  0.22595  Biso   1.000  Cu
  Cu18     1.0000 0.78524  0.50000  0.72595  Biso   1.000  Cu
  Cu19     1.0000 0.28524  0.00000  0.72595  Biso   1.000  Cu
  Cu20     1.0000 0.28524  0.50000  0.22595  Biso   1.000  Cu
  Cu21     1.0000 0.21476  0.00000  0.22595  Biso   1.000  Cu
  Cu22     1.0000 0.21476  0.50000  0.72595  Biso   1.000  Cu
  Cu23     1.0000 0.71476  0.00000  0.72595  Biso   1.000  Cu
  Cu24     1.0000 0.71476  0.50000  0.22595  Biso   1.000  Cu
  Cu25     1.0000 0.21476  0.00000  0.77405  Biso   1.000  Cu
  Cu26     1.0000 0.21476  0.50000  0.27405  Biso   1.000  Cu
  Cu27     1.0000 0.71476  0.00000  0.27405  Biso   1.000  Cu
  Cu28     1.0000 0.71476  0.50000  0.77405  Biso   1.000  Cu
  Cu29     1.0000 0.78524  0.00000  0.77405  Biso   1.000  Cu
  Cu30     1.0000 0.78524  0.50000  0.27405  Biso   1.000  Cu
  Cu31     1.0000 0.28524  0.00000  0.27405  Biso   1.000  Cu
  Cu32     1.0000 0.28524  0.50000  0.77405  Biso   1.000  Cu
  C481     1.0000 0.78160  0.20930  0.50000  Biso   1.000  C
  C482     1.0000 0.81620  0.16430  0.50000  Biso   1.000  C
  C483     1.0000 0.78160  0.70930  0.00000  Biso   1.000  C
  C484     1.0000 0.81620  0.66430  0.00000  Biso   1.000  C
  C485     1.0000 0.28160  0.20930  0.00000  Biso   1.000  C
  C486     1.0000 0.31620  0.16430  0.00000  Biso   1.000  C
  C487     1.0000 0.28160  0.70930  0.50000  Biso   1.000  C
  C488     1.0000 0.31620  0.66430  0.50000  Biso   1.000  C
  C489     1.0000 0.21840  0.79070  0.50000  Biso   1.000  C
  C490     1.0000 0.18380  0.83570  0.50000  Biso   1.000  C
  C491     1.0000 0.21840  0.29070  0.00000  Biso   1.000  C
  C492     1.0000 0.18380  0.33570  0.00000  Biso   1.000  C
  C493     1.0000 0.71840  0.79070  0.00000  Biso   1.000  C
  C494     1.0000 0.68380  0.83570  0.00000  Biso   1.000  C
  C495     1.0000 0.71840  0.29070  0.50000  Biso   1.000  C
  C496     1.0000 0.68380  0.33570  0.50000  Biso   1.000  C
  C497     1.0000 0.21840  0.20930  0.50000  Biso   1.000  C
  C498     1.0000 0.18380  0.16430  0.50000  Biso   1.000  C
  C499     1.0000 0.21840  0.70930  0.00000  Biso   1.000  C
  C500     1.0000 0.18380  0.66430  0.00000  Biso   1.000  C
  C501     1.0000 0.71840  0.20930  0.00000  Biso   1.000  C
  C502     1.0000 0.68380  0.16430  0.00000  Biso   1.000  C
  C503     1.0000 0.71840  0.70930  0.50000  Biso   1.000  C
  C504     1.0000 0.68380  0.66430  0.50000  Biso   1.000  C
  C505     1.0000 0.78160  0.79070  0.50000  Biso   1.000  C
  C506     1.0000 0.81620  0.83570  0.50000  Biso   1.000  C
  C507     1.0000 0.78160  0.29070  0.00000  Biso   1.000  C
  C508     1.0000 0.81620  0.33570  0.00000  Biso   1.000  C
  C509     1.0000 0.28160  0.79070  0.00000  Biso   1.000  C
  C510     1.0000 0.31620  0.83570  0.00000  Biso   1.000  C
  C511     1.0000 0.28160  0.29070  0.50000  Biso   1.000  C
  C512     1.0000 0.31620  0.33570  0.50000  Biso   1.000  C
