data_image0
_cell_length_a       27.373
_cell_length_b       27.373
_cell_length_c       18.5827
_cell_angle_alpha    90
_cell_angle_beta     90
_cell_angle_gamma    90

_symmetry_space_group_name_H-M    "P 1"
_symmetry_int_tables_number       1

loop_
  _symmetry_equiv_pos_as_xyz
  'x, y, z'

loop_
  _atom_site_label
  _atom_site_occupancy
  _atom_site_fract_x
  _atom_site_fract_y
  _atom_site_fract_z
  _atom_site_thermal_displace_type
  _atom_site_B_iso_or_equiv
  _atom_site_type_symbol
  Zn1      1.0000 0.26412  0.10989  0.42238  Biso   1.000  Zn
  Zn2      1.0000 0.26369  0.10911  0.74412  Biso   1.000  Zn
  N1       1.0000 0.31930  0.12810  0.80470  Biso   1.000  N
  C1       1.0000 0.32550  0.17050  0.83580  Biso   1.000  C
  H1       1.0000 0.30090  0.19500  0.83660  Biso   1.000  H
  N2       1.0000 0.37040  0.17690  0.86710  Biso   1.000  N
  C2       1.0000 0.39640  0.13570  0.84980  Biso   1.000  C
  H2       1.0000 0.42950  0.12910  0.86190  Biso   1.000  H
  C3       1.0000 0.36590  0.10620  0.81220  Biso   1.000  C
  H3       1.0000 0.37460  0.07510  0.79340  Biso   1.000  H
  N3       1.0000 0.28020  0.12510  0.63340  Biso   1.000  N
  C4       1.0000 0.26050  0.10150  0.57190  Biso   1.000  C
  H4       1.0000 0.23730  0.07560  0.57220  Biso   1.000  H
  N4       1.0000 0.28150  0.12330  0.50980  Biso   1.000  N
  C5       1.0000 0.31420  0.16040  0.53300  Biso   1.000  C
  H5       1.0000 0.33320  0.18090  0.50280  Biso   1.000  H
  C6       1.0000 0.31340  0.16150  0.60940  Biso   1.000  C
  H6       1.0000 0.33180  0.18280  0.63920  Biso   1.000  H
  N5       1.0000 0.28170  0.12110  0.65180  Biso   1.000  N
  C7       1.0000 0.25750  0.10780  0.58710  Biso   1.000  C
  H7       1.0000 0.22870  0.08850  0.58360  Biso   1.000  H
  N6       1.0000 0.28390  0.12820  0.52860  Biso   1.000  N
  C8       1.0000 0.32440  0.15420  0.55720  Biso   1.000  C
  H8       1.0000 0.34830  0.17140  0.53010  Biso   1.000  H
  C9       1.0000 0.32310  0.14980  0.63330  Biso   1.000  C
  H9       1.0000 0.34580  0.16370  0.66610  Biso   1.000  H
  N7       1.0000 0.20507  0.14923  0.77920  Biso   1.000  N
  C10      1.0000 0.18460  0.14650  0.84490  Biso   1.000  C
  H10      1.0000 0.19280  0.12480  0.88290  Biso   1.000  H
  N8       1.0000 0.23670  0.04090  0.76360  Biso   1.000  N
  C11      1.0000 0.26810  0.00240  0.74120  Biso   1.000  C
  H11      1.0000 0.30160  0.00560  0.72890  Biso   1.000  H
  N9       1.0000 0.24050  0.95850  0.74050  Biso   1.000  N
  C12      1.0000 0.19210  0.96980  0.76240  Biso   1.000  C
  H12      1.0000 0.16590  0.94720  0.76670  Biso   1.000  H
  C13      1.0000 0.18980  0.02070  0.77670  Biso   1.000  C
  H13      1.0000 0.16170  0.03810  0.79230  Biso   1.000  H
  N10      1.0000 0.25690  0.03910  0.39890  Biso   1.000  N
  C14      1.0000 0.25970  0.99510  0.43920  Biso   1.000  C
  H14      1.0000 0.25920  0.99240  0.49010  Biso   1.000  H
  N11      1.0000 0.26350  0.95560  0.38980  Biso   1.000  N
  C15      1.0000 0.26300  0.97530  0.31910  Biso   1.000  C
  H15      1.0000 0.26500  0.95710  0.27560  Biso   1.000  H
  C16      1.0000 0.25890  0.02680  0.32470  Biso   1.000  C
  H16      1.0000 0.25770  0.04920  0.28570  Biso   1.000  H
  N12      1.0000 0.20510  0.14290  0.39010  Biso   1.000  N
  C17      1.0000 0.19210  0.18430  0.43190  Biso   1.000  C
  H17      1.0000 0.20420  0.19210  0.47840  Biso   1.000  H
  N13      1.0000 0.15770  0.21210  0.39200  Biso   1.000  N
  C18      1.0000 0.14950  0.18790  0.32550  Biso   1.000  C
  H18      1.0000 0.12810  0.19850  0.28830  Biso   1.000  H
  C19      1.0000 0.17880  0.14510  0.32430  Biso   1.000  C
  H19      1.0000 0.18050  0.12210  0.28620  Biso   1.000  H
  Zn3      1.0000 0.76412  0.60989  0.92238  Biso   1.000  Zn
  Zn4      1.0000 0.76369  0.60911  0.24412  Biso   1.000  Zn
  N14      1.0000 0.81930  0.62810  0.30470  Biso   1.000  N
  C20      1.0000 0.82550  0.67050  0.33580  Biso   1.000  C
  H20      1.0000 0.80090  0.69500  0.33660  Biso   1.000  H
  N15      1.0000 0.87040  0.67690  0.36710  Biso   1.000  N
  C21      1.0000 0.89640  0.63570  0.34980  Biso   1.000  C
  H21      1.0000 0.92950  0.62910  0.36190  Biso   1.000  H
  C22      1.0000 0.86590  0.60620  0.31220  Biso   1.000  C
  H22      1.0000 0.87460  0.57510  0.29340  Biso   1.000  H
  N16      1.0000 0.78020  0.62510  0.13340  Biso   1.000  N
  C23      1.0000 0.76050  0.60150  0.07190  Biso   1.000  C
  H23      1.0000 0.73730  0.57560  0.07220  Biso   1.000  H
  N17      1.0000 0.78150  0.62330  0.00980  Biso   1.000  N
  C24      1.0000 0.81420  0.66040  0.03300  Biso   1.000  C
  H24      1.0000 0.83320  0.68090  0.00280  Biso   1.000  H
  C25      1.0000 0.81340  0.66150  0.10940  Biso   1.000  C
  H25      1.0000 0.83180  0.68280  0.13920  Biso   1.000  H
  N18      1.0000 0.78170  0.62110  0.15180  Biso   1.000  N
  C26      1.0000 0.75750  0.60780  0.08710  Biso   1.000  C
  H26      1.0000 0.72870  0.58850  0.08360  Biso   1.000  H
  N19      1.0000 0.78390  0.62820  0.02860  Biso   1.000  N
  C27      1.0000 0.82440  0.65420  0.05720  Biso   1.000  C
  H27      1.0000 0.84830  0.67140  0.03010  Biso   1.000  H
  C28      1.0000 0.82310  0.64980  0.13330  Biso   1.000  C
  H28      1.0000 0.84580  0.66370  0.16610  Biso   1.000  H
  N20      1.0000 0.70507  0.64923  0.27920  Biso   1.000  N
  C29      1.0000 0.68460  0.64650  0.34490  Biso   1.000  C
  H29      1.0000 0.69280  0.62480  0.38290  Biso   1.000  H
  N21      1.0000 0.73670  0.54090  0.26360  Biso   1.000  N
  C30      1.0000 0.76810  0.50240  0.24120  Biso   1.000  C
  H30      1.0000 0.80160  0.50560  0.22890  Biso   1.000  H
  N22      1.0000 0.74050  0.45850  0.24050  Biso   1.000  N
  C31      1.0000 0.69210  0.46980  0.26240  Biso   1.000  C
  H31      1.0000 0.66590  0.44720  0.26670  Biso   1.000  H
  C32      1.0000 0.68980  0.52070  0.27670  Biso   1.000  C
  H32      1.0000 0.66170  0.53810  0.29230  Biso   1.000  H
  N23      1.0000 0.75690  0.53910  0.89890  Biso   1.000  N
  C33      1.0000 0.75970  0.49510  0.93920  Biso   1.000  C
  H33      1.0000 0.75920  0.49240  0.99010  Biso   1.000  H
  N24      1.0000 0.76350  0.45560  0.88980  Biso   1.000  N
  C34      1.0000 0.76300  0.47530  0.81910  Biso   1.000  C
  H34      1.0000 0.76500  0.45710  0.77560  Biso   1.000  H
  C35      1.0000 0.75890  0.52680  0.82470  Biso   1.000  C
  H35      1.0000 0.75770  0.54920  0.78570  Biso   1.000  H
  N25      1.0000 0.70510  0.64290  0.89010  Biso   1.000  N
  C36      1.0000 0.69210  0.68430  0.93190  Biso   1.000  C
  H36      1.0000 0.70420  0.69210  0.97840  Biso   1.000  H
  N26      1.0000 0.65770  0.71210  0.89200  Biso   1.000  N
  C37      1.0000 0.64950  0.68790  0.82550  Biso   1.000  C
  H37      1.0000 0.62810  0.69850  0.78830  Biso   1.000  H
  C38      1.0000 0.67880  0.64510  0.82430  Biso   1.000  C
  H38      1.0000 0.68050  0.62210  0.78620  Biso   1.000  H
  Zn5      1.0000 0.73588  0.89011  0.42238  Biso   1.000  Zn
  Zn6      1.0000 0.73631  0.89089  0.74412  Biso   1.000  Zn
  N27      1.0000 0.68070  0.87190  0.80470  Biso   1.000  N
  C39      1.0000 0.67450  0.82950  0.83580  Biso   1.000  C
  H39      1.0000 0.69910  0.80500  0.83660  Biso   1.000  H
  N28      1.0000 0.62960  0.82310  0.86710  Biso   1.000  N
  C40      1.0000 0.60360  0.86430  0.84980  Biso   1.000  C
  H40      1.0000 0.57050  0.87090  0.86190  Biso   1.000  H
  C41      1.0000 0.63410  0.89380  0.81220  Biso   1.000  C
  H41      1.0000 0.62540  0.92490  0.79340  Biso   1.000  H
  N29      1.0000 0.71980  0.87490  0.63340  Biso   1.000  N
  C42      1.0000 0.73950  0.89850  0.57190  Biso   1.000  C
  H42      1.0000 0.76270  0.92440  0.57220  Biso   1.000  H
  N30      1.0000 0.71850  0.87670  0.50980  Biso   1.000  N
  C43      1.0000 0.68580  0.83960  0.53300  Biso   1.000  C
  H43      1.0000 0.66680  0.81910  0.50280  Biso   1.000  H
  C44      1.0000 0.68660  0.83850  0.60940  Biso   1.000  C
  H44      1.0000 0.66820  0.81720  0.63920  Biso   1.000  H
  N31      1.0000 0.71830  0.87890  0.65180  Biso   1.000  N
  C45      1.0000 0.74250  0.89220  0.58710  Biso   1.000  C
  H45      1.0000 0.77130  0.91150  0.58360  Biso   1.000  H
  N32      1.0000 0.71610  0.87180  0.52860  Biso   1.000  N
  C46      1.0000 0.67560  0.84580  0.55720  Biso   1.000  C
  H46      1.0000 0.65170  0.82860  0.53010  Biso   1.000  H
  C47      1.0000 0.67690  0.85020  0.63330  Biso   1.000  C
  H47      1.0000 0.65420  0.83630  0.66610  Biso   1.000  H
  N33      1.0000 0.79493  0.85077  0.77920  Biso   1.000  N
  C48      1.0000 0.81540  0.85350  0.84490  Biso   1.000  C
  H48      1.0000 0.80720  0.87520  0.88290  Biso   1.000  H
  N34      1.0000 0.76330  0.95910  0.76360  Biso   1.000  N
  C49      1.0000 0.73190  0.99760  0.74120  Biso   1.000  C
  H49      1.0000 0.69840  0.99440  0.72890  Biso   1.000  H
  N35      1.0000 0.75950  0.04150  0.74050  Biso   1.000  N
  C50      1.0000 0.80790  0.03020  0.76240  Biso   1.000  C
  H50      1.0000 0.83410  0.05280  0.76670  Biso   1.000  H
  C51      1.0000 0.81020  0.97930  0.77670  Biso   1.000  C
  H51      1.0000 0.83830  0.96190  0.79230  Biso   1.000  H
  N36      1.0000 0.74310  0.96090  0.39890  Biso   1.000  N
  C52      1.0000 0.74030  0.00490  0.43920  Biso   1.000  C
  H52      1.0000 0.74080  0.00760  0.49010  Biso   1.000  H
  N37      1.0000 0.73650  0.04440  0.38980  Biso   1.000  N
  C53      1.0000 0.73700  0.02470  0.31910  Biso   1.000  C
  H53      1.0000 0.73500  0.04290  0.27560  Biso   1.000  H
  C54      1.0000 0.74110  0.97320  0.32470  Biso   1.000  C
  H54      1.0000 0.74230  0.95080  0.28570  Biso   1.000  H
  N38      1.0000 0.79490  0.85710  0.39010  Biso   1.000  N
  C55      1.0000 0.80790  0.81570  0.43190  Biso   1.000  C
  H55      1.0000 0.79580  0.80790  0.47840  Biso   1.000  H
  N39      1.0000 0.84230  0.78790  0.39200  Biso   1.000  N
  C56      1.0000 0.85050  0.81210  0.32550  Biso   1.000  C
  H56      1.0000 0.87190  0.80150  0.28830  Biso   1.000  H
  C57      1.0000 0.82120  0.85490  0.32430  Biso   1.000  C
  H57      1.0000 0.81950  0.87790  0.28620  Biso   1.000  H
  Zn7      1.0000 0.23588  0.39011  0.92238  Biso   1.000  Zn
  Zn8      1.0000 0.23631  0.39089  0.24412  Biso   1.000  Zn
  N40      1.0000 0.18070  0.37190  0.30470  Biso   1.000  N
  C58      1.0000 0.17450  0.32950  0.33580  Biso   1.000  C
  H58      1.0000 0.19910  0.30500  0.33660  Biso   1.000  H
  N41      1.0000 0.12960  0.32310  0.36710  Biso   1.000  N
  C59      1.0000 0.10360  0.36430  0.34980  Biso   1.000  C
  H59      1.0000 0.07050  0.37090  0.36190  Biso   1.000  H
  C60      1.0000 0.13410  0.39380  0.31220  Biso   1.000  C
  H60      1.0000 0.12540  0.42490  0.29340  Biso   1.000  H
  N42      1.0000 0.21980  0.37490  0.13340  Biso   1.000  N
  C61      1.0000 0.23950  0.39850  0.07190  Biso   1.000  C
  H61      1.0000 0.26270  0.42440  0.07220  Biso   1.000  H
  N43      1.0000 0.21850  0.37670  0.00980  Biso   1.000  N
  C62      1.0000 0.18580  0.33960  0.03300  Biso   1.000  C
  H62      1.0000 0.16680  0.31910  0.00280  Biso   1.000  H
  C63      1.0000 0.18660  0.33850  0.10940  Biso   1.000  C
  H63      1.0000 0.16820  0.31720  0.13920  Biso   1.000  H
  N44      1.0000 0.21830  0.37890  0.15180  Biso   1.000  N
  C64      1.0000 0.24250  0.39220  0.08710  Biso   1.000  C
  H64      1.0000 0.27130  0.41150  0.08360  Biso   1.000  H
  N45      1.0000 0.21610  0.37180  0.02860  Biso   1.000  N
  C65      1.0000 0.17560  0.34580  0.05720  Biso   1.000  C
  H65      1.0000 0.15170  0.32860  0.03010  Biso   1.000  H
  C66      1.0000 0.17690  0.35020  0.13330  Biso   1.000  C
  H66      1.0000 0.15420  0.33630  0.16610  Biso   1.000  H
  N46      1.0000 0.29493  0.35077  0.27920  Biso   1.000  N
  C67      1.0000 0.31540  0.35350  0.34490  Biso   1.000  C
  H67      1.0000 0.30720  0.37520  0.38290  Biso   1.000  H
  N47      1.0000 0.26330  0.45910  0.26360  Biso   1.000  N
  C68      1.0000 0.23190  0.49760  0.24120  Biso   1.000  C
  H68      1.0000 0.19840  0.49440  0.22890  Biso   1.000  H
  N48      1.0000 0.25950  0.54150  0.24050  Biso   1.000  N
  C69      1.0000 0.30790  0.53020  0.26240  Biso   1.000  C
  H69      1.0000 0.33410  0.55280  0.26670  Biso   1.000  H
  C70      1.0000 0.31020  0.47930  0.27670  Biso   1.000  C
  H70      1.0000 0.33830  0.46190  0.29230  Biso   1.000  H
  N49      1.0000 0.24310  0.46090  0.89890  Biso   1.000  N
  C71      1.0000 0.24030  0.50490  0.93920  Biso   1.000  C
  H71      1.0000 0.24080  0.50760  0.99010  Biso   1.000  H
  N50      1.0000 0.23650  0.54440  0.88980  Biso   1.000  N
  C72      1.0000 0.23700  0.52470  0.81910  Biso   1.000  C
  H72      1.0000 0.23500  0.54290  0.77560  Biso   1.000  H
  C73      1.0000 0.24110  0.47320  0.82470  Biso   1.000  C
  H73      1.0000 0.24230  0.45080  0.78570  Biso   1.000  H
  N51      1.0000 0.29490  0.35710  0.89010  Biso   1.000  N
  C74      1.0000 0.30790  0.31570  0.93190  Biso   1.000  C
  H74      1.0000 0.29580  0.30790  0.97840  Biso   1.000  H
  N52      1.0000 0.34230  0.28790  0.89200  Biso   1.000  N
  C75      1.0000 0.35050  0.31210  0.82550  Biso   1.000  C
  H75      1.0000 0.37190  0.30150  0.78830  Biso   1.000  H
  C76      1.0000 0.32120  0.35490  0.82430  Biso   1.000  C
  H76      1.0000 0.31950  0.37790  0.78620  Biso   1.000  H
  Zn9      1.0000 0.89011  0.26412  0.42238  Biso   1.000  Zn
  Zn10     1.0000 0.89089  0.26369  0.74412  Biso   1.000  Zn
  N53      1.0000 0.87190  0.31930  0.80470  Biso   1.000  N
  C77      1.0000 0.82950  0.32550  0.83580  Biso   1.000  C
  H77      1.0000 0.80500  0.30090  0.83660  Biso   1.000  H
  N54      1.0000 0.82310  0.37040  0.86710  Biso   1.000  N
  C78      1.0000 0.86430  0.39640  0.84980  Biso   1.000  C
  H78      1.0000 0.87090  0.42950  0.86190  Biso   1.000  H
  C79      1.0000 0.89380  0.36590  0.81220  Biso   1.000  C
  H79      1.0000 0.92490  0.37460  0.79340  Biso   1.000  H
  N55      1.0000 0.87490  0.28020  0.63340  Biso   1.000  N
  C80      1.0000 0.89850  0.26050  0.57190  Biso   1.000  C
  H80      1.0000 0.92440  0.23730  0.57220  Biso   1.000  H
  N56      1.0000 0.87670  0.28150  0.50980  Biso   1.000  N
  C81      1.0000 0.83960  0.31420  0.53300  Biso   1.000  C
  H81      1.0000 0.81910  0.33320  0.50280  Biso   1.000  H
  C82      1.0000 0.83850  0.31340  0.60940  Biso   1.000  C
  H82      1.0000 0.81720  0.33180  0.63920  Biso   1.000  H
  N57      1.0000 0.87890  0.28170  0.65180  Biso   1.000  N
  C83      1.0000 0.89220  0.25750  0.58710  Biso   1.000  C
  H83      1.0000 0.91150  0.22870  0.58360  Biso   1.000  H
  N58      1.0000 0.87180  0.28390  0.52860  Biso   1.000  N
  C84      1.0000 0.84580  0.32440  0.55720  Biso   1.000  C
  H84      1.0000 0.82860  0.34830  0.53010  Biso   1.000  H
  C85      1.0000 0.85020  0.32310  0.63330  Biso   1.000  C
  H85      1.0000 0.83630  0.34580  0.66610  Biso   1.000  H
  N59      1.0000 0.85077  0.20507  0.77920  Biso   1.000  N
  C86      1.0000 0.85350  0.18460  0.84490  Biso   1.000  C
  H86      1.0000 0.87520  0.19280  0.88290  Biso   1.000  H
  N60      1.0000 0.95910  0.23670  0.76360  Biso   1.000  N
  C87      1.0000 0.99760  0.26810  0.74120  Biso   1.000  C
  H87      1.0000 0.99440  0.30160  0.72890  Biso   1.000  H
  N61      1.0000 0.04150  0.24050  0.74050  Biso   1.000  N
  C88      1.0000 0.03020  0.19210  0.76240  Biso   1.000  C
  H88      1.0000 0.05280  0.16590  0.76670  Biso   1.000  H
  C89      1.0000 0.97930  0.18980  0.77670  Biso   1.000  C
  H89      1.0000 0.96190  0.16170  0.79230  Biso   1.000  H
  N62      1.0000 0.96090  0.25690  0.39890  Biso   1.000  N
  C90      1.0000 0.00490  0.25970  0.43920  Biso   1.000  C
  H90      1.0000 0.00760  0.25920  0.49010  Biso   1.000  H
  N63      1.0000 0.04440  0.26350  0.38980  Biso   1.000  N
  C91      1.0000 0.02470  0.26300  0.31910  Biso   1.000  C
  H91      1.0000 0.04290  0.26500  0.27560  Biso   1.000  H
  C92      1.0000 0.97320  0.25890  0.32470  Biso   1.000  C
  H92      1.0000 0.95080  0.25770  0.28570  Biso   1.000  H
  N64      1.0000 0.85710  0.20510  0.39010  Biso   1.000  N
  C93      1.0000 0.81570  0.19210  0.43190  Biso   1.000  C
  H93      1.0000 0.80790  0.20420  0.47840  Biso   1.000  H
  N65      1.0000 0.78790  0.15770  0.39200  Biso   1.000  N
  C94      1.0000 0.81210  0.14950  0.32550  Biso   1.000  C
  H94      1.0000 0.80150  0.12810  0.28830  Biso   1.000  H
  C95      1.0000 0.85490  0.17880  0.32430  Biso   1.000  C
  H95      1.0000 0.87790  0.18050  0.28620  Biso   1.000  H
  Zn11     1.0000 0.39011  0.76412  0.92238  Biso   1.000  Zn
  Zn12     1.0000 0.39089  0.76369  0.24412  Biso   1.000  Zn
  N66      1.0000 0.37190  0.81930  0.30470  Biso   1.000  N
  C96      1.0000 0.32950  0.82550  0.33580  Biso   1.000  C
  H96      1.0000 0.30500  0.80090  0.33660  Biso   1.000  H
  N67      1.0000 0.32310  0.87040  0.36710  Biso   1.000  N
  C97      1.0000 0.36430  0.89640  0.34980  Biso   1.000  C
  H97      1.0000 0.37090  0.92950  0.36190  Biso   1.000  H
  C98      1.0000 0.39380  0.86590  0.31220  Biso   1.000  C
  H98      1.0000 0.42490  0.87460  0.29340  Biso   1.000  H
  N68      1.0000 0.37490  0.78020  0.13340  Biso   1.000  N
  C99      1.0000 0.39850  0.76050  0.07190  Biso   1.000  C
  H99      1.0000 0.42440  0.73730  0.07220  Biso   1.000  H
  N69      1.0000 0.37670  0.78150  0.00980  Biso   1.000  N
  C100     1.0000 0.33960  0.81420  0.03300  Biso   1.000  C
  H100     1.0000 0.31910  0.83320  0.00280  Biso   1.000  H
  C101     1.0000 0.33850  0.81340  0.10940  Biso   1.000  C
  H101     1.0000 0.31720  0.83180  0.13920  Biso   1.000  H
  N70      1.0000 0.37890  0.78170  0.15180  Biso   1.000  N
  C102     1.0000 0.39220  0.75750  0.08710  Biso   1.000  C
  H102     1.0000 0.41150  0.72870  0.08360  Biso   1.000  H
  N71      1.0000 0.37180  0.78390  0.02860  Biso   1.000  N
  C103     1.0000 0.34580  0.82440  0.05720  Biso   1.000  C
  H103     1.0000 0.32860  0.84830  0.03010  Biso   1.000  H
  C104     1.0000 0.35020  0.82310  0.13330  Biso   1.000  C
  H104     1.0000 0.33630  0.84580  0.16610  Biso   1.000  H
  N72      1.0000 0.35077  0.70507  0.27920  Biso   1.000  N
  C105     1.0000 0.35350  0.68460  0.34490  Biso   1.000  C
  H105     1.0000 0.37520  0.69280  0.38290  Biso   1.000  H
  N73      1.0000 0.45910  0.73670  0.26360  Biso   1.000  N
  C106     1.0000 0.49760  0.76810  0.24120  Biso   1.000  C
  H106     1.0000 0.49440  0.80160  0.22890  Biso   1.000  H
  N74      1.0000 0.54150  0.74050  0.24050  Biso   1.000  N
  C107     1.0000 0.53020  0.69210  0.26240  Biso   1.000  C
  H107     1.0000 0.55280  0.66590  0.26670  Biso   1.000  H
  C108     1.0000 0.47930  0.68980  0.27670  Biso   1.000  C
  H108     1.0000 0.46190  0.66170  0.29230  Biso   1.000  H
  N75      1.0000 0.46090  0.75690  0.89890  Biso   1.000  N
  C109     1.0000 0.50490  0.75970  0.93920  Biso   1.000  C
  H109     1.0000 0.50760  0.75920  0.99010  Biso   1.000  H
  N76      1.0000 0.54440  0.76350  0.88980  Biso   1.000  N
  C110     1.0000 0.52470  0.76300  0.81910  Biso   1.000  C
  H110     1.0000 0.54290  0.76500  0.77560  Biso   1.000  H
  C111     1.0000 0.47320  0.75890  0.82470  Biso   1.000  C
  H111     1.0000 0.45080  0.75770  0.78570  Biso   1.000  H
  N77      1.0000 0.35710  0.70510  0.89010  Biso   1.000  N
  C112     1.0000 0.31570  0.69210  0.93190  Biso   1.000  C
  H112     1.0000 0.30790  0.70420  0.97840  Biso   1.000  H
  N78      1.0000 0.28790  0.65770  0.89200  Biso   1.000  N
  C113     1.0000 0.31210  0.64950  0.82550  Biso   1.000  C
  H113     1.0000 0.30150  0.62810  0.78830  Biso   1.000  H
  C114     1.0000 0.35490  0.67880  0.82430  Biso   1.000  C
  H114     1.0000 0.37790  0.68050  0.78620  Biso   1.000  H
  Zn13     1.0000 0.10989  0.73588  0.42238  Biso   1.000  Zn
  Zn14     1.0000 0.10911  0.73631  0.74412  Biso   1.000  Zn
  N79      1.0000 0.12810  0.68070  0.80470  Biso   1.000  N
  C115     1.0000 0.17050  0.67450  0.83580  Biso   1.000  C
  H115     1.0000 0.19500  0.69910  0.83660  Biso   1.000  H
  N80      1.0000 0.17690  0.62960  0.86710  Biso   1.000  N
  C116     1.0000 0.13570  0.60360  0.84980  Biso   1.000  C
  H116     1.0000 0.12910  0.57050  0.86190  Biso   1.000  H
  C117     1.0000 0.10620  0.63410  0.81220  Biso   1.000  C
  H117     1.0000 0.07510  0.62540  0.79340  Biso   1.000  H
  N81      1.0000 0.12510  0.71980  0.63340  Biso   1.000  N
  C118     1.0000 0.10150  0.73950  0.57190  Biso   1.000  C
  H118     1.0000 0.07560  0.76270  0.57220  Biso   1.000  H
  N82      1.0000 0.12330  0.71850  0.50980  Biso   1.000  N
  C119     1.0000 0.16040  0.68580  0.53300  Biso   1.000  C
  H119     1.0000 0.18090  0.66680  0.50280  Biso   1.000  H
  C120     1.0000 0.16150  0.68660  0.60940  Biso   1.000  C
  H120     1.0000 0.18280  0.66820  0.63920  Biso   1.000  H
  N83      1.0000 0.12110  0.71830  0.65180  Biso   1.000  N
  C121     1.0000 0.10780  0.74250  0.58710  Biso   1.000  C
  H121     1.0000 0.08850  0.77130  0.58360  Biso   1.000  H
  N84      1.0000 0.12820  0.71610  0.52860  Biso   1.000  N
  C122     1.0000 0.15420  0.67560  0.55720  Biso   1.000  C
  H122     1.0000 0.17140  0.65170  0.53010  Biso   1.000  H
  C123     1.0000 0.14980  0.67690  0.63330  Biso   1.000  C
  H123     1.0000 0.16370  0.65420  0.66610  Biso   1.000  H
  N85      1.0000 0.14923  0.79493  0.77920  Biso   1.000  N
  C124     1.0000 0.14650  0.81540  0.84490  Biso   1.000  C
  H124     1.0000 0.12480  0.80720  0.88290  Biso   1.000  H
  N86      1.0000 0.04090  0.76330  0.76360  Biso   1.000  N
  C125     1.0000 0.00240  0.73190  0.74120  Biso   1.000  C
  H125     1.0000 0.00560  0.69840  0.72890  Biso   1.000  H
  N87      1.0000 0.95850  0.75950  0.74050  Biso   1.000  N
  C126     1.0000 0.96980  0.80790  0.76240  Biso   1.000  C
  H126     1.0000 0.94720  0.83410  0.76670  Biso   1.000  H
  C127     1.0000 0.02070  0.81020  0.77670  Biso   1.000  C
  H127     1.0000 0.03810  0.83830  0.79230  Biso   1.000  H
  N88      1.0000 0.03910  0.74310  0.39890  Biso   1.000  N
  C128     1.0000 0.99510  0.74030  0.43920  Biso   1.000  C
  H128     1.0000 0.99240  0.74080  0.49010  Biso   1.000  H
  N89      1.0000 0.95560  0.73650  0.38980  Biso   1.000  N
  C129     1.0000 0.97530  0.73700  0.31910  Biso   1.000  C
  H129     1.0000 0.95710  0.73500  0.27560  Biso   1.000  H
  C130     1.0000 0.02680  0.74110  0.32470  Biso   1.000  C
  H130     1.0000 0.04920  0.74230  0.28570  Biso   1.000  H
  N90      1.0000 0.14290  0.79490  0.39010  Biso   1.000  N
  C131     1.0000 0.18430  0.80790  0.43190  Biso   1.000  C
  H131     1.0000 0.19210  0.79580  0.47840  Biso   1.000  H
  N91      1.0000 0.21210  0.84230  0.39200  Biso   1.000  N
  C132     1.0000 0.18790  0.85050  0.32550  Biso   1.000  C
  H132     1.0000 0.19850  0.87190  0.28830  Biso   1.000  H
  C133     1.0000 0.14510  0.82120  0.32430  Biso   1.000  C
  H133     1.0000 0.12210  0.81950  0.28620  Biso   1.000  H
  Zn15     1.0000 0.60989  0.23588  0.92238  Biso   1.000  Zn
  Zn16     1.0000 0.60911  0.23631  0.24412  Biso   1.000  Zn
  N92      1.0000 0.62810  0.18070  0.30470  Biso   1.000  N
  C134     1.0000 0.67050  0.17450  0.33580  Biso   1.000  C
  H134     1.0000 0.69500  0.19910  0.33660  Biso   1.000  H
  N93      1.0000 0.67690  0.12960  0.36710  Biso   1.000  N
  C135     1.0000 0.63570  0.10360  0.34980  Biso   1.000  C
  H135     1.0000 0.62910  0.07050  0.36190  Biso   1.000  H
  C136     1.0000 0.60620  0.13410  0.31220  Biso   1.000  C
  H136     1.0000 0.57510  0.12540  0.29340  Biso   1.000  H
  N94      1.0000 0.62510  0.21980  0.13340  Biso   1.000  N
  C137     1.0000 0.60150  0.23950  0.07190  Biso   1.000  C
  H137     1.0000 0.57560  0.26270  0.07220  Biso   1.000  H
  N95      1.0000 0.62330  0.21850  0.00980  Biso   1.000  N
  C138     1.0000 0.66040  0.18580  0.03300  Biso   1.000  C
  H138     1.0000 0.68090  0.16680  0.00280  Biso   1.000  H
  C139     1.0000 0.66150  0.18660  0.10940  Biso   1.000  C
  H139     1.0000 0.68280  0.16820  0.13920  Biso   1.000  H
  N96      1.0000 0.62110  0.21830  0.15180  Biso   1.000  N
  C140     1.0000 0.60780  0.24250  0.08710  Biso   1.000  C
  H140     1.0000 0.58850  0.27130  0.08360  Biso   1.000  H
  N97      1.0000 0.62820  0.21610  0.02860  Biso   1.000  N
  C141     1.0000 0.65420  0.17560  0.05720  Biso   1.000  C
  H141     1.0000 0.67140  0.15170  0.03010  Biso   1.000  H
  C142     1.0000 0.64980  0.17690  0.13330  Biso   1.000  C
  H142     1.0000 0.66370  0.15420  0.16610  Biso   1.000  H
  N98      1.0000 0.64923  0.29493  0.27920  Biso   1.000  N
  C143     1.0000 0.64650  0.31540  0.34490  Biso   1.000  C
  H143     1.0000 0.62480  0.30720  0.38290  Biso   1.000  H
  N99      1.0000 0.54090  0.26330  0.26360  Biso   1.000  N
  C144     1.0000 0.50240  0.23190  0.24120  Biso   1.000  C
  H144     1.0000 0.50560  0.19840  0.22890  Biso   1.000  H
  N100     1.0000 0.45850  0.25950  0.24050  Biso   1.000  N
  C145     1.0000 0.46980  0.30790  0.26240  Biso   1.000  C
  H145     1.0000 0.44720  0.33410  0.26670  Biso   1.000  H
  C146     1.0000 0.52070  0.31020  0.27670  Biso   1.000  C
  H146     1.0000 0.53810  0.33830  0.29230  Biso   1.000  H
  N101     1.0000 0.53910  0.24310  0.89890  Biso   1.000  N
  C147     1.0000 0.49510  0.24030  0.93920  Biso   1.000  C
  H147     1.0000 0.49240  0.24080  0.99010  Biso   1.000  H
  N102     1.0000 0.45560  0.23650  0.88980  Biso   1.000  N
  C148     1.0000 0.47530  0.23700  0.81910  Biso   1.000  C
  H148     1.0000 0.45710  0.23500  0.77560  Biso   1.000  H
  C149     1.0000 0.52680  0.24110  0.82470  Biso   1.000  C
  H149     1.0000 0.54920  0.24230  0.78570  Biso   1.000  H
  N103     1.0000 0.64290  0.29490  0.89010  Biso   1.000  N
  C150     1.0000 0.68430  0.30790  0.93190  Biso   1.000  C
  H150     1.0000 0.69210  0.29580  0.97840  Biso   1.000  H
  N104     1.0000 0.71210  0.34230  0.89200  Biso   1.000  N
  C151     1.0000 0.68790  0.35050  0.82550  Biso   1.000  C
  H151     1.0000 0.69850  0.37190  0.78830  Biso   1.000  H
  C152     1.0000 0.64510  0.32120  0.82430  Biso   1.000  C
  H152     1.0000 0.62210  0.31950  0.78620  Biso   1.000  H
  Zn17     1.0000 0.26412  0.89011  0.42238  Biso   1.000  Zn
  Zn18     1.0000 0.26369  0.89089  0.74412  Biso   1.000  Zn
  N105     1.0000 0.31930  0.87190  0.80470  Biso   1.000  N
  C153     1.0000 0.32550  0.82950  0.83580  Biso   1.000  C
  H153     1.0000 0.30090  0.80500  0.83660  Biso   1.000  H
  N106     1.0000 0.37040  0.82310  0.86710  Biso   1.000  N
  C154     1.0000 0.39640  0.86430  0.84980  Biso   1.000  C
  H154     1.0000 0.42950  0.87090  0.86190  Biso   1.000  H
  C155     1.0000 0.36590  0.89380  0.81220  Biso   1.000  C
  H155     1.0000 0.37460  0.92490  0.79340  Biso   1.000  H
  N107     1.0000 0.28020  0.87490  0.63340  Biso   1.000  N
  C156     1.0000 0.26050  0.89850  0.57190  Biso   1.000  C
  H156     1.0000 0.23730  0.92440  0.57220  Biso   1.000  H
  N108     1.0000 0.28150  0.87670  0.50980  Biso   1.000  N
  C157     1.0000 0.31420  0.83960  0.53300  Biso   1.000  C
  H157     1.0000 0.33320  0.81910  0.50280  Biso   1.000  H
  C158     1.0000 0.31340  0.83850  0.60940  Biso   1.000  C
  H158     1.0000 0.33180  0.81720  0.63920  Biso   1.000  H
  N109     1.0000 0.28170  0.87890  0.65180  Biso   1.000  N
  C159     1.0000 0.25750  0.89220  0.58710  Biso   1.000  C
  H159     1.0000 0.22870  0.91150  0.58360  Biso   1.000  H
  N110     1.0000 0.28390  0.87180  0.52860  Biso   1.000  N
  C160     1.0000 0.32440  0.84580  0.55720  Biso   1.000  C
  H160     1.0000 0.34830  0.82860  0.53010  Biso   1.000  H
  C161     1.0000 0.32310  0.85020  0.63330  Biso   1.000  C
  H161     1.0000 0.34580  0.83630  0.66610  Biso   1.000  H
  N111     1.0000 0.20507  0.85077  0.77920  Biso   1.000  N
  C162     1.0000 0.18460  0.85350  0.84490  Biso   1.000  C
  H162     1.0000 0.19280  0.87520  0.88290  Biso   1.000  H
  N112     1.0000 0.23670  0.95910  0.76360  Biso   1.000  N
  C163     1.0000 0.26810  0.99760  0.74120  Biso   1.000  C
  H163     1.0000 0.30160  0.99440  0.72890  Biso   1.000  H
  N113     1.0000 0.24050  0.04150  0.74050  Biso   1.000  N
  C164     1.0000 0.19210  0.03020  0.76240  Biso   1.000  C
  H164     1.0000 0.16590  0.05280  0.76670  Biso   1.000  H
  C165     1.0000 0.18980  0.97930  0.77670  Biso   1.000  C
  H165     1.0000 0.16170  0.96190  0.79230  Biso   1.000  H
  N114     1.0000 0.25690  0.96090  0.39890  Biso   1.000  N
  C166     1.0000 0.25970  0.00490  0.43920  Biso   1.000  C
  H166     1.0000 0.25920  0.00760  0.49010  Biso   1.000  H
  N115     1.0000 0.26350  0.04440  0.38980  Biso   1.000  N
  C167     1.0000 0.26300  0.02470  0.31910  Biso   1.000  C
  H167     1.0000 0.26500  0.04290  0.27560  Biso   1.000  H
  C168     1.0000 0.25890  0.97320  0.32470  Biso   1.000  C
  H168     1.0000 0.25770  0.95080  0.28570  Biso   1.000  H
  N116     1.0000 0.20510  0.85710  0.39010  Biso   1.000  N
  C169     1.0000 0.19210  0.81570  0.43190  Biso   1.000  C
  H169     1.0000 0.20420  0.80790  0.47840  Biso   1.000  H
  N117     1.0000 0.15770  0.78790  0.39200  Biso   1.000  N
  C170     1.0000 0.14950  0.81210  0.32550  Biso   1.000  C
  H170     1.0000 0.12810  0.80150  0.28830  Biso   1.000  H
  C171     1.0000 0.17880  0.85490  0.32430  Biso   1.000  C
  H171     1.0000 0.18050  0.87790  0.28620  Biso   1.000  H
  Zn19     1.0000 0.76412  0.39011  0.92238  Biso   1.000  Zn
  Zn20     1.0000 0.76369  0.39089  0.24412  Biso   1.000  Zn
  N118     1.0000 0.81930  0.37190  0.30470  Biso   1.000  N
  C172     1.0000 0.82550  0.32950  0.33580  Biso   1.000  C
  H172     1.0000 0.80090  0.30500  0.33660  Biso   1.000  H
  N119     1.0000 0.87040  0.32310  0.36710  Biso   1.000  N
  C173     1.0000 0.89640  0.36430  0.34980  Biso   1.000  C
  H173     1.0000 0.92950  0.37090  0.36190  Biso   1.000  H
  C174     1.0000 0.86590  0.39380  0.31220  Biso   1.000  C
  H174     1.0000 0.87460  0.42490  0.29340  Biso   1.000  H
  N120     1.0000 0.78020  0.37490  0.13340  Biso   1.000  N
  C175     1.0000 0.76050  0.39850  0.07190  Biso   1.000  C
  H175     1.0000 0.73730  0.42440  0.07220  Biso   1.000  H
  N121     1.0000 0.78150  0.37670  0.00980  Biso   1.000  N
  C176     1.0000 0.81420  0.33960  0.03300  Biso   1.000  C
  H176     1.0000 0.83320  0.31910  0.00280  Biso   1.000  H
  C177     1.0000 0.81340  0.33850  0.10940  Biso   1.000  C
  H177     1.0000 0.83180  0.31720  0.13920  Biso   1.000  H
  N122     1.0000 0.78170  0.37890  0.15180  Biso   1.000  N
  C178     1.0000 0.75750  0.39220  0.08710  Biso   1.000  C
  H178     1.0000 0.72870  0.41150  0.08360  Biso   1.000  H
  N123     1.0000 0.78390  0.37180  0.02860  Biso   1.000  N
  C179     1.0000 0.82440  0.34580  0.05720  Biso   1.000  C
  H179     1.0000 0.84830  0.32860  0.03010  Biso   1.000  H
  C180     1.0000 0.82310  0.35020  0.13330  Biso   1.000  C
  H180     1.0000 0.84580  0.33630  0.16610  Biso   1.000  H
  N124     1.0000 0.70507  0.35077  0.27920  Biso   1.000  N
  C181     1.0000 0.68460  0.35350  0.34490  Biso   1.000  C
  H181     1.0000 0.69280  0.37520  0.38290  Biso   1.000  H
  N125     1.0000 0.73670  0.45910  0.26360  Biso   1.000  N
  C182     1.0000 0.76810  0.49760  0.24120  Biso   1.000  C
  H182     1.0000 0.80160  0.49440  0.22890  Biso   1.000  H
  N126     1.0000 0.74050  0.54150  0.24050  Biso   1.000  N
  C183     1.0000 0.69210  0.53020  0.26240  Biso   1.000  C
  H183     1.0000 0.66590  0.55280  0.26670  Biso   1.000  H
  C184     1.0000 0.68980  0.47930  0.27670  Biso   1.000  C
  H184     1.0000 0.66170  0.46190  0.29230  Biso   1.000  H
  N127     1.0000 0.75690  0.46090  0.89890  Biso   1.000  N
  C185     1.0000 0.75970  0.50490  0.93920  Biso   1.000  C
  H185     1.0000 0.75920  0.50760  0.99010  Biso   1.000  H
  N128     1.0000 0.76350  0.54440  0.88980  Biso   1.000  N
  C186     1.0000 0.76300  0.52470  0.81910  Biso   1.000  C
  H186     1.0000 0.76500  0.54290  0.77560  Biso   1.000  H
  C187     1.0000 0.75890  0.47320  0.82470  Biso   1.000  C
  H187     1.0000 0.75770  0.45080  0.78570  Biso   1.000  H
  N129     1.0000 0.70510  0.35710  0.89010  Biso   1.000  N
  C188     1.0000 0.69210  0.31570  0.93190  Biso   1.000  C
  H188     1.0000 0.70420  0.30790  0.97840  Biso   1.000  H
  N130     1.0000 0.65770  0.28790  0.89200  Biso   1.000  N
  C189     1.0000 0.64950  0.31210  0.82550  Biso   1.000  C
  H189     1.0000 0.62810  0.30150  0.78830  Biso   1.000  H
  C190     1.0000 0.67880  0.35490  0.82430  Biso   1.000  C
  H190     1.0000 0.68050  0.37790  0.78620  Biso   1.000  H
  Zn21     1.0000 0.73588  0.10989  0.42238  Biso   1.000  Zn
  Zn22     1.0000 0.73631  0.10911  0.74412  Biso   1.000  Zn
  N131     1.0000 0.68070  0.12810  0.80470  Biso   1.000  N
  C191     1.0000 0.67450  0.17050  0.83580  Biso   1.000  C
  H191     1.0000 0.69910  0.19500  0.83660  Biso   1.000  H
  N132     1.0000 0.62960  0.17690  0.86710  Biso   1.000  N
  C192     1.0000 0.60360  0.13570  0.84980  Biso   1.000  C
  H192     1.0000 0.57050  0.12910  0.86190  Biso   1.000  H
  C193     1.0000 0.63410  0.10620  0.81220  Biso   1.000  C
  H193     1.0000 0.62540  0.07510  0.79340  Biso   1.000  H
  N133     1.0000 0.71980  0.12510  0.63340  Biso   1.000  N
  C194     1.0000 0.73950  0.10150  0.57190  Biso   1.000  C
  H194     1.0000 0.76270  0.07560  0.57220  Biso   1.000  H
  N134     1.0000 0.71850  0.12330  0.50980  Biso   1.000  N
  C195     1.0000 0.68580  0.16040  0.53300  Biso   1.000  C
  H195     1.0000 0.66680  0.18090  0.50280  Biso   1.000  H
  C196     1.0000 0.68660  0.16150  0.60940  Biso   1.000  C
  H196     1.0000 0.66820  0.18280  0.63920  Biso   1.000  H
  N135     1.0000 0.71830  0.12110  0.65180  Biso   1.000  N
  C197     1.0000 0.74250  0.10780  0.58710  Biso   1.000  C
  H197     1.0000 0.77130  0.08850  0.58360  Biso   1.000  H
  N136     1.0000 0.71610  0.12820  0.52860  Biso   1.000  N
  C198     1.0000 0.67560  0.15420  0.55720  Biso   1.000  C
  H198     1.0000 0.65170  0.17140  0.53010  Biso   1.000  H
  C199     1.0000 0.67690  0.14980  0.63330  Biso   1.000  C
  H199     1.0000 0.65420  0.16370  0.66610  Biso   1.000  H
  N137     1.0000 0.79493  0.14923  0.77920  Biso   1.000  N
  C200     1.0000 0.81540  0.14650  0.84490  Biso   1.000  C
  H200     1.0000 0.80720  0.12480  0.88290  Biso   1.000  H
  N138     1.0000 0.76330  0.04090  0.76360  Biso   1.000  N
  C201     1.0000 0.73190  0.00240  0.74120  Biso   1.000  C
  H201     1.0000 0.69840  0.00560  0.72890  Biso   1.000  H
  N139     1.0000 0.75950  0.95850  0.74050  Biso   1.000  N
  C202     1.0000 0.80790  0.96980  0.76240  Biso   1.000  C
  H202     1.0000 0.83410  0.94720  0.76670  Biso   1.000  H
  C203     1.0000 0.81020  0.02070  0.77670  Biso   1.000  C
  H203     1.0000 0.83830  0.03810  0.79230  Biso   1.000  H
  N140     1.0000 0.74310  0.03910  0.39890  Biso   1.000  N
  C204     1.0000 0.74030  0.99510  0.43920  Biso   1.000  C
  H204     1.0000 0.74080  0.99240  0.49010  Biso   1.000  H
  N141     1.0000 0.73650  0.95560  0.38980  Biso   1.000  N
  C205     1.0000 0.73700  0.97530  0.31910  Biso   1.000  C
  H205     1.0000 0.73500  0.95710  0.27560  Biso   1.000  H
  C206     1.0000 0.74110  0.02680  0.32470  Biso   1.000  C
  H206     1.0000 0.74230  0.04920  0.28570  Biso   1.000  H
  N142     1.0000 0.79490  0.14290  0.39010  Biso   1.000  N
  C207     1.0000 0.80790  0.18430  0.43190  Biso   1.000  C
  H207     1.0000 0.79580  0.19210  0.47840  Biso   1.000  H
  N143     1.0000 0.84230  0.21210  0.39200  Biso   1.000  N
  C208     1.0000 0.85050  0.18790  0.32550  Biso   1.000  C
  H208     1.0000 0.87190  0.19850  0.28830  Biso   1.000  H
  C209     1.0000 0.82120  0.14510  0.32430  Biso   1.000  C
  H209     1.0000 0.81950  0.12210  0.28620  Biso   1.000  H
  Zn23     1.0000 0.23588  0.60989  0.92238  Biso   1.000  Zn
  Zn24     1.0000 0.23631  0.60911  0.24412  Biso   1.000  Zn
  N144     1.0000 0.18070  0.62810  0.30470  Biso   1.000  N
  C210     1.0000 0.17450  0.67050  0.33580  Biso   1.000  C
  H210     1.0000 0.19910  0.69500  0.33660  Biso   1.000  H
  N145     1.0000 0.12960  0.67690  0.36710  Biso   1.000  N
  C211     1.0000 0.10360  0.63570  0.34980  Biso   1.000  C
  H211     1.0000 0.07050  0.62910  0.36190  Biso   1.000  H
  C212     1.0000 0.13410  0.60620  0.31220  Biso   1.000  C
  H212     1.0000 0.12540  0.57510  0.29340  Biso   1.000  H
  N146     1.0000 0.21980  0.62510  0.13340  Biso   1.000  N
  C213     1.0000 0.23950  0.60150  0.07190  Biso   1.000  C
  H213     1.0000 0.26270  0.57560  0.07220  Biso   1.000  H
  N147     1.0000 0.21850  0.62330  0.00980  Biso   1.000  N
  C214     1.0000 0.18580  0.66040  0.03300  Biso   1.000  C
  H214     1.0000 0.16680  0.68090  0.00280  Biso   1.000  H
  C215     1.0000 0.18660  0.66150  0.10940  Biso   1.000  C
  H215     1.0000 0.16820  0.68280  0.13920  Biso   1.000  H
  N148     1.0000 0.21830  0.62110  0.15180  Biso   1.000  N
  C216     1.0000 0.24250  0.60780  0.08710  Biso   1.000  C
  H216     1.0000 0.27130  0.58850  0.08360  Biso   1.000  H
  N149     1.0000 0.21610  0.62820  0.02860  Biso   1.000  N
  C217     1.0000 0.17560  0.65420  0.05720  Biso   1.000  C
  H217     1.0000 0.15170  0.67140  0.03010  Biso   1.000  H
  C218     1.0000 0.17690  0.64980  0.13330  Biso   1.000  C
  H218     1.0000 0.15420  0.66370  0.16610  Biso   1.000  H
  N150     1.0000 0.29493  0.64923  0.27920  Biso   1.000  N
  C219     1.0000 0.31540  0.64650  0.34490  Biso   1.000  C
  H219     1.0000 0.30720  0.62480  0.38290  Biso   1.000  H
  N151     1.0000 0.26330  0.54090  0.26360  Biso   1.000  N
  C220     1.0000 0.23190  0.50240  0.24120  Biso   1.000  C
  H220     1.0000 0.19840  0.50560  0.22890  Biso   1.000  H
  N152     1.0000 0.25950  0.45850  0.24050  Biso   1.000  N
  C221     1.0000 0.30790  0.46980  0.26240  Biso   1.000  C
  H221     1.0000 0.33410  0.44720  0.26670  Biso   1.000  H
  C222     1.0000 0.31020  0.52070  0.27670  Biso   1.000  C
  H222     1.0000 0.33830  0.53810  0.29230  Biso   1.000  H
  N153     1.0000 0.24310  0.53910  0.89890  Biso   1.000  N
  C223     1.0000 0.24030  0.49510  0.93920  Biso   1.000  C
  H223     1.0000 0.24080  0.49240  0.99010  Biso   1.000  H
  N154     1.0000 0.23650  0.45560  0.88980  Biso   1.000  N
  C224     1.0000 0.23700  0.47530  0.81910  Biso   1.000  C
  H224     1.0000 0.23500  0.45710  0.77560  Biso   1.000  H
  C225     1.0000 0.24110  0.52680  0.82470  Biso   1.000  C
  H225     1.0000 0.24230  0.54920  0.78570  Biso   1.000  H
  N155     1.0000 0.29490  0.64290  0.89010  Biso   1.000  N
  C226     1.0000 0.30790  0.68430  0.93190  Biso   1.000  C
  H226     1.0000 0.29580  0.69210  0.97840  Biso   1.000  H
  N156     1.0000 0.34230  0.71210  0.89200  Biso   1.000  N
  C227     1.0000 0.35050  0.68790  0.82550  Biso   1.000  C
  H227     1.0000 0.37190  0.69850  0.78830  Biso   1.000  H
  C228     1.0000 0.32120  0.64510  0.82430  Biso   1.000  C
  H228     1.0000 0.31950  0.62210  0.78620  Biso   1.000  H
  Zn25     1.0000 0.89011  0.73588  0.42238  Biso   1.000  Zn
  Zn26     1.0000 0.89089  0.73631  0.74412  Biso   1.000  Zn
  N157     1.0000 0.87190  0.68070  0.80470  Biso   1.000  N
  C229     1.0000 0.82950  0.67450  0.83580  Biso   1.000  C
  H229     1.0000 0.80500  0.69910  0.83660  Biso   1.000  H
  N158     1.0000 0.82310  0.62960  0.86710  Biso   1.000  N
  C230     1.0000 0.86430  0.60360  0.84980  Biso   1.000  C
  H230     1.0000 0.87090  0.57050  0.86190  Biso   1.000  H
  C231     1.0000 0.89380  0.63410  0.81220  Biso   1.000  C
  H231     1.0000 0.92490  0.62540  0.79340  Biso   1.000  H
  N159     1.0000 0.87490  0.71980  0.63340  Biso   1.000  N
  C232     1.0000 0.89850  0.73950  0.57190  Biso   1.000  C
  H232     1.0000 0.92440  0.76270  0.57220  Biso   1.000  H
  N160     1.0000 0.87670  0.71850  0.50980  Biso   1.000  N
  C233     1.0000 0.83960  0.68580  0.53300  Biso   1.000  C
  H233     1.0000 0.81910  0.66680  0.50280  Biso   1.000  H
  C234     1.0000 0.83850  0.68660  0.60940  Biso   1.000  C
  H234     1.0000 0.81720  0.66820  0.63920  Biso   1.000  H
  N161     1.0000 0.87890  0.71830  0.65180  Biso   1.000  N
  C235     1.0000 0.89220  0.74250  0.58710  Biso   1.000  C
  H235     1.0000 0.91150  0.77130  0.58360  Biso   1.000  H
  N162     1.0000 0.87180  0.71610  0.52860  Biso   1.000  N
  C236     1.0000 0.84580  0.67560  0.55720  Biso   1.000  C
  H236     1.0000 0.82860  0.65170  0.53010  Biso   1.000  H
  C237     1.0000 0.85020  0.67690  0.63330  Biso   1.000  C
  H237     1.0000 0.83630  0.65420  0.66610  Biso   1.000  H
  N163     1.0000 0.85077  0.79493  0.77920  Biso   1.000  N
  C238     1.0000 0.85350  0.81540  0.84490  Biso   1.000  C
  H238     1.0000 0.87520  0.80720  0.88290  Biso   1.000  H
  N164     1.0000 0.95910  0.76330  0.76360  Biso   1.000  N
  C239     1.0000 0.99760  0.73190  0.74120  Biso   1.000  C
  H239     1.0000 0.99440  0.69840  0.72890  Biso   1.000  H
  N165     1.0000 0.04150  0.75950  0.74050  Biso   1.000  N
  C240     1.0000 0.03020  0.80790  0.76240  Biso   1.000  C
  H240     1.0000 0.05280  0.83410  0.76670  Biso   1.000  H
  C241     1.0000 0.97930  0.81020  0.77670  Biso   1.000  C
  H241     1.0000 0.96190  0.83830  0.79230  Biso   1.000  H
  N166     1.0000 0.96090  0.74310  0.39890  Biso   1.000  N
  C242     1.0000 0.00490  0.74030  0.43920  Biso   1.000  C
  H242     1.0000 0.00760  0.74080  0.49010  Biso   1.000  H
  N167     1.0000 0.04440  0.73650  0.38980  Biso   1.000  N
  C243     1.0000 0.02470  0.73700  0.31910  Biso   1.000  C
  H243     1.0000 0.04290  0.73500  0.27560  Biso   1.000  H
  C244     1.0000 0.97320  0.74110  0.32470  Biso   1.000  C
  H244     1.0000 0.95080  0.74230  0.28570  Biso   1.000  H
  N168     1.0000 0.85710  0.79490  0.39010  Biso   1.000  N
  C245     1.0000 0.81570  0.80790  0.43190  Biso   1.000  C
  H245     1.0000 0.80790  0.79580  0.47840  Biso   1.000  H
  N169     1.0000 0.78790  0.84230  0.39200  Biso   1.000  N
  C246     1.0000 0.81210  0.85050  0.32550  Biso   1.000  C
  H246     1.0000 0.80150  0.87190  0.28830  Biso   1.000  H
  C247     1.0000 0.85490  0.82120  0.32430  Biso   1.000  C
  H247     1.0000 0.87790  0.81950  0.28620  Biso   1.000  H
  Zn27     1.0000 0.39011  0.23588  0.92238  Biso   1.000  Zn
  Zn28     1.0000 0.39089  0.23631  0.24412  Biso   1.000  Zn
  N170     1.0000 0.37190  0.18070  0.30470  Biso   1.000  N
  C248     1.0000 0.32950  0.17450  0.33580  Biso   1.000  C
  H248     1.0000 0.30500  0.19910  0.33660  Biso   1.000  H
  N171     1.0000 0.32310  0.12960  0.36710  Biso   1.000  N
  C249     1.0000 0.36430  0.10360  0.34980  Biso   1.000  C
  H249     1.0000 0.37090  0.07050  0.36190  Biso   1.000  H
  C250     1.0000 0.39380  0.13410  0.31220  Biso   1.000  C
  H250     1.0000 0.42490  0.12540  0.29340  Biso   1.000  H
  N172     1.0000 0.37490  0.21980  0.13340  Biso   1.000  N
  C251     1.0000 0.39850  0.23950  0.07190  Biso   1.000  C
  H251     1.0000 0.42440  0.26270  0.07220  Biso   1.000  H
  N173     1.0000 0.37670  0.21850  0.00980  Biso   1.000  N
  C252     1.0000 0.33960  0.18580  0.03300  Biso   1.000  C
  H252     1.0000 0.31910  0.16680  0.00280  Biso   1.000  H
  C253     1.0000 0.33850  0.18660  0.10940  Biso   1.000  C
  H253     1.0000 0.31720  0.16820  0.13920  Biso   1.000  H
  N174     1.0000 0.37890  0.21830  0.15180  Biso   1.000  N
  C254     1.0000 0.39220  0.24250  0.08710  Biso   1.000  C
  H254     1.0000 0.41150  0.27130  0.08360  Biso   1.000  H
  N175     1.0000 0.37180  0.21610  0.02860  Biso   1.000  N
  C255     1.0000 0.34580  0.17560  0.05720  Biso   1.000  C
  H255     1.0000 0.32860  0.15170  0.03010  Biso   1.000  H
  C256     1.0000 0.35020  0.17690  0.13330  Biso   1.000  C
  H256     1.0000 0.33630  0.15420  0.16610  Biso   1.000  H
  N176     1.0000 0.35077  0.29493  0.27920  Biso   1.000  N
  C257     1.0000 0.35350  0.31540  0.34490  Biso   1.000  C
  H257     1.0000 0.37520  0.30720  0.38290  Biso   1.000  H
  N177     1.0000 0.45910  0.26330  0.26360  Biso   1.000  N
  C258     1.0000 0.49760  0.23190  0.24120  Biso   1.000  C
  H258     1.0000 0.49440  0.19840  0.22890  Biso   1.000  H
  N178     1.0000 0.54150  0.25950  0.24050  Biso   1.000  N
  C259     1.0000 0.53020  0.30790  0.26240  Biso   1.000  C
  H259     1.0000 0.55280  0.33410  0.26670  Biso   1.000  H
  C260     1.0000 0.47930  0.31020  0.27670  Biso   1.000  C
  H260     1.0000 0.46190  0.33830  0.29230  Biso   1.000  H
  N179     1.0000 0.46090  0.24310  0.89890  Biso   1.000  N
  C261     1.0000 0.50490  0.24030  0.93920  Biso   1.000  C
  H261     1.0000 0.50760  0.24080  0.99010  Biso   1.000  H
  N180     1.0000 0.54440  0.23650  0.88980  Biso   1.000  N
  C262     1.0000 0.52470  0.23700  0.81910  Biso   1.000  C
  H262     1.0000 0.54290  0.23500  0.77560  Biso   1.000  H
  C263     1.0000 0.47320  0.24110  0.82470  Biso   1.000  C
  H263     1.0000 0.45080  0.24230  0.78570  Biso   1.000  H
  N181     1.0000 0.35710  0.29490  0.89010  Biso   1.000  N
  C264     1.0000 0.31570  0.30790  0.93190  Biso   1.000  C
  H264     1.0000 0.30790  0.29580  0.97840  Biso   1.000  H
  N182     1.0000 0.28790  0.34230  0.89200  Biso   1.000  N
  C265     1.0000 0.31210  0.35050  0.82550  Biso   1.000  C
  H265     1.0000 0.30150  0.37190  0.78830  Biso   1.000  H
  C266     1.0000 0.35490  0.32120  0.82430  Biso   1.000  C
  H266     1.0000 0.37790  0.31950  0.78620  Biso   1.000  H
  Zn29     1.0000 0.10989  0.26412  0.42238  Biso   1.000  Zn
  Zn30     1.0000 0.10911  0.26369  0.74412  Biso   1.000  Zn
  N183     1.0000 0.12810  0.31930  0.80470  Biso   1.000  N
  C267     1.0000 0.17050  0.32550  0.83580  Biso   1.000  C
  H267     1.0000 0.19500  0.30090  0.83660  Biso   1.000  H
  N184     1.0000 0.17690  0.37040  0.86710  Biso   1.000  N
  C268     1.0000 0.13570  0.39640  0.84980  Biso   1.000  C
  H268     1.0000 0.12910  0.42950  0.86190  Biso   1.000  H
  C269     1.0000 0.10620  0.36590  0.81220  Biso   1.000  C
  H269     1.0000 0.07510  0.37460  0.79340  Biso   1.000  H
  N185     1.0000 0.12510  0.28020  0.63340  Biso   1.000  N
  C270     1.0000 0.10150  0.26050  0.57190  Biso   1.000  C
  H270     1.0000 0.07560  0.23730  0.57220  Biso   1.000  H
  N186     1.0000 0.12330  0.28150  0.50980  Biso   1.000  N
  C271     1.0000 0.16040  0.31420  0.53300  Biso   1.000  C
  H271     1.0000 0.18090  0.33320  0.50280  Biso   1.000  H
  C272     1.0000 0.16150  0.31340  0.60940  Biso   1.000  C
  H272     1.0000 0.18280  0.33180  0.63920  Biso   1.000  H
  N187     1.0000 0.12110  0.28170  0.65180  Biso   1.000  N
  C273     1.0000 0.10780  0.25750  0.58710  Biso   1.000  C
  H273     1.0000 0.08850  0.22870  0.58360  Biso   1.000  H
  N188     1.0000 0.12820  0.28390  0.52860  Biso   1.000  N
  C274     1.0000 0.15420  0.32440  0.55720  Biso   1.000  C
  H274     1.0000 0.17140  0.34830  0.53010  Biso   1.000  H
  C275     1.0000 0.14980  0.32310  0.63330  Biso   1.000  C
  H275     1.0000 0.16370  0.34580  0.66610  Biso   1.000  H
  N189     1.0000 0.14923  0.20507  0.77920  Biso   1.000  N
  C276     1.0000 0.14650  0.18460  0.84490  Biso   1.000  C
  H276     1.0000 0.12480  0.19280  0.88290  Biso   1.000  H
  N190     1.0000 0.04090  0.23670  0.76360  Biso   1.000  N
  C277     1.0000 0.00240  0.26810  0.74120  Biso   1.000  C
  H277     1.0000 0.00560  0.30160  0.72890  Biso   1.000  H
  N191     1.0000 0.95850  0.24050  0.74050  Biso   1.000  N
  C278     1.0000 0.96980  0.19210  0.76240  Biso   1.000  C
  H278     1.0000 0.94720  0.16590  0.76670  Biso   1.000  H
  C279     1.0000 0.02070  0.18980  0.77670  Biso   1.000  C
  H279     1.0000 0.03810  0.16170  0.79230  Biso   1.000  H
  N192     1.0000 0.03910  0.25690  0.39890  Biso   1.000  N
  C280     1.0000 0.99510  0.25970  0.43920  Biso   1.000  C
  H280     1.0000 0.99240  0.25920  0.49010  Biso   1.000  H
  N193     1.0000 0.95560  0.26350  0.38980  Biso   1.000  N
  C281     1.0000 0.97530  0.26300  0.31910  Biso   1.000  C
  H281     1.0000 0.95710  0.26500  0.27560  Biso   1.000  H
  C282     1.0000 0.02680  0.25890  0.32470  Biso   1.000  C
  H282     1.0000 0.04920  0.25770  0.28570  Biso   1.000  H
  N194     1.0000 0.14290  0.20510  0.39010  Biso   1.000  N
  C283     1.0000 0.18430  0.19210  0.43190  Biso   1.000  C
  H283     1.0000 0.19210  0.20420  0.47840  Biso   1.000  H
  N195     1.0000 0.21210  0.15770  0.39200  Biso   1.000  N
  C284     1.0000 0.18790  0.14950  0.32550  Biso   1.000  C
  H284     1.0000 0.19850  0.12810  0.28830  Biso   1.000  H
  C285     1.0000 0.14510  0.17880  0.32430  Biso   1.000  C
  H285     1.0000 0.12210  0.18050  0.28620  Biso   1.000  H
  Zn31     1.0000 0.60989  0.76412  0.92238  Biso   1.000  Zn
  Zn32     1.0000 0.60911  0.76369  0.24412  Biso   1.000  Zn
  N196     1.0000 0.62810  0.81930  0.30470  Biso   1.000  N
  C286     1.0000 0.67050  0.82550  0.33580  Biso   1.000  C
  H286     1.0000 0.69500  0.80090  0.33660  Biso   1.000  H
  N197     1.0000 0.67690  0.87040  0.36710  Biso   1.000  N
  C287     1.0000 0.63570  0.89640  0.34980  Biso   1.000  C
  H287     1.0000 0.62910  0.92950  0.36190  Biso   1.000  H
  C288     1.0000 0.60620  0.86590  0.31220  Biso   1.000  C
  H288     1.0000 0.57510  0.87460  0.29340  Biso   1.000  H
  N198     1.0000 0.62510  0.78020  0.13340  Biso   1.000  N
  C289     1.0000 0.60150  0.76050  0.07190  Biso   1.000  C
  H289     1.0000 0.57560  0.73730  0.07220  Biso   1.000  H
  N199     1.0000 0.62330  0.78150  0.00980  Biso   1.000  N
  C290     1.0000 0.66040  0.81420  0.03300  Biso   1.000  C
  H290     1.0000 0.68090  0.83320  0.00280  Biso   1.000  H
  C291     1.0000 0.66150  0.81340  0.10940  Biso   1.000  C
  H291     1.0000 0.68280  0.83180  0.13920  Biso   1.000  H
  N200     1.0000 0.62110  0.78170  0.15180  Biso   1.000  N
  C292     1.0000 0.60780  0.75750  0.08710  Biso   1.000  C
  H292     1.0000 0.58850  0.72870  0.08360  Biso   1.000  H
  N201     1.0000 0.62820  0.78390  0.02860  Biso   1.000  N
  C293     1.0000 0.65420  0.82440  0.05720  Biso   1.000  C
  H293     1.0000 0.67140  0.84830  0.03010  Biso   1.000  H
  C294     1.0000 0.64980  0.82310  0.13330  Biso   1.000  C
  H294     1.0000 0.66370  0.84580  0.16610  Biso   1.000  H
  N202     1.0000 0.64923  0.70507  0.27920  Biso   1.000  N
  C295     1.0000 0.64650  0.68460  0.34490  Biso   1.000  C
  H295     1.0000 0.62480  0.69280  0.38290  Biso   1.000  H
  N203     1.0000 0.54090  0.73670  0.26360  Biso   1.000  N
  C296     1.0000 0.50240  0.76810  0.24120  Biso   1.000  C
  H296     1.0000 0.50560  0.80160  0.22890  Biso   1.000  H
  N204     1.0000 0.45850  0.74050  0.24050  Biso   1.000  N
  C297     1.0000 0.46980  0.69210  0.26240  Biso   1.000  C
  H297     1.0000 0.44720  0.66590  0.26670  Biso   1.000  H
  C298     1.0000 0.52070  0.68980  0.27670  Biso   1.000  C
  H298     1.0000 0.53810  0.66170  0.29230  Biso   1.000  H
  N205     1.0000 0.53910  0.75690  0.89890  Biso   1.000  N
  C299     1.0000 0.49510  0.75970  0.93920  Biso   1.000  C
  H299     1.0000 0.49240  0.75920  0.99010  Biso   1.000  H
  N206     1.0000 0.45560  0.76350  0.88980  Biso   1.000  N
  C300     1.0000 0.47530  0.76300  0.81910  Biso   1.000  C
  H300     1.0000 0.45710  0.76500  0.77560  Biso   1.000  H
  C301     1.0000 0.52680  0.75890  0.82470  Biso   1.000  C
  H301     1.0000 0.54920  0.75770  0.78570  Biso   1.000  H
  N207     1.0000 0.64290  0.70510  0.89010  Biso   1.000  N
  C302     1.0000 0.68430  0.69210  0.93190  Biso   1.000  C
  H302     1.0000 0.69210  0.70420  0.97840  Biso   1.000  H
  N208     1.0000 0.71210  0.65770  0.89200  Biso   1.000  N
  C303     1.0000 0.68790  0.64950  0.82550  Biso   1.000  C
  H303     1.0000 0.69850  0.62810  0.78830  Biso   1.000  H
  C304     1.0000 0.64510  0.67880  0.82430  Biso   1.000  C
  H304     1.0000 0.62210  0.68050  0.78620  Biso   1.000  H
  C305     1.0000 0.18770  0.18770  0.74110  Biso   1.000  C
  H305     1.0000 0.19990  0.19990  0.69680  Biso   1.000  H
  C306     1.0000 0.68770  0.68770  0.24110  Biso   1.000  C
  H306     1.0000 0.69990  0.69990  0.19680  Biso   1.000  H
  C307     1.0000 0.81230  0.81230  0.74110  Biso   1.000  C
  H307     1.0000 0.80010  0.80010  0.69680  Biso   1.000  H
  C308     1.0000 0.31230  0.31230  0.24110  Biso   1.000  C
  H308     1.0000 0.30010  0.30010  0.19680  Biso   1.000  H
  C309     1.0000 0.81230  0.18770  0.74110  Biso   1.000  C
  H309     1.0000 0.80010  0.19990  0.69680  Biso   1.000  H
  C310     1.0000 0.31230  0.68770  0.24110  Biso   1.000  C
  H310     1.0000 0.30010  0.69990  0.19680  Biso   1.000  H
  C311     1.0000 0.18770  0.81230  0.74110  Biso   1.000  C
  H311     1.0000 0.19990  0.80010  0.69680  Biso   1.000  H
  C312     1.0000 0.68770  0.31230  0.24110  Biso   1.000  C
  H312     1.0000 0.69990  0.30010  0.19680  Biso   1.000  H
