data_image0
_cell_length_a       46.403
_cell_length_b       11.125
_cell_length_c       24.144
_cell_angle_alpha    90
_cell_angle_beta     98.48
_cell_angle_gamma    90

_symmetry_space_group_name_H-M    "P 1"
_symmetry_int_tables_number       1

loop_
  _symmetry_equiv_pos_as_xyz
  'x, y, z'

loop_
  _atom_site_label
  _atom_site_occupancy
  _atom_site_fract_x
  _atom_site_fract_y
  _atom_site_fract_z
  _atom_site_thermal_displace_type
  _atom_site_B_iso_or_equiv
  _atom_site_type_symbol
  Cd1      1.0000 0.98699  0.66034  0.43905  Biso   1.000  Cd
  Cd2      1.0000 0.28189  0.86594  0.42035  Biso   1.000  Cd
  O1       1.0000 0.12927  0.52780  0.26580  Biso   1.000  O
  O2       1.0000 0.89923  0.20760  0.11070  Biso   1.000  O
  O3       1.0000 0.00358  0.45600  0.33530  Biso   1.000  O
  C1       1.0000 0.07761  0.76490  0.57510  Biso   1.000  C
  O4       1.0000 0.87033  0.92960  0.09950  Biso   1.000  O
  O5       1.0000 0.01787  0.83020  0.46300  Biso   1.000  O
  O6       1.0000 0.84644  0.10920  0.23390  Biso   1.000  O
  O7       1.0000 0.02673  0.66480  0.51210  Biso   1.000  O
  O8       1.0000 0.91433  0.00780  0.25830  Biso   1.000  O
  C2       1.0000 0.06177  0.82560  0.52980  Biso   1.000  C
  O9       1.0000 0.23715  0.85470  0.36150  Biso   1.000  O
  C3       1.0000 0.15400  0.58450  0.29580  Biso   1.000  C
  N1       1.0000 0.95895  0.78200  0.37620  Biso   1.000  N
  C4       1.0000 0.20362  0.69300  0.34870  Biso   1.000  C
  C5       1.0000 0.90917  0.31620  0.03180  Biso   1.000  C
  H1       1.0000 0.88970  0.33890  0.02450  Biso   1.000  H
  C6       1.0000 0.19510  0.58440  0.36450  Biso   1.000  C
  H2       1.0000 0.20670  0.54500  0.39370  Biso   1.000  H
  C7       1.0000 0.10384  0.52830  0.29040  Biso   1.000  C
  C8       1.0000 0.05162  0.52280  0.33030  Biso   1.000  C
  C9       1.0000 0.10143  0.58870  0.33790  Biso   1.000  C
  H3       1.0000 0.11720  0.63010  0.35710  Biso   1.000  H
  C10      1.0000 0.05542  0.46140  0.28230  Biso   1.000  C
  H4       1.0000 0.04010  0.41670  0.26350  Biso   1.000  H
  N2       1.0000 0.80274  0.28330  0.34650  Biso   1.000  N
  C11      1.0000 0.93983  0.73820  0.33390  Biso   1.000  C
  H5       1.0000 0.93720  0.65540  0.33230  Biso   1.000  H
  C12      1.0000 0.06948  0.93760  0.51220  Biso   1.000  C
  N3       1.0000 0.95653  0.32250  0.00620  Biso   1.000  N
  O10      1.0000 0.24676  0.69650  0.41580  Biso   1.000  O
  C13      1.0000 0.07508  0.58760  0.35710  Biso   1.000  C
  H6       1.0000 0.07290  0.63150  0.38900  Biso   1.000  H
  C14      1.0000 0.86898  0.16500  0.20920  Biso   1.000  C
  H7       1.0000 0.88340  0.19920  0.23800  Biso   1.000  H
  H8       1.0000 0.86100  0.22910  0.18430  Biso   1.000  H
  C15      1.0000 0.94711  0.97830  0.33880  Biso   1.000  C
  H9       1.0000 0.94990  0.06090  0.34190  Biso   1.000  H
  C16      1.0000 0.85146  0.87130  0.06250  Biso   1.000  C
  O11      1.0000 0.02108  0.60780  0.38880  Biso   1.000  O
  C17      1.0000 0.92818  0.93020  0.29560  Biso   1.000  C
  C18      1.0000 0.16170  0.69280  0.27690  Biso   1.000  C
  H10      1.0000 0.15080  0.73000  0.24630  Biso   1.000  H
  C19      1.0000 0.92399  0.80560  0.29310  Biso   1.000  C
  H11      1.0000 0.91100  0.77030  0.26480  Biso   1.000  H
  C20      1.0000 0.90927  0.11830  0.15210  Biso   1.000  C
  H12      1.0000 0.92290  0.15410  0.18180  Biso   1.000  H
  H13      1.0000 0.91920  0.05430  0.13520  Biso   1.000  H
  C21      1.0000 0.91892  0.24550  0.07870  Biso   1.000  C
  C22      1.0000 0.88307  0.06750  0.17600  Biso   1.000  C
  C23      1.0000 0.94817  0.21800  0.08930  Biso   1.000  C
  H14      1.0000 0.95580  0.17260  0.12030  Biso   1.000  H
  C24      1.0000 0.16960  0.52830  0.33910  Biso   1.000  C
  H15      1.0000 0.16370  0.45470  0.35180  Biso   1.000  H
  C25      1.0000 0.08114  0.46500  0.26200  Biso   1.000  C
  H16      1.0000 0.08330  0.42490  0.22900  Biso   1.000  H
  C26      1.0000 0.86151  0.77870  0.03440  Biso   1.000  C
  H17      1.0000 0.88100  0.75690  0.04180  Biso   1.000  H
  C27      1.0000 0.83274  0.16960  0.26920  Biso   1.000  C
  C28      1.0000 0.85893  0.02390  0.12950  Biso   1.000  C
  H18      1.0000 0.84230  0.99520  0.14580  Biso   1.000  H
  H19      1.0000 0.85250  0.08970  0.10430  Biso   1.000  H
  C29      1.0000 0.82180  0.34020  0.32200  Biso   1.000  C
  H20      1.0000 0.82550  0.42020  0.33170  Biso   1.000  H
  C30      1.0000 0.96585  0.26000  0.05230  Biso   1.000  C
  H21      1.0000 0.98570  0.24350  0.06020  Biso   1.000  H
  C31      1.0000 0.18670  0.74570  0.30540  Biso   1.000  C
  H22      1.0000 0.19190  0.82150  0.29410  Biso   1.000  H
  C32      1.0000 0.96194  0.90040  0.37770  Biso   1.000  C
  H23      1.0000 0.97490  0.93340  0.40680  Biso   1.000  H
  C33      1.0000 0.89397  0.96320  0.21290  Biso   1.000  C
  H24      1.0000 0.87780  0.92430  0.22700  Biso   1.000  H
  H25      1.0000 0.90330  0.90460  0.19160  Biso   1.000  H
  C34      1.0000 0.03319  0.77090  0.49910  Biso   1.000  C
  N4       1.0000 0.81447  0.74000  0.98380  Biso   1.000  N
  C35      1.0000 0.84298  0.71710  0.99510  Biso   1.000  C
  H26      1.0000 0.85060  0.65620  0.97520  Biso   1.000  H
  C36      1.0000 0.92757  0.35150  0.99750  Biso   1.000  C
  H27      1.0000 0.92040  0.39770  0.96640  Biso   1.000  H
  C37      1.0000 0.02284  0.52740  0.35320  Biso   1.000  C
  C38      1.0000 0.81220  0.10920  0.29390  Biso   1.000  C
  H28      1.0000 0.80810  0.02890  0.28550  Biso   1.000  H
  C39      1.0000 0.83716  0.29000  0.28180  Biso   1.000  C
  H29      1.0000 0.84990  0.33610  0.26420  Biso   1.000  H
  C40      1.0000 0.82212  0.89810  0.05110  Biso   1.000  C
  H30      1.0000 0.81420  0.96030  0.06970  Biso   1.000  H
  C41      1.0000 0.79780  0.16970  0.33120  Biso   1.000  C
  H31      1.0000 0.78370  0.12800  0.34690  Biso   1.000  H
  C42      1.0000 0.80503  0.83100  0.01180  Biso   1.000  C
  H32      1.0000 0.78540  0.85050  0.00410  Biso   1.000  H
  C43      1.0000 0.23061  0.75090  0.37730  Biso   1.000  C
  C44      1.0000 0.09090  0.00300  0.54710  Biso   1.000  C
  H33      1.0000 0.09490  0.08320  0.53980  Biso   1.000  H
  C45      1.0000 0.10540  0.94400  0.59200  Biso   1.000  C
  C46      1.0000 0.09880  0.83240  0.60890  Biso   1.000  C
  H34      1.0000 0.10820  0.80100  0.64240  Biso   1.000  H
  C47      1.0000 0.19290  0.37620  0.55830  Biso   1.000  C
  C48      1.0000 0.17560  0.27990  0.57420  Biso   1.000  C
  C49      1.0000 0.15800  0.30060  0.61480  Biso   1.000  C
  H35      1.0000 0.15720  0.37650  0.63070  Biso   1.000  H
  C50      1.0000 0.14140  0.20730  0.63140  Biso   1.000  C
  H36      1.0000 0.12920  0.22030  0.65810  Biso   1.000  H
  C51      1.0000 0.14320  0.09530  0.60810  Biso   1.000  C
  C52      1.0000 0.16020  0.07430  0.56700  Biso   1.000  C
  H37      1.0000 0.16090  0.99840  0.55100  Biso   1.000  H
  C53      1.0000 0.17640  0.16850  0.54970  Biso   1.000  C
  H38      1.0000 0.18780  0.15630  0.52160  Biso   1.000  H
  O12      1.0000 0.12800  0.99980  0.62740  Biso   1.000  O
  O13      1.0000 0.19440  0.47790  0.58860  Biso   1.000  O
  O14      1.0000 0.20770  0.36610  0.51320  Biso   1.000  O
  C54      1.0000 0.09910  0.97200  0.53510  Biso   1.000  C
  H39      1.0000 0.10720  0.03970  0.52060  Biso   1.000  H
  C55      1.0000 0.11500  0.90900  0.57700  Biso   1.000  C
  C56      1.0000 0.10610  0.80200  0.59280  Biso   1.000  C
  H40      1.0000 0.11900  0.75200  0.61540  Biso   1.000  H
  C57      1.0000 0.18650  0.40020  0.59020  Biso   1.000  C
  C58      1.0000 0.17540  0.28360  0.59420  Biso   1.000  C
  C59      1.0000 0.14760  0.26860  0.60640  Biso   1.000  C
  H41      1.0000 0.13650  0.33510  0.61350  Biso   1.000  H
  C60      1.0000 0.13610  0.15460  0.60800  Biso   1.000  C
  H42      1.0000 0.11720  0.14390  0.61570  Biso   1.000  H
  C61      1.0000 0.15280  0.05620  0.59800  Biso   1.000  C
  C62      1.0000 0.18050  0.07040  0.58400  Biso   1.000  C
  H43      1.0000 0.19100  0.00390  0.57490  Biso   1.000  H
  C63      1.0000 0.19220  0.18360  0.58380  Biso   1.000  C
  H44      1.0000 0.21120  0.19390  0.57680  Biso   1.000  H
  O15      1.0000 0.14230  0.94050  0.60390  Biso   1.000  O
  O16      1.0000 0.21540  0.42400  0.59560  Biso   1.000  O
  O17      1.0000 0.16970  0.49940  0.57820  Biso   1.000  O
  Cd3      1.0000 0.48699  0.16034  0.43905  Biso   1.000  Cd
  Cd4      1.0000 0.78189  0.36594  0.42035  Biso   1.000  Cd
  O18      1.0000 0.62927  0.02780  0.26580  Biso   1.000  O
  O19      1.0000 0.39923  0.70760  0.11070  Biso   1.000  O
  O20      1.0000 0.50358  0.95600  0.33530  Biso   1.000  O
  C64      1.0000 0.57761  0.26490  0.57510  Biso   1.000  C
  O21      1.0000 0.37033  0.42960  0.09950  Biso   1.000  O
  O22      1.0000 0.51787  0.33020  0.46300  Biso   1.000  O
  O23      1.0000 0.34644  0.60920  0.23390  Biso   1.000  O
  O24      1.0000 0.52673  0.16480  0.51210  Biso   1.000  O
  O25      1.0000 0.41433  0.50780  0.25830  Biso   1.000  O
  C65      1.0000 0.56177  0.32560  0.52980  Biso   1.000  C
  O26      1.0000 0.73715  0.35470  0.36150  Biso   1.000  O
  C66      1.0000 0.65400  0.08450  0.29580  Biso   1.000  C
  N5       1.0000 0.45895  0.28200  0.37620  Biso   1.000  N
  C67      1.0000 0.70362  0.19300  0.34870  Biso   1.000  C
  C68      1.0000 0.40917  0.81620  0.03180  Biso   1.000  C
  H45      1.0000 0.38970  0.83890  0.02450  Biso   1.000  H
  C69      1.0000 0.69510  0.08440  0.36450  Biso   1.000  C
  H46      1.0000 0.70670  0.04500  0.39370  Biso   1.000  H
  C70      1.0000 0.60384  0.02830  0.29040  Biso   1.000  C
  C71      1.0000 0.55162  0.02280  0.33030  Biso   1.000  C
  C72      1.0000 0.60143  0.08870  0.33790  Biso   1.000  C
  H47      1.0000 0.61720  0.13010  0.35710  Biso   1.000  H
  C73      1.0000 0.55542  0.96140  0.28230  Biso   1.000  C
  H48      1.0000 0.54010  0.91670  0.26350  Biso   1.000  H
  N6       1.0000 0.30274  0.78330  0.34650  Biso   1.000  N
  C74      1.0000 0.43983  0.23820  0.33390  Biso   1.000  C
  H49      1.0000 0.43720  0.15540  0.33230  Biso   1.000  H
  C75      1.0000 0.56948  0.43760  0.51220  Biso   1.000  C
  N7       1.0000 0.45653  0.82250  0.00620  Biso   1.000  N
  O27      1.0000 0.74676  0.19650  0.41580  Biso   1.000  O
  C76      1.0000 0.57508  0.08760  0.35710  Biso   1.000  C
  H50      1.0000 0.57290  0.13150  0.38900  Biso   1.000  H
  C77      1.0000 0.36898  0.66500  0.20920  Biso   1.000  C
  H51      1.0000 0.38340  0.69920  0.23800  Biso   1.000  H
  H52      1.0000 0.36100  0.72910  0.18430  Biso   1.000  H
  C78      1.0000 0.44711  0.47830  0.33880  Biso   1.000  C
  H53      1.0000 0.44990  0.56090  0.34190  Biso   1.000  H
  C79      1.0000 0.35146  0.37130  0.06250  Biso   1.000  C
  O28      1.0000 0.52108  0.10780  0.38880  Biso   1.000  O
  C80      1.0000 0.42818  0.43020  0.29560  Biso   1.000  C
  C81      1.0000 0.66170  0.19280  0.27690  Biso   1.000  C
  H54      1.0000 0.65080  0.23000  0.24630  Biso   1.000  H
  C82      1.0000 0.42399  0.30560  0.29310  Biso   1.000  C
  H55      1.0000 0.41100  0.27030  0.26480  Biso   1.000  H
  C83      1.0000 0.40927  0.61830  0.15210  Biso   1.000  C
  H56      1.0000 0.42290  0.65410  0.18180  Biso   1.000  H
  H57      1.0000 0.41920  0.55430  0.13520  Biso   1.000  H
  C84      1.0000 0.41892  0.74550  0.07870  Biso   1.000  C
  C85      1.0000 0.38307  0.56750  0.17600  Biso   1.000  C
  C86      1.0000 0.44817  0.71800  0.08930  Biso   1.000  C
  H58      1.0000 0.45580  0.67260  0.12030  Biso   1.000  H
  C87      1.0000 0.66960  0.02830  0.33910  Biso   1.000  C
  H59      1.0000 0.66370  0.95470  0.35180  Biso   1.000  H
  C88      1.0000 0.58114  0.96500  0.26200  Biso   1.000  C
  H60      1.0000 0.58330  0.92490  0.22900  Biso   1.000  H
  C89      1.0000 0.36151  0.27870  0.03440  Biso   1.000  C
  H61      1.0000 0.38100  0.25690  0.04180  Biso   1.000  H
  C90      1.0000 0.33274  0.66960  0.26920  Biso   1.000  C
  C91      1.0000 0.35893  0.52390  0.12950  Biso   1.000  C
  H62      1.0000 0.34230  0.49520  0.14580  Biso   1.000  H
  H63      1.0000 0.35250  0.58970  0.10430  Biso   1.000  H
  C92      1.0000 0.32180  0.84020  0.32200  Biso   1.000  C
  H64      1.0000 0.32550  0.92020  0.33170  Biso   1.000  H
  C93      1.0000 0.46585  0.76000  0.05230  Biso   1.000  C
  H65      1.0000 0.48570  0.74350  0.06020  Biso   1.000  H
  C94      1.0000 0.68670  0.24570  0.30540  Biso   1.000  C
  H66      1.0000 0.69190  0.32150  0.29410  Biso   1.000  H
  C95      1.0000 0.46194  0.40040  0.37770  Biso   1.000  C
  H67      1.0000 0.47490  0.43340  0.40680  Biso   1.000  H
  C96      1.0000 0.39397  0.46320  0.21290  Biso   1.000  C
  H68      1.0000 0.37780  0.42430  0.22700  Biso   1.000  H
  H69      1.0000 0.40330  0.40460  0.19160  Biso   1.000  H
  C97      1.0000 0.53319  0.27090  0.49910  Biso   1.000  C
  N8       1.0000 0.31447  0.24000  0.98380  Biso   1.000  N
  C98      1.0000 0.34298  0.21710  0.99510  Biso   1.000  C
  H70      1.0000 0.35060  0.15620  0.97520  Biso   1.000  H
  C99      1.0000 0.42757  0.85150  0.99750  Biso   1.000  C
  H71      1.0000 0.42040  0.89770  0.96640  Biso   1.000  H
  C100     1.0000 0.52284  0.02740  0.35320  Biso   1.000  C
  C101     1.0000 0.31220  0.60920  0.29390  Biso   1.000  C
  H72      1.0000 0.30810  0.52890  0.28550  Biso   1.000  H
  C102     1.0000 0.33716  0.79000  0.28180  Biso   1.000  C
  H73      1.0000 0.34990  0.83610  0.26420  Biso   1.000  H
  C103     1.0000 0.32212  0.39810  0.05110  Biso   1.000  C
  H74      1.0000 0.31420  0.46030  0.06970  Biso   1.000  H
  C104     1.0000 0.29780  0.66970  0.33120  Biso   1.000  C
  H75      1.0000 0.28370  0.62800  0.34690  Biso   1.000  H
  C105     1.0000 0.30503  0.33100  0.01180  Biso   1.000  C
  H76      1.0000 0.28540  0.35050  0.00410  Biso   1.000  H
  C106     1.0000 0.73061  0.25090  0.37730  Biso   1.000  C
  C107     1.0000 0.59090  0.50300  0.54710  Biso   1.000  C
  H77      1.0000 0.59490  0.58320  0.53980  Biso   1.000  H
  C108     1.0000 0.60540  0.44400  0.59200  Biso   1.000  C
  C109     1.0000 0.59880  0.33240  0.60890  Biso   1.000  C
  H78      1.0000 0.60820  0.30100  0.64240  Biso   1.000  H
  C110     1.0000 0.69290  0.87620  0.55830  Biso   1.000  C
  C111     1.0000 0.67560  0.77990  0.57420  Biso   1.000  C
  C112     1.0000 0.65800  0.80060  0.61480  Biso   1.000  C
  H79      1.0000 0.65720  0.87650  0.63070  Biso   1.000  H
  C113     1.0000 0.64140  0.70730  0.63140  Biso   1.000  C
  H80      1.0000 0.62920  0.72030  0.65810  Biso   1.000  H
  C114     1.0000 0.64320  0.59530  0.60810  Biso   1.000  C
  C115     1.0000 0.66020  0.57430  0.56700  Biso   1.000  C
  H81      1.0000 0.66090  0.49840  0.55100  Biso   1.000  H
  C116     1.0000 0.67640  0.66850  0.54970  Biso   1.000  C
  H82      1.0000 0.68780  0.65630  0.52160  Biso   1.000  H
  O29      1.0000 0.62800  0.49980  0.62740  Biso   1.000  O
  O30      1.0000 0.69440  0.97790  0.58860  Biso   1.000  O
  O31      1.0000 0.70770  0.86610  0.51320  Biso   1.000  O
  C117     1.0000 0.59910  0.47200  0.53510  Biso   1.000  C
  H83      1.0000 0.60720  0.53970  0.52060  Biso   1.000  H
  C118     1.0000 0.61500  0.40900  0.57700  Biso   1.000  C
  C119     1.0000 0.60610  0.30200  0.59280  Biso   1.000  C
  H84      1.0000 0.61900  0.25200  0.61540  Biso   1.000  H
  C120     1.0000 0.68650  0.90020  0.59020  Biso   1.000  C
  C121     1.0000 0.67540  0.78360  0.59420  Biso   1.000  C
  C122     1.0000 0.64760  0.76860  0.60640  Biso   1.000  C
  H85      1.0000 0.63650  0.83510  0.61350  Biso   1.000  H
  C123     1.0000 0.63610  0.65460  0.60800  Biso   1.000  C
  H86      1.0000 0.61720  0.64390  0.61570  Biso   1.000  H
  C124     1.0000 0.65280  0.55620  0.59800  Biso   1.000  C
  C125     1.0000 0.68050  0.57040  0.58400  Biso   1.000  C
  H87      1.0000 0.69100  0.50390  0.57490  Biso   1.000  H
  C126     1.0000 0.69220  0.68360  0.58380  Biso   1.000  C
  H88      1.0000 0.71120  0.69390  0.57680  Biso   1.000  H
  O32      1.0000 0.64230  0.44050  0.60390  Biso   1.000  O
  O33      1.0000 0.71540  0.92400  0.59560  Biso   1.000  O
  O34      1.0000 0.66970  0.99940  0.57820  Biso   1.000  O
  Cd5      1.0000 0.01301  0.66034  0.06095  Biso   1.000  Cd
  Cd6      1.0000 0.71811  0.86594  0.07965  Biso   1.000  Cd
  O35      1.0000 0.87073  0.52780  0.23420  Biso   1.000  O
  O36      1.0000 0.10077  0.20760  0.38930  Biso   1.000  O
  O37      1.0000 0.99642  0.45600  0.16470  Biso   1.000  O
  C127     1.0000 0.92239  0.76490  0.92490  Biso   1.000  C
  O38      1.0000 0.12967  0.92960  0.40050  Biso   1.000  O
  O39      1.0000 0.98213  0.83020  0.03700  Biso   1.000  O
  O40      1.0000 0.15356  0.10920  0.26610  Biso   1.000  O
  O41      1.0000 0.97327  0.66480  0.98790  Biso   1.000  O
  O42      1.0000 0.08567  0.00780  0.24170  Biso   1.000  O
  C128     1.0000 0.93823  0.82560  0.97020  Biso   1.000  C
  O43      1.0000 0.76285  0.85470  0.13850  Biso   1.000  O
  C129     1.0000 0.84600  0.58450  0.20420  Biso   1.000  C
  N9       1.0000 0.04105  0.78200  0.12380  Biso   1.000  N
  C130     1.0000 0.79638  0.69300  0.15130  Biso   1.000  C
  C131     1.0000 0.09083  0.31620  0.46820  Biso   1.000  C
  H89      1.0000 0.11030  0.33890  0.47550  Biso   1.000  H
  C132     1.0000 0.80490  0.58440  0.13550  Biso   1.000  C
  H90      1.0000 0.79330  0.54500  0.10630  Biso   1.000  H
  C133     1.0000 0.89616  0.52830  0.20960  Biso   1.000  C
  C134     1.0000 0.94838  0.52280  0.16970  Biso   1.000  C
  C135     1.0000 0.89857  0.58870  0.16210  Biso   1.000  C
  H91      1.0000 0.88280  0.63010  0.14290  Biso   1.000  H
  C136     1.0000 0.94458  0.46140  0.21770  Biso   1.000  C
  H92      1.0000 0.95990  0.41670  0.23650  Biso   1.000  H
  N10      1.0000 0.19726  0.28330  0.15350  Biso   1.000  N
  C137     1.0000 0.06017  0.73820  0.16610  Biso   1.000  C
  H93      1.0000 0.06280  0.65540  0.16770  Biso   1.000  H
  C138     1.0000 0.93052  0.93760  0.98780  Biso   1.000  C
  N11      1.0000 0.04347  0.32250  0.49380  Biso   1.000  N
  O44      1.0000 0.75324  0.69650  0.08420  Biso   1.000  O
  C139     1.0000 0.92492  0.58760  0.14290  Biso   1.000  C
  H94      1.0000 0.92710  0.63150  0.11100  Biso   1.000  H
  C140     1.0000 0.13102  0.16500  0.29080  Biso   1.000  C
  H95      1.0000 0.11660  0.19920  0.26200  Biso   1.000  H
  H96      1.0000 0.13900  0.22910  0.31570  Biso   1.000  H
  C141     1.0000 0.05289  0.97830  0.16120  Biso   1.000  C
  H97      1.0000 0.05010  0.06090  0.15810  Biso   1.000  H
  C142     1.0000 0.14854  0.87130  0.43750  Biso   1.000  C
  O45      1.0000 0.97892  0.60780  0.11120  Biso   1.000  O
  C143     1.0000 0.07182  0.93020  0.20440  Biso   1.000  C
  C144     1.0000 0.83830  0.69280  0.22310  Biso   1.000  C
  H98      1.0000 0.84920  0.73000  0.25370  Biso   1.000  H
  C145     1.0000 0.07601  0.80560  0.20690  Biso   1.000  C
  H99      1.0000 0.08900  0.77030  0.23520  Biso   1.000  H
  C146     1.0000 0.09073  0.11830  0.34790  Biso   1.000  C
  H100     1.0000 0.07710  0.15410  0.31820  Biso   1.000  H
  H101     1.0000 0.08080  0.05430  0.36480  Biso   1.000  H
  C147     1.0000 0.08108  0.24550  0.42130  Biso   1.000  C
  C148     1.0000 0.11693  0.06750  0.32400  Biso   1.000  C
  C149     1.0000 0.05183  0.21800  0.41070  Biso   1.000  C
  H102     1.0000 0.04420  0.17260  0.37970  Biso   1.000  H
  C150     1.0000 0.83040  0.52830  0.16090  Biso   1.000  C
  H103     1.0000 0.83630  0.45470  0.14820  Biso   1.000  H
  C151     1.0000 0.91886  0.46500  0.23800  Biso   1.000  C
  H104     1.0000 0.91670  0.42490  0.27100  Biso   1.000  H
  C152     1.0000 0.13849  0.77870  0.46560  Biso   1.000  C
  H105     1.0000 0.11900  0.75690  0.45820  Biso   1.000  H
  C153     1.0000 0.16726  0.16960  0.23080  Biso   1.000  C
  C154     1.0000 0.14107  0.02390  0.37050  Biso   1.000  C
  H106     1.0000 0.15770  0.99520  0.35420  Biso   1.000  H
  H107     1.0000 0.14750  0.08970  0.39570  Biso   1.000  H
  C155     1.0000 0.17820  0.34020  0.17800  Biso   1.000  C
  H108     1.0000 0.17450  0.42020  0.16830  Biso   1.000  H
  C156     1.0000 0.03415  0.26000  0.44770  Biso   1.000  C
  H109     1.0000 0.01430  0.24350  0.43980  Biso   1.000  H
  C157     1.0000 0.81330  0.74570  0.19460  Biso   1.000  C
  H110     1.0000 0.80810  0.82150  0.20590  Biso   1.000  H
  C158     1.0000 0.03806  0.90040  0.12230  Biso   1.000  C
  H111     1.0000 0.02510  0.93340  0.09320  Biso   1.000  H
  C159     1.0000 0.10603  0.96320  0.28710  Biso   1.000  C
  H112     1.0000 0.12220  0.92430  0.27300  Biso   1.000  H
  H113     1.0000 0.09670  0.90460  0.30840  Biso   1.000  H
  C160     1.0000 0.96681  0.77090  0.00090  Biso   1.000  C
  N12      1.0000 0.18553  0.74000  0.51620  Biso   1.000  N
  C161     1.0000 0.15702  0.71710  0.50490  Biso   1.000  C
  H114     1.0000 0.14940  0.65620  0.52480  Biso   1.000  H
  C162     1.0000 0.07243  0.35150  0.50250  Biso   1.000  C
  H115     1.0000 0.07960  0.39770  0.53360  Biso   1.000  H
  C163     1.0000 0.97716  0.52740  0.14680  Biso   1.000  C
  C164     1.0000 0.18780  0.10920  0.20610  Biso   1.000  C
  H116     1.0000 0.19190  0.02890  0.21450  Biso   1.000  H
  C165     1.0000 0.16284  0.29000  0.21820  Biso   1.000  C
  H117     1.0000 0.15010  0.33610  0.23580  Biso   1.000  H
  C166     1.0000 0.17788  0.89810  0.44890  Biso   1.000  C
  H118     1.0000 0.18580  0.96030  0.43030  Biso   1.000  H
  C167     1.0000 0.20220  0.16970  0.16880  Biso   1.000  C
  H119     1.0000 0.21630  0.12800  0.15310  Biso   1.000  H
  C168     1.0000 0.19497  0.83100  0.48820  Biso   1.000  C
  H120     1.0000 0.21460  0.85050  0.49590  Biso   1.000  H
  C169     1.0000 0.76939  0.75090  0.12270  Biso   1.000  C
  C170     1.0000 0.90910  0.00300  0.95290  Biso   1.000  C
  H121     1.0000 0.90510  0.08320  0.96020  Biso   1.000  H
  C171     1.0000 0.89460  0.94400  0.90800  Biso   1.000  C
  C172     1.0000 0.90120  0.83240  0.89110  Biso   1.000  C
  H122     1.0000 0.89180  0.80100  0.85760  Biso   1.000  H
  C173     1.0000 0.80710  0.37620  0.94170  Biso   1.000  C
  C174     1.0000 0.82440  0.27990  0.92580  Biso   1.000  C
  C175     1.0000 0.84200  0.30060  0.88520  Biso   1.000  C
  H123     1.0000 0.84280  0.37650  0.86930  Biso   1.000  H
  C176     1.0000 0.85860  0.20730  0.86860  Biso   1.000  C
  H124     1.0000 0.87080  0.22030  0.84190  Biso   1.000  H
  C177     1.0000 0.85680  0.09530  0.89190  Biso   1.000  C
  C178     1.0000 0.83980  0.07430  0.93300  Biso   1.000  C
  H125     1.0000 0.83910  0.99840  0.94900  Biso   1.000  H
  C179     1.0000 0.82360  0.16850  0.95030  Biso   1.000  C
  H126     1.0000 0.81220  0.15630  0.97840  Biso   1.000  H
  O46      1.0000 0.87200  0.99980  0.87260  Biso   1.000  O
  O47      1.0000 0.80560  0.47790  0.91140  Biso   1.000  O
  O48      1.0000 0.79230  0.36610  0.98680  Biso   1.000  O
  C180     1.0000 0.90090  0.97200  0.96490  Biso   1.000  C
  H127     1.0000 0.89280  0.03970  0.97940  Biso   1.000  H
  C181     1.0000 0.88500  0.90900  0.92300  Biso   1.000  C
  C182     1.0000 0.89390  0.80200  0.90720  Biso   1.000  C
  H128     1.0000 0.88100  0.75200  0.88460  Biso   1.000  H
  C183     1.0000 0.81350  0.40020  0.90980  Biso   1.000  C
  C184     1.0000 0.82460  0.28360  0.90580  Biso   1.000  C
  C185     1.0000 0.85240  0.26860  0.89360  Biso   1.000  C
  H129     1.0000 0.86350  0.33510  0.88650  Biso   1.000  H
  C186     1.0000 0.86390  0.15460  0.89200  Biso   1.000  C
  H130     1.0000 0.88280  0.14390  0.88430  Biso   1.000  H
  C187     1.0000 0.84720  0.05620  0.90200  Biso   1.000  C
  C188     1.0000 0.81950  0.07040  0.91600  Biso   1.000  C
  H131     1.0000 0.80900  0.00390  0.92510  Biso   1.000  H
  C189     1.0000 0.80780  0.18360  0.91620  Biso   1.000  C
  H132     1.0000 0.78880  0.19390  0.92320  Biso   1.000  H
  O49      1.0000 0.85770  0.94050  0.89610  Biso   1.000  O
  O50      1.0000 0.78460  0.42400  0.90440  Biso   1.000  O
  O51      1.0000 0.83030  0.49940  0.92180  Biso   1.000  O
  Cd7      1.0000 0.51301  0.16034  0.06095  Biso   1.000  Cd
  Cd8      1.0000 0.21811  0.36594  0.07965  Biso   1.000  Cd
  O52      1.0000 0.37073  0.02780  0.23420  Biso   1.000  O
  O53      1.0000 0.60077  0.70760  0.38930  Biso   1.000  O
  O54      1.0000 0.49642  0.95600  0.16470  Biso   1.000  O
  C190     1.0000 0.42239  0.26490  0.92490  Biso   1.000  C
  O55      1.0000 0.62967  0.42960  0.40050  Biso   1.000  O
  O56      1.0000 0.48213  0.33020  0.03700  Biso   1.000  O
  O57      1.0000 0.65356  0.60920  0.26610  Biso   1.000  O
  O58      1.0000 0.47327  0.16480  0.98790  Biso   1.000  O
  O59      1.0000 0.58567  0.50780  0.24170  Biso   1.000  O
  C191     1.0000 0.43823  0.32560  0.97020  Biso   1.000  C
  O60      1.0000 0.26285  0.35470  0.13850  Biso   1.000  O
  C192     1.0000 0.34600  0.08450  0.20420  Biso   1.000  C
  N13      1.0000 0.54105  0.28200  0.12380  Biso   1.000  N
  C193     1.0000 0.29638  0.19300  0.15130  Biso   1.000  C
  C194     1.0000 0.59083  0.81620  0.46820  Biso   1.000  C
  H133     1.0000 0.61030  0.83890  0.47550  Biso   1.000  H
  C195     1.0000 0.30490  0.08440  0.13550  Biso   1.000  C
  H134     1.0000 0.29330  0.04500  0.10630  Biso   1.000  H
  C196     1.0000 0.39616  0.02830  0.20960  Biso   1.000  C
  C197     1.0000 0.44838  0.02280  0.16970  Biso   1.000  C
  C198     1.0000 0.39857  0.08870  0.16210  Biso   1.000  C
  H135     1.0000 0.38280  0.13010  0.14290  Biso   1.000  H
  C199     1.0000 0.44458  0.96140  0.21770  Biso   1.000  C
  H136     1.0000 0.45990  0.91670  0.23650  Biso   1.000  H
  N14      1.0000 0.69726  0.78330  0.15350  Biso   1.000  N
  C200     1.0000 0.56017  0.23820  0.16610  Biso   1.000  C
  H137     1.0000 0.56280  0.15540  0.16770  Biso   1.000  H
  C201     1.0000 0.43052  0.43760  0.98780  Biso   1.000  C
  N15      1.0000 0.54347  0.82250  0.49380  Biso   1.000  N
  O61      1.0000 0.25324  0.19650  0.08420  Biso   1.000  O
  C202     1.0000 0.42492  0.08760  0.14290  Biso   1.000  C
  H138     1.0000 0.42710  0.13150  0.11100  Biso   1.000  H
  C203     1.0000 0.63102  0.66500  0.29080  Biso   1.000  C
  H139     1.0000 0.61660  0.69920  0.26200  Biso   1.000  H
  H140     1.0000 0.63900  0.72910  0.31570  Biso   1.000  H
  C204     1.0000 0.55289  0.47830  0.16120  Biso   1.000  C
  H141     1.0000 0.55010  0.56090  0.15810  Biso   1.000  H
  C205     1.0000 0.64854  0.37130  0.43750  Biso   1.000  C
  O62      1.0000 0.47892  0.10780  0.11120  Biso   1.000  O
  C206     1.0000 0.57182  0.43020  0.20440  Biso   1.000  C
  C207     1.0000 0.33830  0.19280  0.22310  Biso   1.000  C
  H142     1.0000 0.34920  0.23000  0.25370  Biso   1.000  H
  C208     1.0000 0.57601  0.30560  0.20690  Biso   1.000  C
  H143     1.0000 0.58900  0.27030  0.23520  Biso   1.000  H
  C209     1.0000 0.59073  0.61830  0.34790  Biso   1.000  C
  H144     1.0000 0.57710  0.65410  0.31820  Biso   1.000  H
  H145     1.0000 0.58080  0.55430  0.36480  Biso   1.000  H
  C210     1.0000 0.58108  0.74550  0.42130  Biso   1.000  C
  C211     1.0000 0.61693  0.56750  0.32400  Biso   1.000  C
  C212     1.0000 0.55183  0.71800  0.41070  Biso   1.000  C
  H146     1.0000 0.54420  0.67260  0.37970  Biso   1.000  H
  C213     1.0000 0.33040  0.02830  0.16090  Biso   1.000  C
  H147     1.0000 0.33630  0.95470  0.14820  Biso   1.000  H
  C214     1.0000 0.41886  0.96500  0.23800  Biso   1.000  C
  H148     1.0000 0.41670  0.92490  0.27100  Biso   1.000  H
  C215     1.0000 0.63849  0.27870  0.46560  Biso   1.000  C
  H149     1.0000 0.61900  0.25690  0.45820  Biso   1.000  H
  C216     1.0000 0.66726  0.66960  0.23080  Biso   1.000  C
  C217     1.0000 0.64107  0.52390  0.37050  Biso   1.000  C
  H150     1.0000 0.65770  0.49520  0.35420  Biso   1.000  H
  H151     1.0000 0.64750  0.58970  0.39570  Biso   1.000  H
  C218     1.0000 0.67820  0.84020  0.17800  Biso   1.000  C
  H152     1.0000 0.67450  0.92020  0.16830  Biso   1.000  H
  C219     1.0000 0.53415  0.76000  0.44770  Biso   1.000  C
  H153     1.0000 0.51430  0.74350  0.43980  Biso   1.000  H
  C220     1.0000 0.31330  0.24570  0.19460  Biso   1.000  C
  H154     1.0000 0.30810  0.32150  0.20590  Biso   1.000  H
  C221     1.0000 0.53806  0.40040  0.12230  Biso   1.000  C
  H155     1.0000 0.52510  0.43340  0.09320  Biso   1.000  H
  C222     1.0000 0.60603  0.46320  0.28710  Biso   1.000  C
  H156     1.0000 0.62220  0.42430  0.27300  Biso   1.000  H
  H157     1.0000 0.59670  0.40460  0.30840  Biso   1.000  H
  C223     1.0000 0.46681  0.27090  0.00090  Biso   1.000  C
  N16      1.0000 0.68553  0.24000  0.51620  Biso   1.000  N
  C224     1.0000 0.65702  0.21710  0.50490  Biso   1.000  C
  H158     1.0000 0.64940  0.15620  0.52480  Biso   1.000  H
  C225     1.0000 0.57243  0.85150  0.50250  Biso   1.000  C
  H159     1.0000 0.57960  0.89770  0.53360  Biso   1.000  H
  C226     1.0000 0.47716  0.02740  0.14680  Biso   1.000  C
  C227     1.0000 0.68780  0.60920  0.20610  Biso   1.000  C
  H160     1.0000 0.69190  0.52890  0.21450  Biso   1.000  H
  C228     1.0000 0.66284  0.79000  0.21820  Biso   1.000  C
  H161     1.0000 0.65010  0.83610  0.23580  Biso   1.000  H
  C229     1.0000 0.67788  0.39810  0.44890  Biso   1.000  C
  H162     1.0000 0.68580  0.46030  0.43030  Biso   1.000  H
  C230     1.0000 0.70220  0.66970  0.16880  Biso   1.000  C
  H163     1.0000 0.71630  0.62800  0.15310  Biso   1.000  H
  C231     1.0000 0.69497  0.33100  0.48820  Biso   1.000  C
  H164     1.0000 0.71460  0.35050  0.49590  Biso   1.000  H
  C232     1.0000 0.26939  0.25090  0.12270  Biso   1.000  C
  C233     1.0000 0.40910  0.50300  0.95290  Biso   1.000  C
  H165     1.0000 0.40510  0.58320  0.96020  Biso   1.000  H
  C234     1.0000 0.39460  0.44400  0.90800  Biso   1.000  C
  C235     1.0000 0.40120  0.33240  0.89110  Biso   1.000  C
  H166     1.0000 0.39180  0.30100  0.85760  Biso   1.000  H
  C236     1.0000 0.30710  0.87620  0.94170  Biso   1.000  C
  C237     1.0000 0.32440  0.77990  0.92580  Biso   1.000  C
  C238     1.0000 0.34200  0.80060  0.88520  Biso   1.000  C
  H167     1.0000 0.34280  0.87650  0.86930  Biso   1.000  H
  C239     1.0000 0.35860  0.70730  0.86860  Biso   1.000  C
  H168     1.0000 0.37080  0.72030  0.84190  Biso   1.000  H
  C240     1.0000 0.35680  0.59530  0.89190  Biso   1.000  C
  C241     1.0000 0.33980  0.57430  0.93300  Biso   1.000  C
  H169     1.0000 0.33910  0.49840  0.94900  Biso   1.000  H
  C242     1.0000 0.32360  0.66850  0.95030  Biso   1.000  C
  H170     1.0000 0.31220  0.65630  0.97840  Biso   1.000  H
  O63      1.0000 0.37200  0.49980  0.87260  Biso   1.000  O
  O64      1.0000 0.30560  0.97790  0.91140  Biso   1.000  O
  O65      1.0000 0.29230  0.86610  0.98680  Biso   1.000  O
  C243     1.0000 0.40090  0.47200  0.96490  Biso   1.000  C
  H171     1.0000 0.39280  0.53970  0.97940  Biso   1.000  H
  C244     1.0000 0.38500  0.40900  0.92300  Biso   1.000  C
  C245     1.0000 0.39390  0.30200  0.90720  Biso   1.000  C
  H172     1.0000 0.38100  0.25200  0.88460  Biso   1.000  H
  C246     1.0000 0.31350  0.90020  0.90980  Biso   1.000  C
  C247     1.0000 0.32460  0.78360  0.90580  Biso   1.000  C
  C248     1.0000 0.35240  0.76860  0.89360  Biso   1.000  C
  H173     1.0000 0.36350  0.83510  0.88650  Biso   1.000  H
  C249     1.0000 0.36390  0.65460  0.89200  Biso   1.000  C
  H174     1.0000 0.38280  0.64390  0.88430  Biso   1.000  H
  C250     1.0000 0.34720  0.55620  0.90200  Biso   1.000  C
  C251     1.0000 0.31950  0.57040  0.91600  Biso   1.000  C
  H175     1.0000 0.30900  0.50390  0.92510  Biso   1.000  H
  C252     1.0000 0.30780  0.68360  0.91620  Biso   1.000  C
  H176     1.0000 0.28880  0.69390  0.92320  Biso   1.000  H
  O66      1.0000 0.35770  0.44050  0.89610  Biso   1.000  O
  O67      1.0000 0.28460  0.92400  0.90440  Biso   1.000  O
  O68      1.0000 0.33030  0.99940  0.92180  Biso   1.000  O
  Cd9      1.0000 0.01301  0.33966  0.56095  Biso   1.000  Cd
  Cd10     1.0000 0.71811  0.13406  0.57965  Biso   1.000  Cd
  O69      1.0000 0.87073  0.47220  0.73420  Biso   1.000  O
  O70      1.0000 0.10077  0.79240  0.88930  Biso   1.000  O
  O71      1.0000 0.99642  0.54400  0.66470  Biso   1.000  O
  C253     1.0000 0.92239  0.23510  0.42490  Biso   1.000  C
  O72      1.0000 0.12967  0.07040  0.90050  Biso   1.000  O
  O73      1.0000 0.98213  0.16980  0.53700  Biso   1.000  O
  O74      1.0000 0.15356  0.89080  0.76610  Biso   1.000  O
  O75      1.0000 0.97327  0.33520  0.48790  Biso   1.000  O
  O76      1.0000 0.08567  0.99220  0.74170  Biso   1.000  O
  C254     1.0000 0.93823  0.17440  0.47020  Biso   1.000  C
  O77      1.0000 0.76285  0.14530  0.63850  Biso   1.000  O
  C255     1.0000 0.84600  0.41550  0.70420  Biso   1.000  C
  N17      1.0000 0.04105  0.21800  0.62380  Biso   1.000  N
  C256     1.0000 0.79638  0.30700  0.65130  Biso   1.000  C
  C257     1.0000 0.09083  0.68380  0.96820  Biso   1.000  C
  H177     1.0000 0.11030  0.66110  0.97550  Biso   1.000  H
  C258     1.0000 0.80490  0.41560  0.63550  Biso   1.000  C
  H178     1.0000 0.79330  0.45500  0.60630  Biso   1.000  H
  C259     1.0000 0.89616  0.47170  0.70960  Biso   1.000  C
  C260     1.0000 0.94838  0.47720  0.66970  Biso   1.000  C
  C261     1.0000 0.89857  0.41130  0.66210  Biso   1.000  C
  H179     1.0000 0.88280  0.36990  0.64290  Biso   1.000  H
  C262     1.0000 0.94458  0.53860  0.71770  Biso   1.000  C
  H180     1.0000 0.95990  0.58330  0.73650  Biso   1.000  H
  N18      1.0000 0.19726  0.71670  0.65350  Biso   1.000  N
  C263     1.0000 0.06017  0.26180  0.66610  Biso   1.000  C
  H181     1.0000 0.06280  0.34460  0.66770  Biso   1.000  H
  C264     1.0000 0.93052  0.06240  0.48780  Biso   1.000  C
  N19      1.0000 0.04347  0.67750  0.99380  Biso   1.000  N
  O78      1.0000 0.75324  0.30350  0.58420  Biso   1.000  O
  C265     1.0000 0.92492  0.41240  0.64290  Biso   1.000  C
  H182     1.0000 0.92710  0.36850  0.61100  Biso   1.000  H
  C266     1.0000 0.13102  0.83500  0.79080  Biso   1.000  C
  H183     1.0000 0.11660  0.80080  0.76200  Biso   1.000  H
  H184     1.0000 0.13900  0.77090  0.81570  Biso   1.000  H
  C267     1.0000 0.05289  0.02170  0.66120  Biso   1.000  C
  H185     1.0000 0.05010  0.93910  0.65810  Biso   1.000  H
  C268     1.0000 0.14854  0.12870  0.93750  Biso   1.000  C
  O79      1.0000 0.97892  0.39220  0.61120  Biso   1.000  O
  C269     1.0000 0.07182  0.06980  0.70440  Biso   1.000  C
  C270     1.0000 0.83830  0.30720  0.72310  Biso   1.000  C
  H186     1.0000 0.84920  0.27000  0.75370  Biso   1.000  H
  C271     1.0000 0.07601  0.19440  0.70690  Biso   1.000  C
  H187     1.0000 0.08900  0.22970  0.73520  Biso   1.000  H
  C272     1.0000 0.09073  0.88170  0.84790  Biso   1.000  C
  H188     1.0000 0.07710  0.84590  0.81820  Biso   1.000  H
  H189     1.0000 0.08080  0.94570  0.86480  Biso   1.000  H
  C273     1.0000 0.08108  0.75450  0.92130  Biso   1.000  C
  C274     1.0000 0.11693  0.93250  0.82400  Biso   1.000  C
  C275     1.0000 0.05183  0.78200  0.91070  Biso   1.000  C
  H190     1.0000 0.04420  0.82740  0.87970  Biso   1.000  H
  C276     1.0000 0.83040  0.47170  0.66090  Biso   1.000  C
  H191     1.0000 0.83630  0.54530  0.64820  Biso   1.000  H
  C277     1.0000 0.91886  0.53500  0.73800  Biso   1.000  C
  H192     1.0000 0.91670  0.57510  0.77100  Biso   1.000  H
  C278     1.0000 0.13849  0.22130  0.96560  Biso   1.000  C
  H193     1.0000 0.11900  0.24310  0.95820  Biso   1.000  H
  C279     1.0000 0.16726  0.83040  0.73080  Biso   1.000  C
  C280     1.0000 0.14107  0.97610  0.87050  Biso   1.000  C
  H194     1.0000 0.15770  0.00480  0.85420  Biso   1.000  H
  H195     1.0000 0.14750  0.91030  0.89570  Biso   1.000  H
  C281     1.0000 0.17820  0.65980  0.67800  Biso   1.000  C
  H196     1.0000 0.17450  0.57980  0.66830  Biso   1.000  H
  C282     1.0000 0.03415  0.74000  0.94770  Biso   1.000  C
  H197     1.0000 0.01430  0.75650  0.93980  Biso   1.000  H
  C283     1.0000 0.81330  0.25430  0.69460  Biso   1.000  C
  H198     1.0000 0.80810  0.17850  0.70590  Biso   1.000  H
  C284     1.0000 0.03806  0.09960  0.62230  Biso   1.000  C
  H199     1.0000 0.02510  0.06660  0.59320  Biso   1.000  H
  C285     1.0000 0.10603  0.03680  0.78710  Biso   1.000  C
  H200     1.0000 0.12220  0.07570  0.77300  Biso   1.000  H
  H201     1.0000 0.09670  0.09540  0.80840  Biso   1.000  H
  C286     1.0000 0.96681  0.22910  0.50090  Biso   1.000  C
  N20      1.0000 0.18553  0.26000  0.01620  Biso   1.000  N
  C287     1.0000 0.15702  0.28290  0.00490  Biso   1.000  C
  H202     1.0000 0.14940  0.34380  0.02480  Biso   1.000  H
  C288     1.0000 0.07243  0.64850  0.00250  Biso   1.000  C
  H203     1.0000 0.07960  0.60230  0.03360  Biso   1.000  H
  C289     1.0000 0.97716  0.47260  0.64680  Biso   1.000  C
  C290     1.0000 0.18780  0.89080  0.70610  Biso   1.000  C
  H204     1.0000 0.19190  0.97110  0.71450  Biso   1.000  H
  C291     1.0000 0.16284  0.71000  0.71820  Biso   1.000  C
  H205     1.0000 0.15010  0.66390  0.73580  Biso   1.000  H
  C292     1.0000 0.17788  0.10190  0.94890  Biso   1.000  C
  H206     1.0000 0.18580  0.03970  0.93030  Biso   1.000  H
  C293     1.0000 0.20220  0.83030  0.66880  Biso   1.000  C
  H207     1.0000 0.21630  0.87200  0.65310  Biso   1.000  H
  C294     1.0000 0.19497  0.16900  0.98820  Biso   1.000  C
  H208     1.0000 0.21460  0.14950  0.99590  Biso   1.000  H
  C295     1.0000 0.76939  0.24910  0.62270  Biso   1.000  C
  C296     1.0000 0.90910  0.99700  0.45290  Biso   1.000  C
  H209     1.0000 0.90510  0.91680  0.46020  Biso   1.000  H
  C297     1.0000 0.89460  0.05600  0.40800  Biso   1.000  C
  C298     1.0000 0.90120  0.16760  0.39110  Biso   1.000  C
  H210     1.0000 0.89180  0.19900  0.35760  Biso   1.000  H
  C299     1.0000 0.80710  0.62380  0.44170  Biso   1.000  C
  C300     1.0000 0.82440  0.72010  0.42580  Biso   1.000  C
  C301     1.0000 0.84200  0.69940  0.38520  Biso   1.000  C
  H211     1.0000 0.84280  0.62350  0.36930  Biso   1.000  H
  C302     1.0000 0.85860  0.79270  0.36860  Biso   1.000  C
  H212     1.0000 0.87080  0.77970  0.34190  Biso   1.000  H
  C303     1.0000 0.85680  0.90470  0.39190  Biso   1.000  C
  C304     1.0000 0.83980  0.92570  0.43300  Biso   1.000  C
  H213     1.0000 0.83910  0.00160  0.44900  Biso   1.000  H
  C305     1.0000 0.82360  0.83150  0.45030  Biso   1.000  C
  H214     1.0000 0.81220  0.84370  0.47840  Biso   1.000  H
  O80      1.0000 0.87200  0.00020  0.37260  Biso   1.000  O
  O81      1.0000 0.80560  0.52210  0.41140  Biso   1.000  O
  O82      1.0000 0.79230  0.63390  0.48680  Biso   1.000  O
  C306     1.0000 0.90090  0.02800  0.46490  Biso   1.000  C
  H215     1.0000 0.89280  0.96030  0.47940  Biso   1.000  H
  C307     1.0000 0.88500  0.09100  0.42300  Biso   1.000  C
  C308     1.0000 0.89390  0.19800  0.40720  Biso   1.000  C
  H216     1.0000 0.88100  0.24800  0.38460  Biso   1.000  H
  C309     1.0000 0.81350  0.59980  0.40980  Biso   1.000  C
  C310     1.0000 0.82460  0.71640  0.40580  Biso   1.000  C
  C311     1.0000 0.85240  0.73140  0.39360  Biso   1.000  C
  H217     1.0000 0.86350  0.66490  0.38650  Biso   1.000  H
  C312     1.0000 0.86390  0.84540  0.39200  Biso   1.000  C
  H218     1.0000 0.88280  0.85610  0.38430  Biso   1.000  H
  C313     1.0000 0.84720  0.94380  0.40200  Biso   1.000  C
  C314     1.0000 0.81950  0.92960  0.41600  Biso   1.000  C
  H219     1.0000 0.80900  0.99610  0.42510  Biso   1.000  H
  C315     1.0000 0.80780  0.81640  0.41620  Biso   1.000  C
  H220     1.0000 0.78880  0.80610  0.42320  Biso   1.000  H
  O83      1.0000 0.85770  0.05950  0.39610  Biso   1.000  O
  O84      1.0000 0.78460  0.57600  0.40440  Biso   1.000  O
  O85      1.0000 0.83030  0.50060  0.42180  Biso   1.000  O
  Cd11     1.0000 0.51301  0.83966  0.56095  Biso   1.000  Cd
  Cd12     1.0000 0.21811  0.63406  0.57965  Biso   1.000  Cd
  O86      1.0000 0.37073  0.97220  0.73420  Biso   1.000  O
  O87      1.0000 0.60077  0.29240  0.88930  Biso   1.000  O
  O88      1.0000 0.49642  0.04400  0.66470  Biso   1.000  O
  C316     1.0000 0.42239  0.73510  0.42490  Biso   1.000  C
  O89      1.0000 0.62967  0.57040  0.90050  Biso   1.000  O
  O90      1.0000 0.48213  0.66980  0.53700  Biso   1.000  O
  O91      1.0000 0.65356  0.39080  0.76610  Biso   1.000  O
  O92      1.0000 0.47327  0.83520  0.48790  Biso   1.000  O
  O93      1.0000 0.58567  0.49220  0.74170  Biso   1.000  O
  C317     1.0000 0.43823  0.67440  0.47020  Biso   1.000  C
  O94      1.0000 0.26285  0.64530  0.63850  Biso   1.000  O
  C318     1.0000 0.34600  0.91550  0.70420  Biso   1.000  C
  N21      1.0000 0.54105  0.71800  0.62380  Biso   1.000  N
  C319     1.0000 0.29638  0.80700  0.65130  Biso   1.000  C
  C320     1.0000 0.59083  0.18380  0.96820  Biso   1.000  C
  H221     1.0000 0.61030  0.16110  0.97550  Biso   1.000  H
  C321     1.0000 0.30490  0.91560  0.63550  Biso   1.000  C
  H222     1.0000 0.29330  0.95500  0.60630  Biso   1.000  H
  C322     1.0000 0.39616  0.97170  0.70960  Biso   1.000  C
  C323     1.0000 0.44838  0.97720  0.66970  Biso   1.000  C
  C324     1.0000 0.39857  0.91130  0.66210  Biso   1.000  C
  H223     1.0000 0.38280  0.86990  0.64290  Biso   1.000  H
  C325     1.0000 0.44458  0.03860  0.71770  Biso   1.000  C
  H224     1.0000 0.45990  0.08330  0.73650  Biso   1.000  H
  N22      1.0000 0.69726  0.21670  0.65350  Biso   1.000  N
  C326     1.0000 0.56017  0.76180  0.66610  Biso   1.000  C
  H225     1.0000 0.56280  0.84460  0.66770  Biso   1.000  H
  C327     1.0000 0.43052  0.56240  0.48780  Biso   1.000  C
  N23      1.0000 0.54347  0.17750  0.99380  Biso   1.000  N
  O95      1.0000 0.25324  0.80350  0.58420  Biso   1.000  O
  C328     1.0000 0.42492  0.91240  0.64290  Biso   1.000  C
  H226     1.0000 0.42710  0.86850  0.61100  Biso   1.000  H
  C329     1.0000 0.63102  0.33500  0.79080  Biso   1.000  C
  H227     1.0000 0.61660  0.30080  0.76200  Biso   1.000  H
  H228     1.0000 0.63900  0.27090  0.81570  Biso   1.000  H
  C330     1.0000 0.55289  0.52170  0.66120  Biso   1.000  C
  H229     1.0000 0.55010  0.43910  0.65810  Biso   1.000  H
  C331     1.0000 0.64854  0.62870  0.93750  Biso   1.000  C
  O96      1.0000 0.47892  0.89220  0.61120  Biso   1.000  O
  C332     1.0000 0.57182  0.56980  0.70440  Biso   1.000  C
  C333     1.0000 0.33830  0.80720  0.72310  Biso   1.000  C
  H230     1.0000 0.34920  0.77000  0.75370  Biso   1.000  H
  C334     1.0000 0.57601  0.69440  0.70690  Biso   1.000  C
  H231     1.0000 0.58900  0.72970  0.73520  Biso   1.000  H
  C335     1.0000 0.59073  0.38170  0.84790  Biso   1.000  C
  H232     1.0000 0.57710  0.34590  0.81820  Biso   1.000  H
  H233     1.0000 0.58080  0.44570  0.86480  Biso   1.000  H
  C336     1.0000 0.58108  0.25450  0.92130  Biso   1.000  C
  C337     1.0000 0.61693  0.43250  0.82400  Biso   1.000  C
  C338     1.0000 0.55183  0.28200  0.91070  Biso   1.000  C
  H234     1.0000 0.54420  0.32740  0.87970  Biso   1.000  H
  C339     1.0000 0.33040  0.97170  0.66090  Biso   1.000  C
  H235     1.0000 0.33630  0.04530  0.64820  Biso   1.000  H
  C340     1.0000 0.41886  0.03500  0.73800  Biso   1.000  C
  H236     1.0000 0.41670  0.07510  0.77100  Biso   1.000  H
  C341     1.0000 0.63849  0.72130  0.96560  Biso   1.000  C
  H237     1.0000 0.61900  0.74310  0.95820  Biso   1.000  H
  C342     1.0000 0.66726  0.33040  0.73080  Biso   1.000  C
  C343     1.0000 0.64107  0.47610  0.87050  Biso   1.000  C
  H238     1.0000 0.65770  0.50480  0.85420  Biso   1.000  H
  H239     1.0000 0.64750  0.41030  0.89570  Biso   1.000  H
  C344     1.0000 0.67820  0.15980  0.67800  Biso   1.000  C
  H240     1.0000 0.67450  0.07980  0.66830  Biso   1.000  H
  C345     1.0000 0.53415  0.24000  0.94770  Biso   1.000  C
  H241     1.0000 0.51430  0.25650  0.93980  Biso   1.000  H
  C346     1.0000 0.31330  0.75430  0.69460  Biso   1.000  C
  H242     1.0000 0.30810  0.67850  0.70590  Biso   1.000  H
  C347     1.0000 0.53806  0.59960  0.62230  Biso   1.000  C
  H243     1.0000 0.52510  0.56660  0.59320  Biso   1.000  H
  C348     1.0000 0.60603  0.53680  0.78710  Biso   1.000  C
  H244     1.0000 0.62220  0.57570  0.77300  Biso   1.000  H
  H245     1.0000 0.59670  0.59540  0.80840  Biso   1.000  H
  C349     1.0000 0.46681  0.72910  0.50090  Biso   1.000  C
  N24      1.0000 0.68553  0.76000  0.01620  Biso   1.000  N
  C350     1.0000 0.65702  0.78290  0.00490  Biso   1.000  C
  H246     1.0000 0.64940  0.84380  0.02480  Biso   1.000  H
  C351     1.0000 0.57243  0.14850  0.00250  Biso   1.000  C
  H247     1.0000 0.57960  0.10230  0.03360  Biso   1.000  H
  C352     1.0000 0.47716  0.97260  0.64680  Biso   1.000  C
  C353     1.0000 0.68780  0.39080  0.70610  Biso   1.000  C
  H248     1.0000 0.69190  0.47110  0.71450  Biso   1.000  H
  C354     1.0000 0.66284  0.21000  0.71820  Biso   1.000  C
  H249     1.0000 0.65010  0.16390  0.73580  Biso   1.000  H
  C355     1.0000 0.67788  0.60190  0.94890  Biso   1.000  C
  H250     1.0000 0.68580  0.53970  0.93030  Biso   1.000  H
  C356     1.0000 0.70220  0.33030  0.66880  Biso   1.000  C
  H251     1.0000 0.71630  0.37200  0.65310  Biso   1.000  H
  C357     1.0000 0.69497  0.66900  0.98820  Biso   1.000  C
  H252     1.0000 0.71460  0.64950  0.99590  Biso   1.000  H
  C358     1.0000 0.26939  0.74910  0.62270  Biso   1.000  C
  C359     1.0000 0.40910  0.49700  0.45290  Biso   1.000  C
  H253     1.0000 0.40510  0.41680  0.46020  Biso   1.000  H
  C360     1.0000 0.39460  0.55600  0.40800  Biso   1.000  C
  C361     1.0000 0.40120  0.66760  0.39110  Biso   1.000  C
  H254     1.0000 0.39180  0.69900  0.35760  Biso   1.000  H
  C362     1.0000 0.30710  0.12380  0.44170  Biso   1.000  C
  C363     1.0000 0.32440  0.22010  0.42580  Biso   1.000  C
  C364     1.0000 0.34200  0.19940  0.38520  Biso   1.000  C
  H255     1.0000 0.34280  0.12350  0.36930  Biso   1.000  H
  C365     1.0000 0.35860  0.29270  0.36860  Biso   1.000  C
  H256     1.0000 0.37080  0.27970  0.34190  Biso   1.000  H
  C366     1.0000 0.35680  0.40470  0.39190  Biso   1.000  C
  C367     1.0000 0.33980  0.42570  0.43300  Biso   1.000  C
  H257     1.0000 0.33910  0.50160  0.44900  Biso   1.000  H
  C368     1.0000 0.32360  0.33150  0.45030  Biso   1.000  C
  H258     1.0000 0.31220  0.34370  0.47840  Biso   1.000  H
  O97      1.0000 0.37200  0.50020  0.37260  Biso   1.000  O
  O98      1.0000 0.30560  0.02210  0.41140  Biso   1.000  O
  O99      1.0000 0.29230  0.13390  0.48680  Biso   1.000  O
  C369     1.0000 0.40090  0.52800  0.46490  Biso   1.000  C
  H259     1.0000 0.39280  0.46030  0.47940  Biso   1.000  H
  C370     1.0000 0.38500  0.59100  0.42300  Biso   1.000  C
  C371     1.0000 0.39390  0.69800  0.40720  Biso   1.000  C
  H260     1.0000 0.38100  0.74800  0.38460  Biso   1.000  H
  C372     1.0000 0.31350  0.09980  0.40980  Biso   1.000  C
  C373     1.0000 0.32460  0.21640  0.40580  Biso   1.000  C
  C374     1.0000 0.35240  0.23140  0.39360  Biso   1.000  C
  H261     1.0000 0.36350  0.16490  0.38650  Biso   1.000  H
  C375     1.0000 0.36390  0.34540  0.39200  Biso   1.000  C
  H262     1.0000 0.38280  0.35610  0.38430  Biso   1.000  H
  C376     1.0000 0.34720  0.44380  0.40200  Biso   1.000  C
  C377     1.0000 0.31950  0.42960  0.41600  Biso   1.000  C
  H263     1.0000 0.30900  0.49610  0.42510  Biso   1.000  H
  C378     1.0000 0.30780  0.31640  0.41620  Biso   1.000  C
  H264     1.0000 0.28880  0.30610  0.42320  Biso   1.000  H
  O100     1.0000 0.35770  0.55950  0.39610  Biso   1.000  O
  O101     1.0000 0.28460  0.07600  0.40440  Biso   1.000  O
  O102     1.0000 0.33030  0.00060  0.42180  Biso   1.000  O
  Cd13     1.0000 0.98699  0.33966  0.93905  Biso   1.000  Cd
  Cd14     1.0000 0.28189  0.13406  0.92035  Biso   1.000  Cd
  O103     1.0000 0.12927  0.47220  0.76580  Biso   1.000  O
  O104     1.0000 0.89923  0.79240  0.61070  Biso   1.000  O
  O105     1.0000 0.00358  0.54400  0.83530  Biso   1.000  O
  C379     1.0000 0.07761  0.23510  0.07510  Biso   1.000  C
  O106     1.0000 0.87033  0.07040  0.59950  Biso   1.000  O
  O107     1.0000 0.01787  0.16980  0.96300  Biso   1.000  O
  O108     1.0000 0.84644  0.89080  0.73390  Biso   1.000  O
  O109     1.0000 0.02673  0.33520  0.01210  Biso   1.000  O
  O110     1.0000 0.91433  0.99220  0.75830  Biso   1.000  O
  C380     1.0000 0.06177  0.17440  0.02980  Biso   1.000  C
  O111     1.0000 0.23715  0.14530  0.86150  Biso   1.000  O
  C381     1.0000 0.15400  0.41550  0.79580  Biso   1.000  C
  N25      1.0000 0.95895  0.21800  0.87620  Biso   1.000  N
  C382     1.0000 0.20362  0.30700  0.84870  Biso   1.000  C
  C383     1.0000 0.90917  0.68380  0.53180  Biso   1.000  C
  H265     1.0000 0.88970  0.66110  0.52450  Biso   1.000  H
  C384     1.0000 0.19510  0.41560  0.86450  Biso   1.000  C
  H266     1.0000 0.20670  0.45500  0.89370  Biso   1.000  H
  C385     1.0000 0.10384  0.47170  0.79040  Biso   1.000  C
  C386     1.0000 0.05162  0.47720  0.83030  Biso   1.000  C
  C387     1.0000 0.10143  0.41130  0.83790  Biso   1.000  C
  H267     1.0000 0.11720  0.36990  0.85710  Biso   1.000  H
  C388     1.0000 0.05542  0.53860  0.78230  Biso   1.000  C
  H268     1.0000 0.04010  0.58330  0.76350  Biso   1.000  H
  N26      1.0000 0.80274  0.71670  0.84650  Biso   1.000  N
  C389     1.0000 0.93983  0.26180  0.83390  Biso   1.000  C
  H269     1.0000 0.93720  0.34460  0.83230  Biso   1.000  H
  C390     1.0000 0.06948  0.06240  0.01220  Biso   1.000  C
  N27      1.0000 0.95653  0.67750  0.50620  Biso   1.000  N
  O112     1.0000 0.24676  0.30350  0.91580  Biso   1.000  O
  C391     1.0000 0.07508  0.41240  0.85710  Biso   1.000  C
  H270     1.0000 0.07290  0.36850  0.88900  Biso   1.000  H
  C392     1.0000 0.86898  0.83500  0.70920  Biso   1.000  C
  H271     1.0000 0.88340  0.80080  0.73800  Biso   1.000  H
  H272     1.0000 0.86100  0.77090  0.68430  Biso   1.000  H
  C393     1.0000 0.94711  0.02170  0.83880  Biso   1.000  C
  H273     1.0000 0.94990  0.93910  0.84190  Biso   1.000  H
  C394     1.0000 0.85146  0.12870  0.56250  Biso   1.000  C
  O113     1.0000 0.02108  0.39220  0.88880  Biso   1.000  O
  C395     1.0000 0.92818  0.06980  0.79560  Biso   1.000  C
  C396     1.0000 0.16170  0.30720  0.77690  Biso   1.000  C
  H274     1.0000 0.15080  0.27000  0.74630  Biso   1.000  H
  C397     1.0000 0.92399  0.19440  0.79310  Biso   1.000  C
  H275     1.0000 0.91100  0.22970  0.76480  Biso   1.000  H
  C398     1.0000 0.90927  0.88170  0.65210  Biso   1.000  C
  H276     1.0000 0.92290  0.84590  0.68180  Biso   1.000  H
  H277     1.0000 0.91920  0.94570  0.63520  Biso   1.000  H
  C399     1.0000 0.91892  0.75450  0.57870  Biso   1.000  C
  C400     1.0000 0.88307  0.93250  0.67600  Biso   1.000  C
  C401     1.0000 0.94817  0.78200  0.58930  Biso   1.000  C
  H278     1.0000 0.95580  0.82740  0.62030  Biso   1.000  H
  C402     1.0000 0.16960  0.47170  0.83910  Biso   1.000  C
  H279     1.0000 0.16370  0.54530  0.85180  Biso   1.000  H
  C403     1.0000 0.08114  0.53500  0.76200  Biso   1.000  C
  H280     1.0000 0.08330  0.57510  0.72900  Biso   1.000  H
  C404     1.0000 0.86151  0.22130  0.53440  Biso   1.000  C
  H281     1.0000 0.88100  0.24310  0.54180  Biso   1.000  H
  C405     1.0000 0.83274  0.83040  0.76920  Biso   1.000  C
  C406     1.0000 0.85893  0.97610  0.62950  Biso   1.000  C
  H282     1.0000 0.84230  0.00480  0.64580  Biso   1.000  H
  H283     1.0000 0.85250  0.91030  0.60430  Biso   1.000  H
  C407     1.0000 0.82180  0.65980  0.82200  Biso   1.000  C
  H284     1.0000 0.82550  0.57980  0.83170  Biso   1.000  H
  C408     1.0000 0.96585  0.74000  0.55230  Biso   1.000  C
  H285     1.0000 0.98570  0.75650  0.56020  Biso   1.000  H
  C409     1.0000 0.18670  0.25430  0.80540  Biso   1.000  C
  H286     1.0000 0.19190  0.17850  0.79410  Biso   1.000  H
  C410     1.0000 0.96194  0.09960  0.87770  Biso   1.000  C
  H287     1.0000 0.97490  0.06660  0.90680  Biso   1.000  H
  C411     1.0000 0.89397  0.03680  0.71290  Biso   1.000  C
  H288     1.0000 0.87780  0.07570  0.72700  Biso   1.000  H
  H289     1.0000 0.90330  0.09540  0.69160  Biso   1.000  H
  C412     1.0000 0.03319  0.22910  0.99910  Biso   1.000  C
  N28      1.0000 0.81447  0.26000  0.48380  Biso   1.000  N
  C413     1.0000 0.84298  0.28290  0.49510  Biso   1.000  C
  H290     1.0000 0.85060  0.34380  0.47520  Biso   1.000  H
  C414     1.0000 0.92757  0.64850  0.49750  Biso   1.000  C
  H291     1.0000 0.92040  0.60230  0.46640  Biso   1.000  H
  C415     1.0000 0.02284  0.47260  0.85320  Biso   1.000  C
  C416     1.0000 0.81220  0.89080  0.79390  Biso   1.000  C
  H292     1.0000 0.80810  0.97110  0.78550  Biso   1.000  H
  C417     1.0000 0.83716  0.71000  0.78180  Biso   1.000  C
  H293     1.0000 0.84990  0.66390  0.76420  Biso   1.000  H
  C418     1.0000 0.82212  0.10190  0.55110  Biso   1.000  C
  H294     1.0000 0.81420  0.03970  0.56970  Biso   1.000  H
  C419     1.0000 0.79780  0.83030  0.83120  Biso   1.000  C
  H295     1.0000 0.78370  0.87200  0.84690  Biso   1.000  H
  C420     1.0000 0.80503  0.16900  0.51180  Biso   1.000  C
  H296     1.0000 0.78540  0.14950  0.50410  Biso   1.000  H
  C421     1.0000 0.23061  0.24910  0.87730  Biso   1.000  C
  C422     1.0000 0.09090  0.99700  0.04710  Biso   1.000  C
  H297     1.0000 0.09490  0.91680  0.03980  Biso   1.000  H
  C423     1.0000 0.10540  0.05600  0.09200  Biso   1.000  C
  C424     1.0000 0.09880  0.16760  0.10890  Biso   1.000  C
  H298     1.0000 0.10820  0.19900  0.14240  Biso   1.000  H
  C425     1.0000 0.19290  0.62380  0.05830  Biso   1.000  C
  C426     1.0000 0.17560  0.72010  0.07420  Biso   1.000  C
  C427     1.0000 0.15800  0.69940  0.11480  Biso   1.000  C
  H299     1.0000 0.15720  0.62350  0.13070  Biso   1.000  H
  C428     1.0000 0.14140  0.79270  0.13140  Biso   1.000  C
  H300     1.0000 0.12920  0.77970  0.15810  Biso   1.000  H
  C429     1.0000 0.14320  0.90470  0.10810  Biso   1.000  C
  C430     1.0000 0.16020  0.92570  0.06700  Biso   1.000  C
  H301     1.0000 0.16090  0.00160  0.05100  Biso   1.000  H
  C431     1.0000 0.17640  0.83150  0.04970  Biso   1.000  C
  H302     1.0000 0.18780  0.84370  0.02160  Biso   1.000  H
  O114     1.0000 0.12800  0.00020  0.12740  Biso   1.000  O
  O115     1.0000 0.19440  0.52210  0.08860  Biso   1.000  O
  O116     1.0000 0.20770  0.63390  0.01320  Biso   1.000  O
  C432     1.0000 0.09910  0.02800  0.03510  Biso   1.000  C
  H303     1.0000 0.10720  0.96030  0.02060  Biso   1.000  H
  C433     1.0000 0.11500  0.09100  0.07700  Biso   1.000  C
  C434     1.0000 0.10610  0.19800  0.09280  Biso   1.000  C
  H304     1.0000 0.11900  0.24800  0.11540  Biso   1.000  H
  C435     1.0000 0.18650  0.59980  0.09020  Biso   1.000  C
  C436     1.0000 0.17540  0.71640  0.09420  Biso   1.000  C
  C437     1.0000 0.14760  0.73140  0.10640  Biso   1.000  C
  H305     1.0000 0.13650  0.66490  0.11350  Biso   1.000  H
  C438     1.0000 0.13610  0.84540  0.10800  Biso   1.000  C
  H306     1.0000 0.11720  0.85610  0.11570  Biso   1.000  H
  C439     1.0000 0.15280  0.94380  0.09800  Biso   1.000  C
  C440     1.0000 0.18050  0.92960  0.08400  Biso   1.000  C
  H307     1.0000 0.19100  0.99610  0.07490  Biso   1.000  H
  C441     1.0000 0.19220  0.81640  0.08380  Biso   1.000  C
  H308     1.0000 0.21120  0.80610  0.07680  Biso   1.000  H
  O117     1.0000 0.14230  0.05950  0.10390  Biso   1.000  O
  O118     1.0000 0.21540  0.57600  0.09560  Biso   1.000  O
  O119     1.0000 0.16970  0.50060  0.07820  Biso   1.000  O
  Cd15     1.0000 0.48699  0.83966  0.93905  Biso   1.000  Cd
  Cd16     1.0000 0.78189  0.63406  0.92035  Biso   1.000  Cd
  O120     1.0000 0.62927  0.97220  0.76580  Biso   1.000  O
  O121     1.0000 0.39923  0.29240  0.61070  Biso   1.000  O
  O122     1.0000 0.50358  0.04400  0.83530  Biso   1.000  O
  C442     1.0000 0.57761  0.73510  0.07510  Biso   1.000  C
  O123     1.0000 0.37033  0.57040  0.59950  Biso   1.000  O
  O124     1.0000 0.51787  0.66980  0.96300  Biso   1.000  O
  O125     1.0000 0.34644  0.39080  0.73390  Biso   1.000  O
  O126     1.0000 0.52673  0.83520  0.01210  Biso   1.000  O
  O127     1.0000 0.41433  0.49220  0.75830  Biso   1.000  O
  C443     1.0000 0.56177  0.67440  0.02980  Biso   1.000  C
  O128     1.0000 0.73715  0.64530  0.86150  Biso   1.000  O
  C444     1.0000 0.65400  0.91550  0.79580  Biso   1.000  C
  N29      1.0000 0.45895  0.71800  0.87620  Biso   1.000  N
  C445     1.0000 0.70362  0.80700  0.84870  Biso   1.000  C
  C446     1.0000 0.40917  0.18380  0.53180  Biso   1.000  C
  H309     1.0000 0.38970  0.16110  0.52450  Biso   1.000  H
  C447     1.0000 0.69510  0.91560  0.86450  Biso   1.000  C
  H310     1.0000 0.70670  0.95500  0.89370  Biso   1.000  H
  C448     1.0000 0.60384  0.97170  0.79040  Biso   1.000  C
  C449     1.0000 0.55162  0.97720  0.83030  Biso   1.000  C
  C450     1.0000 0.60143  0.91130  0.83790  Biso   1.000  C
  H311     1.0000 0.61720  0.86990  0.85710  Biso   1.000  H
  C451     1.0000 0.55542  0.03860  0.78230  Biso   1.000  C
  H312     1.0000 0.54010  0.08330  0.76350  Biso   1.000  H
  N30      1.0000 0.30274  0.21670  0.84650  Biso   1.000  N
  C452     1.0000 0.43983  0.76180  0.83390  Biso   1.000  C
  H313     1.0000 0.43720  0.84460  0.83230  Biso   1.000  H
  C453     1.0000 0.56948  0.56240  0.01220  Biso   1.000  C
  N31      1.0000 0.45653  0.17750  0.50620  Biso   1.000  N
  O129     1.0000 0.74676  0.80350  0.91580  Biso   1.000  O
  C454     1.0000 0.57508  0.91240  0.85710  Biso   1.000  C
  H314     1.0000 0.57290  0.86850  0.88900  Biso   1.000  H
  C455     1.0000 0.36898  0.33500  0.70920  Biso   1.000  C
  H315     1.0000 0.38340  0.30080  0.73800  Biso   1.000  H
  H316     1.0000 0.36100  0.27090  0.68430  Biso   1.000  H
  C456     1.0000 0.44711  0.52170  0.83880  Biso   1.000  C
  H317     1.0000 0.44990  0.43910  0.84190  Biso   1.000  H
  C457     1.0000 0.35146  0.62870  0.56250  Biso   1.000  C
  O130     1.0000 0.52108  0.89220  0.88880  Biso   1.000  O
  C458     1.0000 0.42818  0.56980  0.79560  Biso   1.000  C
  C459     1.0000 0.66170  0.80720  0.77690  Biso   1.000  C
  H318     1.0000 0.65080  0.77000  0.74630  Biso   1.000  H
  C460     1.0000 0.42399  0.69440  0.79310  Biso   1.000  C
  H319     1.0000 0.41100  0.72970  0.76480  Biso   1.000  H
  C461     1.0000 0.40927  0.38170  0.65210  Biso   1.000  C
  H320     1.0000 0.42290  0.34590  0.68180  Biso   1.000  H
  H321     1.0000 0.41920  0.44570  0.63520  Biso   1.000  H
  C462     1.0000 0.41892  0.25450  0.57870  Biso   1.000  C
  C463     1.0000 0.38307  0.43250  0.67600  Biso   1.000  C
  C464     1.0000 0.44817  0.28200  0.58930  Biso   1.000  C
  H322     1.0000 0.45580  0.32740  0.62030  Biso   1.000  H
  C465     1.0000 0.66960  0.97170  0.83910  Biso   1.000  C
  H323     1.0000 0.66370  0.04530  0.85180  Biso   1.000  H
  C466     1.0000 0.58114  0.03500  0.76200  Biso   1.000  C
  H324     1.0000 0.58330  0.07510  0.72900  Biso   1.000  H
  C467     1.0000 0.36151  0.72130  0.53440  Biso   1.000  C
  H325     1.0000 0.38100  0.74310  0.54180  Biso   1.000  H
  C468     1.0000 0.33274  0.33040  0.76920  Biso   1.000  C
  C469     1.0000 0.35893  0.47610  0.62950  Biso   1.000  C
  H326     1.0000 0.34230  0.50480  0.64580  Biso   1.000  H
  H327     1.0000 0.35250  0.41030  0.60430  Biso   1.000  H
  C470     1.0000 0.32180  0.15980  0.82200  Biso   1.000  C
  H328     1.0000 0.32550  0.07980  0.83170  Biso   1.000  H
  C471     1.0000 0.46585  0.24000  0.55230  Biso   1.000  C
  H329     1.0000 0.48570  0.25650  0.56020  Biso   1.000  H
  C472     1.0000 0.68670  0.75430  0.80540  Biso   1.000  C
  H330     1.0000 0.69190  0.67850  0.79410  Biso   1.000  H
  C473     1.0000 0.46194  0.59960  0.87770  Biso   1.000  C
  H331     1.0000 0.47490  0.56660  0.90680  Biso   1.000  H
  C474     1.0000 0.39397  0.53680  0.71290  Biso   1.000  C
  H332     1.0000 0.37780  0.57570  0.72700  Biso   1.000  H
  H333     1.0000 0.40330  0.59540  0.69160  Biso   1.000  H
  C475     1.0000 0.53319  0.72910  0.99910  Biso   1.000  C
  N32      1.0000 0.31447  0.76000  0.48380  Biso   1.000  N
  C476     1.0000 0.34298  0.78290  0.49510  Biso   1.000  C
  H334     1.0000 0.35060  0.84380  0.47520  Biso   1.000  H
  C477     1.0000 0.42757  0.14850  0.49750  Biso   1.000  C
  H335     1.0000 0.42040  0.10230  0.46640  Biso   1.000  H
  C478     1.0000 0.52284  0.97260  0.85320  Biso   1.000  C
  C479     1.0000 0.31220  0.39080  0.79390  Biso   1.000  C
  H336     1.0000 0.30810  0.47110  0.78550  Biso   1.000  H
  C480     1.0000 0.33716  0.21000  0.78180  Biso   1.000  C
  H337     1.0000 0.34990  0.16390  0.76420  Biso   1.000  H
  C481     1.0000 0.32212  0.60190  0.55110  Biso   1.000  C
  H338     1.0000 0.31420  0.53970  0.56970  Biso   1.000  H
  C482     1.0000 0.29780  0.33030  0.83120  Biso   1.000  C
  H339     1.0000 0.28370  0.37200  0.84690  Biso   1.000  H
  C483     1.0000 0.30503  0.66900  0.51180  Biso   1.000  C
  H340     1.0000 0.28540  0.64950  0.50410  Biso   1.000  H
  C484     1.0000 0.73061  0.74910  0.87730  Biso   1.000  C
  C485     1.0000 0.59090  0.49700  0.04710  Biso   1.000  C
  H341     1.0000 0.59490  0.41680  0.03980  Biso   1.000  H
  C486     1.0000 0.60540  0.55600  0.09200  Biso   1.000  C
  C487     1.0000 0.59880  0.66760  0.10890  Biso   1.000  C
  H342     1.0000 0.60820  0.69900  0.14240  Biso   1.000  H
  C488     1.0000 0.69290  0.12380  0.05830  Biso   1.000  C
  C489     1.0000 0.67560  0.22010  0.07420  Biso   1.000  C
  C490     1.0000 0.65800  0.19940  0.11480  Biso   1.000  C
  H343     1.0000 0.65720  0.12350  0.13070  Biso   1.000  H
  C491     1.0000 0.64140  0.29270  0.13140  Biso   1.000  C
  H344     1.0000 0.62920  0.27970  0.15810  Biso   1.000  H
  C492     1.0000 0.64320  0.40470  0.10810  Biso   1.000  C
  C493     1.0000 0.66020  0.42570  0.06700  Biso   1.000  C
  H345     1.0000 0.66090  0.50160  0.05100  Biso   1.000  H
  C494     1.0000 0.67640  0.33150  0.04970  Biso   1.000  C
  H346     1.0000 0.68780  0.34370  0.02160  Biso   1.000  H
  O131     1.0000 0.62800  0.50020  0.12740  Biso   1.000  O
  O132     1.0000 0.69440  0.02210  0.08860  Biso   1.000  O
  O133     1.0000 0.70770  0.13390  0.01320  Biso   1.000  O
  C495     1.0000 0.59910  0.52800  0.03510  Biso   1.000  C
  H347     1.0000 0.60720  0.46030  0.02060  Biso   1.000  H
  C496     1.0000 0.61500  0.59100  0.07700  Biso   1.000  C
  C497     1.0000 0.60610  0.69800  0.09280  Biso   1.000  C
  H348     1.0000 0.61900  0.74800  0.11540  Biso   1.000  H
  C498     1.0000 0.68650  0.09980  0.09020  Biso   1.000  C
  C499     1.0000 0.67540  0.21640  0.09420  Biso   1.000  C
  C500     1.0000 0.64760  0.23140  0.10640  Biso   1.000  C
  H349     1.0000 0.63650  0.16490  0.11350  Biso   1.000  H
  C501     1.0000 0.63610  0.34540  0.10800  Biso   1.000  C
  H350     1.0000 0.61720  0.35610  0.11570  Biso   1.000  H
  C502     1.0000 0.65280  0.44380  0.09800  Biso   1.000  C
  C503     1.0000 0.68050  0.42960  0.08400  Biso   1.000  C
  H351     1.0000 0.69100  0.49610  0.07490  Biso   1.000  H
  C504     1.0000 0.69220  0.31640  0.08380  Biso   1.000  C
  H352     1.0000 0.71120  0.30610  0.07680  Biso   1.000  H
  O134     1.0000 0.64230  0.55950  0.10390  Biso   1.000  O
  O135     1.0000 0.71540  0.07600  0.09560  Biso   1.000  O
  O136     1.0000 0.66970  0.00060  0.07820  Biso   1.000  O
