data_image0
_cell_length_a       16.615
_cell_length_b       30.564
_cell_length_c       28.217
_cell_angle_alpha    90
_cell_angle_beta     99.25
_cell_angle_gamma    90

_symmetry_space_group_name_H-M    "P 1"
_symmetry_int_tables_number       1

loop_
  _symmetry_equiv_pos_as_xyz
  'x, y, z'

loop_
  _atom_site_label
  _atom_site_occupancy
  _atom_site_fract_x
  _atom_site_fract_y
  _atom_site_fract_z
  _atom_site_thermal_displace_type
  _atom_site_B_iso_or_equiv
  _atom_site_type_symbol
  Fe1      1.0000 0.22960  0.65423  0.50453  Biso   1.000  Fe
  Fe2      1.0000 0.30160  0.70838  0.40614  Biso   1.000  Fe
  Fe3      1.0000 0.12320  0.71839  0.40623  Biso   1.000  Fe
  Fe4      1.0000 0.24400  0.77208  0.49420  Biso   1.000  Fe
  Fe5      1.0000 0.16920  0.54236  0.52209  Biso   1.000  Fe
  Fe6      1.0000 0.20300  0.60836  0.62013  Biso   1.000  Fe
  Fe7      1.0000 0.34160  0.56150  0.56168  Biso   1.000  Fe
  Fe8      1.0000 0.32410  0.28194  0.44705  Biso   1.000  Fe
  Fe9      1.0000 0.37930  0.38326  0.50932  Biso   1.000  Fe
  Fe10     1.0000 0.20960  0.35580  0.51261  Biso   1.000  Fe
  Fe11     1.0000 0.35400  0.29382  0.57690  Biso   1.000  Fe
  Fe12     1.0000 0.42470  0.25265  0.34462  Biso   1.000  Fe
  Fe13     1.0000 0.24530  0.25486  0.32327  Biso   1.000  Fe
  Fe14     1.0000 0.33210  0.17286  0.39710  Biso   1.000  Fe
  Fe15     1.0000 0.28080  0.34312  0.03344  Biso   1.000  Fe
  Fe16     1.0000 0.21220  0.26786  0.11848  Biso   1.000  Fe
  Fe17     1.0000 0.38290  0.29733  0.14471  Biso   1.000  Fe
  Fe18     1.0000 0.34160  0.22842  0.04872  Biso   1.000  Fe
  Fe19     1.0000 0.17400  0.44509  0.00202  Biso   1.000  Fe
  Fe20     1.0000 0.34760  0.44795  0.99390  Biso   1.000  Fe
  Fe21     1.0000 0.23370  0.38536  0.91139  Biso   1.000  Fe
  Fe22     1.0000 0.21100  0.71864  0.09391  Biso   1.000  Fe
  Fe23     1.0000 0.24230  0.71050  0.96906  Biso   1.000  Fe
  Fe24     1.0000 0.13130  0.63117  0.01147  Biso   1.000  Fe
  Fe25     1.0000 0.30820  0.62670  0.04488  Biso   1.000  Fe
  Fe26     1.0000 0.16420  0.82490  0.14015  Biso   1.000  Fe
  Fe27     1.0000 0.12550  0.73391  0.20337  Biso   1.000  Fe
  Fe28     1.0000 0.29670  0.76139  0.21160  Biso   1.000  Fe
  O1       1.0000 0.51870  0.59230  0.48980  Biso   1.000  O
  O2       1.0000 0.44490  0.55740  0.53460  Biso   1.000  O
  O3       1.0000 0.33980  0.62030  0.53010  Biso   1.000  O
  O4       1.0000 0.28660  0.65660  0.44750  Biso   1.000  O
  O5       1.0000 0.37150  0.66670  0.37880  Biso   1.000  O
  O6       1.0000 0.43300  0.60130  0.39380  Biso   1.000  O
  O7       1.0000 0.04690  0.55150  0.39040  Biso   1.000  O
  O8       1.0000 0.10000  0.52600  0.45650  Biso   1.000  O
  O9       1.0000 0.17590  0.59740  0.48050  Biso   1.000  O
  O10      1.0000 0.12630  0.67410  0.45810  Biso   1.000  O
  O11      1.0000 0.94870  0.63270  0.39650  Biso   1.000  O
  O12      1.0000 0.02950  0.67930  0.37650  Biso   1.000  O
  O13      1.0000 0.17240  0.66110  0.65730  Biso   1.000  O
  O14      1.0000 0.12890  0.72830  0.65050  Biso   1.000  O
  O15      1.0000 0.18210  0.65240  0.56620  Biso   1.000  O
  O16      1.0000 0.26690  0.71330  0.53010  Biso   1.000  O
  O17      1.0000 0.25580  0.79440  0.56060  Biso   1.000  O
  O18      1.0000 0.28000  0.77490  0.63730  Biso   1.000  O
  O19      1.0000 0.36710  0.49660  0.58670  Biso   1.000  O
  O20      1.0000 0.39570  0.43160  0.55830  Biso   1.000  O
  O21      1.0000 0.27360  0.52710  0.50430  Biso   1.000  O
  O22      1.0000 0.26680  0.40720  0.48150  Biso   1.000  O
  O23      1.0000 0.15370  0.48050  0.54650  Biso   1.000  O
  O24      1.0000 0.17570  0.41080  0.55110  Biso   1.000  O
  O25      1.0000 0.31560  0.77880  0.28240  Biso   1.000  O
  O26      1.0000 0.32090  0.75200  0.35540  Biso   1.000  O
  O27      1.0000 0.23200  0.71360  0.23960  Biso   1.000  O
  O28      1.0000 0.19980  0.69210  0.36500  Biso   1.000  O
  O29      1.0000 0.10010  0.75670  0.34550  Biso   1.000  O
  O30      1.0000 0.09970  0.75540  0.26820  Biso   1.000  O
  O31      1.0000 0.01390  0.32900  0.41620  Biso   1.000  O
  O32      1.0000 0.10510  0.36470  0.47160  Biso   1.000  O
  O33      1.0000 0.21930  0.30680  0.46660  Biso   1.000  O
  O34      1.0000 0.25570  0.28930  0.38120  Biso   1.000  O
  O35      1.0000 0.09300  0.35210  0.32640  Biso   1.000  O
  O36      1.0000 0.15590  0.29670  0.30460  Biso   1.000  O
  O37      1.0000 0.47150  0.42160  0.39580  Biso   1.000  O
  O38      1.0000 0.43850  0.42060  0.46450  Biso   1.000  O
  O39      1.0000 0.36790  0.34470  0.45550  Biso   1.000  O
  O40      1.0000 0.42970  0.28080  0.41050  Biso   1.000  O
  O41      1.0000 0.50660  0.29930  0.34080  Biso   1.000  O
  O42      1.0000 0.58600  0.34980  0.38840  Biso   1.000  O
  O43      1.0000 0.29360  0.12840  0.52410  Biso   1.000  O
  O44      1.0000 0.32250  0.13130  0.45360  Biso   1.000  O
  O45      1.0000 0.30210  0.21610  0.44790  Biso   1.000  O
  O46      1.0000 0.37460  0.26540  0.51830  Biso   1.000  O
  O47      1.0000 0.39370  0.23380  0.60330  Biso   1.000  O
  O48      1.0000 0.42860  0.16940  0.58260  Biso   1.000  O
  O49      1.0000 0.21740  0.22860  0.17780  Biso   1.000  O
  O50      1.0000 0.22910  0.22940  0.25880  Biso   1.000  O
  O51      1.0000 0.28160  0.30490  0.17280  Biso   1.000  O
  O52      1.0000 0.33440  0.28840  0.30300  Biso   1.000  O
  O53      1.0000 0.42500  0.25640  0.19990  Biso   1.000  O
  O54      1.0000 0.43820  0.23670  0.27440  Biso   1.000  O
  O55      1.0000 0.21710  0.26110  0.86620  Biso   1.000  O
  O56      1.0000 0.22330  0.33230  0.86920  Biso   1.000  O
  O57      1.0000 0.23710  0.33960  0.96440  Biso   1.000  O
  O58      1.0000 0.33600  0.28730  0.01470  Biso   1.000  O
  O59      1.0000 0.39240  0.23680  0.92110  Biso   1.000  O
  O60      1.0000 0.36340  0.20960  0.98530  Biso   1.000  O
  O61      1.0000 0.46930  0.41780  0.16900  Biso   1.000  O
  O62      1.0000 0.44230  0.34980  0.17990  Biso   1.000  O
  O63      1.0000 0.34280  0.34520  0.09780  Biso   1.000  O
  O64      1.0000 0.36500  0.38910  0.02290  Biso   1.000  O
  O65      1.0000 0.44840  0.46070  0.03880  Biso   1.000  O
  O66      1.0000 0.55250  0.43310  0.08440  Biso   1.000  O
  O67      1.0000 0.10380  0.45220  0.05520  Biso   1.000  O
  O68      1.0000 0.05490  0.41940  0.10850  Biso   1.000  O
  O69      1.0000 0.21430  0.39380  0.04160  Biso   1.000  O
  O70      1.0000 0.19090  0.31220  0.06400  Biso   1.000  O
  O71      1.0000 0.11150  0.29300  0.13060  Biso   1.000  O
  O72      1.0000 0.99600  0.33080  0.09850  Biso   1.000  O
  O73      1.0000 0.12360  0.57690  0.97080  Biso   1.000  O
  O74      1.0000 0.13240  0.50130  0.97050  Biso   1.000  O
  O75      1.0000 0.21320  0.59000  0.05390  Biso   1.000  O
  O76      1.0000 0.27530  0.47660  0.03610  Biso   1.000  O
  O77      1.0000 0.33790  0.57880  0.99930  Biso   1.000  O
  O78      1.0000 0.34680  0.51320  0.97640  Biso   1.000  O
  O79      1.0000 0.25350  0.77010  0.94780  Biso   1.000  O
  O80      1.0000 0.24970  0.74050  0.03580  Biso   1.000  O
  O81      1.0000 0.16300  0.77990  0.08940  Biso   1.000  O
  O82      1.0000 0.10160  0.86360  0.00610  Biso   1.000  O
  O83      1.0000 0.14390  0.86260  0.08180  Biso   1.000  O
  O84      1.0000 0.50700  0.70050  0.19910  Biso   1.000  O
  O85      1.0000 0.40260  0.73010  0.23000  Biso   1.000  O
  O86      1.0000 0.30680  0.73720  0.14490  Biso   1.000  O
  O87      1.0000 0.28150  0.66590  0.09620  Biso   1.000  O
  O88      1.0000 0.43800  0.61200  0.17660  Biso   1.000  O
  O89      1.0000 0.38080  0.60180  0.09830  Biso   1.000  O
  O90      1.0000 0.93430  0.63300  0.07330  Biso   1.000  O
  O91      1.0000 0.03120  0.61030  0.03760  Biso   1.000  O
  O92      1.0000 0.11890  0.68120  0.05750  Biso   1.000  O
  O93      1.0000 0.15570  0.70050  0.14660  Biso   1.000  O
  O94      1.0000 0.06120  0.67880  0.20830  Biso   1.000  O
  O95      1.0000 0.02220  0.61390  0.16920  Biso   1.000  O
  O96      1.0000 0.36830  0.78300  0.49590  Biso   1.000  O
  O97      1.0000 0.40270  0.73100  0.44670  Biso   1.000  O
  O98      1.0000 0.11860  0.77530  0.50480  Biso   1.000  O
  O99      1.0000 0.04940  0.75910  0.42970  Biso   1.000  O
  O100     1.0000 0.23120  0.83320  0.47000  Biso   1.000  O
  O101     1.0000 0.20030  0.88290  0.41630  Biso   1.000  O
  O102     1.0000 0.06010  0.55580  0.53830  Biso   1.000  O
  O103     1.0000 0.07880  0.59420  0.60850  Biso   1.000  O
  O104     1.0000 0.32510  0.62670  0.64970  Biso   1.000  O
  O105     1.0000 0.40640  0.57860  0.62750  Biso   1.000  O
  O106     1.0000 0.21130  0.50530  0.71580  Biso   1.000  O
  O107     1.0000 0.21520  0.57030  0.67960  Biso   1.000  O
  O108     1.0000 0.23960  0.26490  0.57290  Biso   1.000  O
  O109     1.0000 0.14790  0.32040  0.55590  Biso   1.000  O
  O110     1.0000 0.45400  0.17470  0.42480  Biso   1.000  O
  O111     1.0000 0.51370  0.20960  0.36850  Biso   1.000  O
  O112     1.0000 0.15390  0.21440  0.33960  Biso   1.000  O
  O113     1.0000 0.21540  0.15450  0.37530  Biso   1.000  O
  O114     1.0000 0.37150  0.12130  0.36550  Biso   1.000  O
  O115     1.0000 0.49140  0.36420  0.54140  Biso   1.000  O
  O116     1.0000 0.47730  0.31760  0.59480  Biso   1.000  O
  O117     1.0000 0.33970  0.31190  0.64580  Biso   1.000  O
  O118     1.0000 0.29790  0.34990  0.70240  Biso   1.000  O
  O119     1.0000 0.49090  0.28680  0.12090  Biso   1.000  O
  O120     1.0000 0.46780  0.23410  0.06970  Biso   1.000  O
  O121     1.0000 0.22490  0.21140  0.01960  Biso   1.000  O
  O122     1.0000 0.15350  0.21960  0.08330  Biso   1.000  O
  O123     1.0000 0.34990  0.37900  0.90780  Biso   1.000  O
  O124     1.0000 0.41870  0.43910  0.94500  Biso   1.000  O
  O125     1.0000 0.07360  0.42000  0.96160  Biso   1.000  O
  O126     1.0000 0.11860  0.38790  0.89460  Biso   1.000  O
  O127     1.0000 0.35700  0.16540  0.07040  Biso   1.000  O
  O128     1.0000 0.23410  0.42230  0.85260  Biso   1.000  O
  O129     1.0000 0.20520  0.48290  0.81600  Biso   1.000  O
  O130     1.0000 0.11460  0.72690  0.95250  Biso   1.000  O
  O131     1.0000 0.05380  0.65910  0.95570  Biso   1.000  O
  O132     1.0000 0.36730  0.70660  0.97510  Biso   1.000  O
  O133     1.0000 0.40760  0.66270  0.03100  Biso   1.000  O
  O134     1.0000 0.04340  0.82130  0.14110  Biso   1.000  O
  O135     1.0000 0.01860  0.75820  0.16910  Biso   1.000  O
  O136     1.0000 0.27920  0.84520  0.13960  Biso   1.000  O
  O137     1.0000 0.35650  0.81820  0.20300  Biso   1.000  O
  O138     1.0000 0.22870  0.69420  0.90290  Biso   1.000  O
  O139     1.0000 0.22500  0.64070  0.84320  Biso   1.000  O
  O140     1.0000 0.22250  0.74210  0.43710  Biso   1.000  O
  O141     1.0000 0.23660  0.56960  0.57910  Biso   1.000  O
  O142     1.0000 0.31810  0.34530  0.54330  Biso   1.000  O
  O143     1.0000 0.33020  0.21890  0.35130  Biso   1.000  O
  O144     1.0000 0.31320  0.25520  0.10700  Biso   1.000  O
  O145     1.0000 0.24560  0.43160  0.95710  Biso   1.000  O
  O146     1.0000 0.22960  0.65560  0.99570  Biso   1.000  O
  O147     1.0000 0.18920  0.78150  0.18680  Biso   1.000  O
  C1       1.0000 0.45870  0.58580  0.50980  Biso   1.000  C
  C2       1.0000 0.39520  0.62140  0.49360  Biso   1.000  C
  H1       1.0000 0.42420  0.64940  0.49780  Biso   1.000  H
  C3       1.0000 0.33840  0.62380  0.44480  Biso   1.000  C
  H2       1.0000 0.30770  0.59640  0.43940  Biso   1.000  H
  C4       1.0000 0.38320  0.63200  0.40280  Biso   1.000  C
  C5       1.0000 0.09610  0.55400  0.43300  Biso   1.000  C
  C6       1.0000 0.12640  0.60020  0.43940  Biso   1.000  C
  H3       1.0000 0.15860  0.60680  0.41410  Biso   1.000  H
  C7       1.0000 0.07230  0.63920  0.44510  Biso   1.000  C
  H4       1.0000 0.04460  0.63310  0.47260  Biso   1.000  H
  C8       1.0000 0.00890  0.65350  0.40470  Biso   1.000  C
  C9       1.0000 0.15740  0.69710  0.63120  Biso   1.000  C
  C10      1.0000 0.17510  0.69750  0.58140  Biso   1.000  C
  H5       1.0000 0.13150  0.71260  0.56000  Biso   1.000  H
  C11      1.0000 0.26030  0.71870  0.57780  Biso   1.000  C
  H6       1.0000 0.30310  0.70140  0.59730  Biso   1.000  H
  C12      1.0000 0.26390  0.76600  0.59730  Biso   1.000  C
  C13      1.0000 0.35870  0.46730  0.55270  Biso   1.000  C
  C14      1.0000 0.30570  0.48310  0.50490  Biso   1.000  C
  H7       1.0000 0.34050  0.48170  0.48010  Biso   1.000  H
  C15      1.0000 0.23770  0.44710  0.49190  Biso   1.000  C
  H8       1.0000 0.20070  0.45720  0.46340  Biso   1.000  H
  C16      1.0000 0.18870  0.44630  0.53460  Biso   1.000  C
  C17      1.0000 0.30260  0.74890  0.31240  Biso   1.000  C
  C18      1.0000 0.25160  0.70960  0.29210  Biso   1.000  C
  H9       1.0000 0.28670  0.68380  0.29860  Biso   1.000  H
  C19      1.0000 0.17710  0.70140  0.31630  Biso   1.000  C
  H10      1.0000 0.14680  0.67640  0.30070  Biso   1.000  H
  C20      1.0000 0.12200  0.74180  0.30960  Biso   1.000  C
  C21      1.0000 0.08710  0.33690  0.43970  Biso   1.000  C
  C22      1.0000 0.15740  0.30720  0.42800  Biso   1.000  C
  H11      1.0000 0.13670  0.27730  0.42220  Biso   1.000  H
  C23      1.0000 0.19860  0.32160  0.38540  Biso   1.000  C
  H12      1.0000 0.22730  0.34920  0.39360  Biso   1.000  H
  C24      1.0000 0.15030  0.32500  0.33330  Biso   1.000  C
  C25      1.0000 0.44280  0.39900  0.42680  Biso   1.000  C
  C26      1.0000 0.41290  0.35280  0.41700  Biso   1.000  C
  H13      1.0000 0.37550  0.35200  0.38630  Biso   1.000  H
  C27      1.0000 0.47620  0.31810  0.41730  Biso   1.000  C
  H14      1.0000 0.50950  0.31700  0.44930  Biso   1.000  H
  C28      1.0000 0.53160  0.32640  0.38060  Biso   1.000  C
  C29      1.0000 0.31100  0.14850  0.49210  Biso   1.000  C
  C30      1.0000 0.30930  0.19960  0.49150  Biso   1.000  C
  H15      1.0000 0.26180  0.20900  0.50550  Biso   1.000  H
  C31      1.0000 0.38530  0.21910  0.52200  Biso   1.000  C
  H16      1.0000 0.43240  0.21140  0.50670  Biso   1.000  H
  C32      1.0000 0.40430  0.20520  0.57450  Biso   1.000  C
  C33      1.0000 0.23350  0.24600  0.21620  Biso   1.000  C
  C34      1.0000 0.26960  0.29190  0.21920  Biso   1.000  C
  H17      1.0000 0.22920  0.31170  0.22930  Biso   1.000  H
  C35      1.0000 0.34810  0.29560  0.25620  Biso   1.000  C
  H18      1.0000 0.37290  0.32440  0.25390  Biso   1.000  H
  C36      1.0000 0.40540  0.26010  0.24400  Biso   1.000  C
  C37      1.0000 0.22700  0.29680  0.88900  Biso   1.000  C
  C38      1.0000 0.25170  0.29840  0.94530  Biso   1.000  C
  H19      1.0000 0.21560  0.27780  0.95830  Biso   1.000  H
  C39      1.0000 0.33820  0.28590  0.96750  Biso   1.000  C
  H20      1.0000 0.37740  0.30720  0.95890  Biso   1.000  H
  C40      1.0000 0.36020  0.23960  0.95330  Biso   1.000  C
  C41      1.0000 0.44060  0.38210  0.15130  Biso   1.000  C
  C42      1.0000 0.38310  0.38810  0.10440  Biso   1.000  C
  H21      1.0000 0.34440  0.41220  0.10560  Biso   1.000  H
  C43      1.0000 0.42280  0.38910  0.05820  Biso   1.000  C
  H22      1.0000 0.45540  0.36250  0.05700  Biso   1.000  H
  C44      1.0000 0.48000  0.43030  0.05890  Biso   1.000  C
  C45      1.0000 0.10020  0.42110  0.07970  Biso   1.000  C
  C46      1.0000 0.16440  0.38390  0.07600  Biso   1.000  C
  H23      1.0000 0.19970  0.38180  0.10730  Biso   1.000  H
  C47      1.0000 0.12360  0.33820  0.06460  Biso   1.000  C
  H24      1.0000 0.09110  0.33880  0.03240  Biso   1.000  H
  C48      1.0000 0.06870  0.32360  0.10130  Biso   1.000  C
  C49      1.0000 0.14760  0.54280  0.99260  Biso   1.000  C
  C50      1.0000 0.19980  0.54480  0.04200  Biso   1.000  C
  H25      1.0000 0.16970  0.53140  0.06540  Biso   1.000  H
  C51      1.0000 0.27870  0.52110  0.04320  Biso   1.000  C
  H26      1.0000 0.31420  0.52740  0.07370  Biso   1.000  H
  C52      1.0000 0.31830  0.53810  0.00270  Biso   1.000  C
  C53      1.0000 0.23600  0.78730  0.02990  Biso   1.000  C
  H27      1.0000 0.27690  0.80190  0.05350  Biso   1.000  H
  C54      1.0000 0.15450  0.79700  0.04350  Biso   1.000  C
  H28      1.0000 0.10990  0.78320  0.02170  Biso   1.000  H
  C55      1.0000 0.15000  0.84660  0.04140  Biso   1.000  C
  C56      1.0000 0.43030  0.70890  0.19690  Biso   1.000  C
  C57      1.0000 0.36190  0.70830  0.15190  Biso   1.000  C
  H29      1.0000 0.39260  0.71400  0.12560  Biso   1.000  H
  C58      1.0000 0.33260  0.66240  0.14170  Biso   1.000  C
  H30      1.0000 0.29770  0.65490  0.16540  Biso   1.000  H
  C59      1.0000 0.38990  0.62310  0.13820  Biso   1.000  C
  C60      1.0000 0.00130  0.63890  0.06430  Biso   1.000  C
  C61      1.0000 0.06050  0.67280  0.08560  Biso   1.000  C
  H31      1.0000 0.03010  0.70000  0.08810  Biso   1.000  H
  C62      1.0000 0.10620  0.66180  0.13580  Biso   1.000  C
  H32      1.0000 0.14360  0.63790  0.13170  Biso   1.000  H
  C63      1.0000 0.05510  0.64640  0.17110  Biso   1.000  C
  C64      1.0000 0.41260  0.76150  0.47400  Biso   1.000  C
  H33      1.0000 0.46640  0.77100  0.47980  Biso   1.000  H
  C65      1.0000 0.05190  0.77350  0.46290  Biso   1.000  C
  H34      1.0000 0.00430  0.78790  0.46740  Biso   1.000  H
  C66      1.0000 0.20900  0.84920  0.42540  Biso   1.000  C
  H35      1.0000 0.19930  0.82910  0.40040  Biso   1.000  H
  C67      1.0000 0.03480  0.57260  0.57070  Biso   1.000  C
  H36      1.0000 0.97880  0.57100  0.57030  Biso   1.000  H
  C68      1.0000 0.38930  0.60590  0.65120  Biso   1.000  C
  H37      1.0000 0.43050  0.61400  0.67590  Biso   1.000  H
  C69      1.0000 0.20600  0.52940  0.68090  Biso   1.000  C
  H38      1.0000 0.19270  0.51570  0.65120  Biso   1.000  H
  C70      1.0000 0.17490  0.28080  0.56950  Biso   1.000  C
  H39      1.0000 0.13500  0.26230  0.57790  Biso   1.000  H
  C71      1.0000 0.51280  0.18940  0.40640  Biso   1.000  C
  H40      1.0000 0.56400  0.18420  0.42430  Biso   1.000  H
  C72      1.0000 0.14970  0.17630  0.35520  Biso   1.000  C
  H41      1.0000 0.09900  0.16290  0.35260  Biso   1.000  H
  C73      1.0000 0.52030  0.34390  0.57220  Biso   1.000  C
  H42      1.0000 0.57630  0.34580  0.58220  Biso   1.000  H
  C74      1.0000 0.32200  0.35210  0.66000  Biso   1.000  C
  H43      1.0000 0.32540  0.37770  0.64270  Biso   1.000  H
  C75      1.0000 0.50700  0.26160  0.09460  Biso   1.000  C
  H44      1.0000 0.56190  0.26190  0.09140  Biso   1.000  H
  C76      1.0000 0.16900  0.21030  0.04300  Biso   1.000  C
  H45      1.0000 0.12260  0.19870  0.02430  Biso   1.000  H
  C77      1.0000 0.39900  0.40000  0.91500  Biso   1.000  C
  H46      1.0000 0.44140  0.39230  0.89850  Biso   1.000  H
  C78      1.0000 0.06000  0.39800  0.92100  Biso   1.000  C
  H47      1.0000 0.00700  0.38870  0.90980  Biso   1.000  H
  C79      1.0000 0.33500  0.16210  0.11070  Biso   1.000  C
  H48      1.0000 0.29270  0.17850  0.11920  Biso   1.000  H
  C80      1.0000 0.22800  0.46110  0.85400  Biso   1.000  C
  H49      1.0000 0.24120  0.47550  0.88330  Biso   1.000  H
  C81      1.0000 0.05900  0.70060  0.93850  Biso   1.000  C
  H50      1.0000 0.01700  0.70990  0.91460  Biso   1.000  H
  C82      1.0000 0.42100  0.68830  0.00430  Biso   1.000  C
  H51      1.0000 0.47510  0.69610  0.00410  Biso   1.000  H
  C83      1.0000 0.99500  0.79110  0.14980  Biso   1.000  C
  H52      1.0000 0.93920  0.79510  0.14070  Biso   1.000  H
  C84      1.0000 0.34200  0.84190  0.16770  Biso   1.000  C
  H53      1.0000 0.38470  0.85950  0.16160  Biso   1.000  H
  C85      1.0000 0.22300  0.65680  0.88880  Biso   1.000  C
  H54      1.0000 0.21530  0.63600  0.91180  Biso   1.000  H
  C86      1.0000 0.35400  0.12450  0.31810  Biso   1.000  C
  H55      1.0000 0.32230  0.14460  0.29880  Biso   1.000  H
  O148     1.0000 0.24600  0.84420  0.97650  Biso   1.000  O
  O149     1.0000 0.39800  0.09010  0.30630  Biso   1.000  O
  O150     1.0000 0.37400  0.13520  0.13870  Biso   1.000  O
  C87      1.0000 0.25600  0.79910  0.97970  Biso   1.000  C
  Ba1      1.0000 0.59176  0.58135  0.40908  Biso   1.000  Ba
  Ba2      1.0000 0.25988  0.86804  0.63246  Biso   1.000  Ba
  Ba3      1.0000 0.24504  0.42345  0.74434  Biso   1.000  Ba
  Ba4      1.0000 0.36970  0.04512  0.43271  Biso   1.000  Ba
  Ba5      1.0000 0.22120  0.57094  0.78884  Biso   1.000  Ba
  Ba6      1.0000 0.13350  0.93165  0.49094  Biso   1.000  Ba
  Ba7      1.0000 0.11830  0.89563  0.91739  Biso   1.000  Ba
  Ba8      1.0000 0.40310  0.23700  0.71278  Biso   1.000  Ba
  Ba9      1.0000 0.16990  0.70570  0.75694  Biso   1.000  Ba
  Ba10     1.0000 0.92130  0.56380  0.31650  Biso   1.000  Ba
  O151     1.0000 0.28910  0.89070  0.56910  Biso   1.000  O
  O152     1.0000 0.30070  0.64740  0.75090  Biso   1.000  O
  O153     1.0000 0.38020  0.93370  0.65010  Biso   1.000  O
  O154     1.0000 0.32100  0.03270  0.52160  Biso   1.000  O
  O155     1.0000 0.11160  0.63860  0.75100  Biso   1.000  O
  O156     1.0000 0.25000  0.26790  0.71900  Biso   1.000  O
  O157     1.0000 0.51020  0.28600  0.69410  Biso   1.000  O
  O158     1.0000 0.34500  0.18220  0.68000  Biso   1.000  O
  O159     1.0000 0.27100  0.72130  0.80840  Biso   1.000  O
  O160     1.0000 0.18600  0.95190  0.59300  Biso   1.000  O
  O161     1.0000 0.44200  0.30380  0.76130  Biso   1.000  O
  C88      1.0000 0.07780  0.97150  0.87530  Biso   1.000  C
  H56      1.0000 0.03510  0.96270  0.85180  Biso   1.000  H
  O162     1.0000 0.06820  0.98290  0.91760  Biso   1.000  O
  O163     1.0000 0.15470  0.97360  0.86850  Biso   1.000  O
  C89      1.0000 0.26600  0.97080  0.42260  Biso   1.000  C
  H57      1.0000 0.21440  0.97810  0.40590  Biso   1.000  H
  O164     1.0000 0.32500  0.96420  0.39950  Biso   1.000  O
  O165     1.0000 0.27600  0.96750  0.46900  Biso   1.000  O
  O166     1.0000 0.13220  0.79620  0.76850  Biso   1.000  O
  O167     1.0000 0.48700  0.50530  0.39500  Biso   1.000  O
  O168     1.0000 0.20800  0.91500  0.71500  Biso   1.000  O
  O169     1.0000 0.38460  0.14930  0.75860  Biso   1.000  O
  O170     1.0000 0.12180  0.86120  0.55710  Biso   1.000  O
  O171     1.0000 0.28500  0.01110  0.34370  Biso   1.000  O
  O172     1.0000 0.56220  0.46050  0.24940  Biso   1.000  O
  C90      1.0000 0.90500  0.39700  0.35300  Biso   1.000  C
  H58      1.0000 0.90730  0.37700  0.37750  Biso   1.000  H
  O173     1.0000 0.96400  0.40500  0.32800  Biso   1.000  O
  O174     1.0000 0.84200  0.42200  0.33700  Biso   1.000  O
  C91      1.0000 0.63500  0.46200  0.37300  Biso   1.000  C
  H59      1.0000 0.61900  0.49090  0.37320  Biso   1.000  H
  O175     1.0000 0.65800  0.44400  0.33500  Biso   1.000  O
  O176     1.0000 0.63600  0.43600  0.41000  Biso   1.000  O
  C92      1.0000 0.60800  0.58670  0.20010  Biso   1.000  C
  H60      1.0000 0.62620  0.56890  0.22650  Biso   1.000  H
  O177     1.0000 0.60900  0.63010  0.20270  Biso   1.000  O
  Ba11     1.0000 0.49780  0.18270  0.68430  Biso   1.000  Ba
  Ba12     1.0000 0.38040  0.28780  0.75060  Biso   1.000  Ba
  O178     1.0000 0.39300  0.19680  0.71070  Biso   1.000  O
  O179     1.0000 0.25700  0.28120  0.76710  Biso   1.000  O
  O180     1.0000 0.50700  0.50460  0.43940  Biso   1.000  O
  Ba13     1.0000 0.59090  0.42870  0.24870  Biso   1.000  Ba
  Ba14     1.0000 0.60010  0.48070  0.17700  Biso   1.000  Ba
  Ba15     1.0000 0.12210  0.72380  0.79960  Biso   1.000  Ba
  O181     1.0000 0.28600  0.76020  0.83660  Biso   1.000  O
  Ba16     1.0000 0.20490  0.93400  0.33310  Biso   1.000  Ba
  Ba17     1.0000 0.68140  0.58480  0.10930  Biso   1.000  Ba
  O182     1.0000 0.59000  0.65860  0.13840  Biso   1.000  O
  O183     1.0000 0.63500  0.66940  0.15840  Biso   1.000  O
  O184     1.0000 0.58170  0.57140  0.15830  Biso   1.000  O
  C93      1.0000 0.57000  0.57270  0.11240  Biso   1.000  C
  H61      1.0000 0.55030  0.58230  0.13960  Biso   1.000  H
  O185     1.0000 0.51800  0.55170  0.07930  Biso   1.000  O
  C94      1.0000 0.69400  0.48600  0.08600  Biso   1.000  C
  H62      1.0000 0.71960  0.45910  0.08260  Biso   1.000  H
  O186     1.0000 0.67400  0.49800  0.12700  Biso   1.000  O
  O187     1.0000 0.67700  0.51300  0.05000  Biso   1.000  O
  Ba18     1.0000 0.40400  0.07160  0.20560  Biso   1.000  Ba
  O188     1.0000 0.30500  0.89770  0.53290  Biso   1.000  O
  Fe29     1.0000 0.77040  0.15423  0.49547  Biso   1.000  Fe
  Fe30     1.0000 0.69840  0.20838  0.59386  Biso   1.000  Fe
  Fe31     1.0000 0.87680  0.21839  0.59377  Biso   1.000  Fe
  Fe32     1.0000 0.75600  0.27208  0.50580  Biso   1.000  Fe
  Fe33     1.0000 0.83080  0.04236  0.47791  Biso   1.000  Fe
  Fe34     1.0000 0.79700  0.10836  0.37987  Biso   1.000  Fe
  Fe35     1.0000 0.65840  0.06150  0.43832  Biso   1.000  Fe
  Fe36     1.0000 0.67590  0.78194  0.55295  Biso   1.000  Fe
  Fe37     1.0000 0.62070  0.88326  0.49068  Biso   1.000  Fe
  Fe38     1.0000 0.79040  0.85580  0.48739  Biso   1.000  Fe
  Fe39     1.0000 0.64600  0.79382  0.42310  Biso   1.000  Fe
  Fe40     1.0000 0.57530  0.75265  0.65538  Biso   1.000  Fe
  Fe41     1.0000 0.75470  0.75486  0.67673  Biso   1.000  Fe
  Fe42     1.0000 0.66790  0.67286  0.60290  Biso   1.000  Fe
  Fe43     1.0000 0.71920  0.84312  0.96656  Biso   1.000  Fe
  Fe44     1.0000 0.78780  0.76786  0.88152  Biso   1.000  Fe
  Fe45     1.0000 0.61710  0.79733  0.85529  Biso   1.000  Fe
  Fe46     1.0000 0.65840  0.72842  0.95128  Biso   1.000  Fe
  Fe47     1.0000 0.82600  0.94509  0.99798  Biso   1.000  Fe
  Fe48     1.0000 0.65240  0.94795  0.00610  Biso   1.000  Fe
  Fe49     1.0000 0.76630  0.88536  0.08861  Biso   1.000  Fe
  Fe50     1.0000 0.78900  0.21864  0.90609  Biso   1.000  Fe
  Fe51     1.0000 0.75770  0.21050  0.03094  Biso   1.000  Fe
  Fe52     1.0000 0.86870  0.13117  0.98853  Biso   1.000  Fe
  Fe53     1.0000 0.69180  0.12670  0.95512  Biso   1.000  Fe
  Fe54     1.0000 0.83580  0.32490  0.85985  Biso   1.000  Fe
  Fe55     1.0000 0.87450  0.23391  0.79663  Biso   1.000  Fe
  Fe56     1.0000 0.70330  0.26139  0.78840  Biso   1.000  Fe
  O189     1.0000 0.48130  0.09230  0.51020  Biso   1.000  O
  O190     1.0000 0.55510  0.05740  0.46540  Biso   1.000  O
  O191     1.0000 0.66020  0.12030  0.46990  Biso   1.000  O
  O192     1.0000 0.71340  0.15660  0.55250  Biso   1.000  O
  O193     1.0000 0.62850  0.16670  0.62120  Biso   1.000  O
  O194     1.0000 0.56700  0.10130  0.60620  Biso   1.000  O
  O195     1.0000 0.95310  0.05150  0.60960  Biso   1.000  O
  O196     1.0000 0.90000  0.02600  0.54350  Biso   1.000  O
  O197     1.0000 0.82410  0.09740  0.51950  Biso   1.000  O
  O198     1.0000 0.87370  0.17410  0.54190  Biso   1.000  O
  O199     1.0000 0.05130  0.13270  0.60350  Biso   1.000  O
  O200     1.0000 0.97050  0.17930  0.62350  Biso   1.000  O
  O201     1.0000 0.82760  0.16110  0.34270  Biso   1.000  O
  O202     1.0000 0.87110  0.22830  0.34950  Biso   1.000  O
  O203     1.0000 0.81790  0.15240  0.43380  Biso   1.000  O
  O204     1.0000 0.73310  0.21330  0.46990  Biso   1.000  O
  O205     1.0000 0.74420  0.29440  0.43940  Biso   1.000  O
  O206     1.0000 0.72000  0.27490  0.36270  Biso   1.000  O
  O207     1.0000 0.63290  0.99660  0.41330  Biso   1.000  O
  O208     1.0000 0.60430  0.93160  0.44170  Biso   1.000  O
  O209     1.0000 0.72640  0.02710  0.49570  Biso   1.000  O
  O210     1.0000 0.73320  0.90720  0.51850  Biso   1.000  O
  O211     1.0000 0.84630  0.98050  0.45350  Biso   1.000  O
  O212     1.0000 0.82430  0.91080  0.44890  Biso   1.000  O
  O213     1.0000 0.68440  0.27880  0.71760  Biso   1.000  O
  O214     1.0000 0.67910  0.25200  0.64460  Biso   1.000  O
  O215     1.0000 0.76800  0.21360  0.76040  Biso   1.000  O
  O216     1.0000 0.80020  0.19210  0.63500  Biso   1.000  O
  O217     1.0000 0.89990  0.25670  0.65450  Biso   1.000  O
  O218     1.0000 0.90030  0.25540  0.73180  Biso   1.000  O
  O219     1.0000 0.98610  0.82900  0.58380  Biso   1.000  O
  O220     1.0000 0.89490  0.86470  0.52840  Biso   1.000  O
  O221     1.0000 0.78070  0.80680  0.53340  Biso   1.000  O
  O222     1.0000 0.74430  0.78930  0.61880  Biso   1.000  O
  O223     1.0000 0.90700  0.85210  0.67360  Biso   1.000  O
  O224     1.0000 0.84410  0.79670  0.69540  Biso   1.000  O
  O225     1.0000 0.52850  0.92160  0.60420  Biso   1.000  O
  O226     1.0000 0.56150  0.92060  0.53550  Biso   1.000  O
  O227     1.0000 0.63210  0.84470  0.54450  Biso   1.000  O
  O228     1.0000 0.57030  0.78080  0.58950  Biso   1.000  O
  O229     1.0000 0.49340  0.79930  0.65920  Biso   1.000  O
  O230     1.0000 0.41400  0.84980  0.61160  Biso   1.000  O
  O231     1.0000 0.70640  0.62840  0.47590  Biso   1.000  O
  O232     1.0000 0.67750  0.63130  0.54640  Biso   1.000  O
  O233     1.0000 0.69790  0.71610  0.55210  Biso   1.000  O
  O234     1.0000 0.62540  0.76540  0.48170  Biso   1.000  O
  O235     1.0000 0.60630  0.73380  0.39670  Biso   1.000  O
  O236     1.0000 0.57140  0.66940  0.41740  Biso   1.000  O
  O237     1.0000 0.78260  0.72860  0.82220  Biso   1.000  O
  O238     1.0000 0.77090  0.72940  0.74120  Biso   1.000  O
  O239     1.0000 0.71840  0.80490  0.82720  Biso   1.000  O
  O240     1.0000 0.66560  0.78840  0.69700  Biso   1.000  O
  O241     1.0000 0.57500  0.75640  0.80010  Biso   1.000  O
  O242     1.0000 0.56180  0.73670  0.72560  Biso   1.000  O
  O243     1.0000 0.78290  0.76110  0.13380  Biso   1.000  O
  O244     1.0000 0.77670  0.83230  0.13080  Biso   1.000  O
  O245     1.0000 0.76290  0.83960  0.03560  Biso   1.000  O
  O246     1.0000 0.66400  0.78730  0.98530  Biso   1.000  O
  O247     1.0000 0.60760  0.73680  0.07890  Biso   1.000  O
  O248     1.0000 0.63660  0.70960  0.01470  Biso   1.000  O
  O249     1.0000 0.53070  0.91780  0.83100  Biso   1.000  O
  O250     1.0000 0.55770  0.84980  0.82010  Biso   1.000  O
  O251     1.0000 0.65720  0.84520  0.90220  Biso   1.000  O
  O252     1.0000 0.63500  0.88910  0.97710  Biso   1.000  O
  O253     1.0000 0.55160  0.96070  0.96120  Biso   1.000  O
  O254     1.0000 0.44750  0.93310  0.91560  Biso   1.000  O
  O255     1.0000 0.89620  0.95220  0.94480  Biso   1.000  O
  O256     1.0000 0.94510  0.91940  0.89150  Biso   1.000  O
  O257     1.0000 0.78570  0.89380  0.95840  Biso   1.000  O
  O258     1.0000 0.80910  0.81220  0.93600  Biso   1.000  O
  O259     1.0000 0.88850  0.79300  0.86940  Biso   1.000  O
  O260     1.0000 0.00400  0.83080  0.90150  Biso   1.000  O
  O261     1.0000 0.87640  0.07690  0.02920  Biso   1.000  O
  O262     1.0000 0.86760  0.00130  0.02950  Biso   1.000  O
  O263     1.0000 0.78680  0.09000  0.94610  Biso   1.000  O
  O264     1.0000 0.72470  0.97660  0.96390  Biso   1.000  O
  O265     1.0000 0.66210  0.07880  0.00070  Biso   1.000  O
  O266     1.0000 0.65320  0.01320  0.02360  Biso   1.000  O
  O267     1.0000 0.74650  0.27010  0.05220  Biso   1.000  O
  O268     1.0000 0.75030  0.24050  0.96420  Biso   1.000  O
  O269     1.0000 0.83700  0.27990  0.91060  Biso   1.000  O
  O270     1.0000 0.89840  0.36360  0.99390  Biso   1.000  O
  O271     1.0000 0.85610  0.36260  0.91820  Biso   1.000  O
  O272     1.0000 0.49300  0.20050  0.80090  Biso   1.000  O
  O273     1.0000 0.59740  0.23010  0.77000  Biso   1.000  O
  O274     1.0000 0.69320  0.23720  0.85510  Biso   1.000  O
  O275     1.0000 0.71850  0.16590  0.90380  Biso   1.000  O
  O276     1.0000 0.56200  0.11200  0.82340  Biso   1.000  O
  O277     1.0000 0.61920  0.10180  0.90170  Biso   1.000  O
  O278     1.0000 0.06570  0.13300  0.92670  Biso   1.000  O
  O279     1.0000 0.96880  0.11030  0.96240  Biso   1.000  O
  O280     1.0000 0.88110  0.18120  0.94250  Biso   1.000  O
  O281     1.0000 0.84430  0.20050  0.85340  Biso   1.000  O
  O282     1.0000 0.93880  0.17880  0.79170  Biso   1.000  O
  O283     1.0000 0.97780  0.11390  0.83080  Biso   1.000  O
  O284     1.0000 0.63170  0.28300  0.50410  Biso   1.000  O
  O285     1.0000 0.59730  0.23100  0.55330  Biso   1.000  O
  O286     1.0000 0.88140  0.27530  0.49520  Biso   1.000  O
  O287     1.0000 0.95060  0.25910  0.57030  Biso   1.000  O
  O288     1.0000 0.76880  0.33320  0.53000  Biso   1.000  O
  O289     1.0000 0.79970  0.38290  0.58370  Biso   1.000  O
  O290     1.0000 0.93990  0.05580  0.46170  Biso   1.000  O
  O291     1.0000 0.92120  0.09420  0.39150  Biso   1.000  O
  O292     1.0000 0.67490  0.12670  0.35030  Biso   1.000  O
  O293     1.0000 0.59360  0.07860  0.37250  Biso   1.000  O
  O294     1.0000 0.78870  0.00530  0.28420  Biso   1.000  O
  O295     1.0000 0.78480  0.07030  0.32040  Biso   1.000  O
  O296     1.0000 0.76040  0.76490  0.42710  Biso   1.000  O
  O297     1.0000 0.85210  0.82040  0.44410  Biso   1.000  O
  O298     1.0000 0.54600  0.67470  0.57520  Biso   1.000  O
  O299     1.0000 0.48630  0.70960  0.63150  Biso   1.000  O
  O300     1.0000 0.84610  0.71440  0.66040  Biso   1.000  O
  O301     1.0000 0.78460  0.65450  0.62470  Biso   1.000  O
  O302     1.0000 0.62850  0.62130  0.63450  Biso   1.000  O
  O303     1.0000 0.50860  0.86420  0.45860  Biso   1.000  O
  O304     1.0000 0.52270  0.81760  0.40520  Biso   1.000  O
  O305     1.0000 0.66030  0.81190  0.35420  Biso   1.000  O
  O306     1.0000 0.70210  0.84990  0.29760  Biso   1.000  O
  O307     1.0000 0.50910  0.78680  0.87910  Biso   1.000  O
  O308     1.0000 0.53220  0.73410  0.93030  Biso   1.000  O
  O309     1.0000 0.77510  0.71140  0.98040  Biso   1.000  O
  O310     1.0000 0.84650  0.71960  0.91670  Biso   1.000  O
  O311     1.0000 0.65010  0.87900  0.09220  Biso   1.000  O
  O312     1.0000 0.58130  0.93910  0.05500  Biso   1.000  O
  O313     1.0000 0.92640  0.92000  0.03840  Biso   1.000  O
  O314     1.0000 0.88140  0.88790  0.10540  Biso   1.000  O
  O315     1.0000 0.64300  0.66540  0.92960  Biso   1.000  O
  O316     1.0000 0.76590  0.92230  0.14740  Biso   1.000  O
  O317     1.0000 0.79480  0.98290  0.18400  Biso   1.000  O
  O318     1.0000 0.88540  0.22690  0.04750  Biso   1.000  O
  O319     1.0000 0.94620  0.15910  0.04430  Biso   1.000  O
  O320     1.0000 0.63270  0.20660  0.02490  Biso   1.000  O
  O321     1.0000 0.59240  0.16270  0.96900  Biso   1.000  O
  O322     1.0000 0.95660  0.32130  0.85890  Biso   1.000  O
  O323     1.0000 0.98140  0.25820  0.83090  Biso   1.000  O
  O324     1.0000 0.72080  0.34520  0.86040  Biso   1.000  O
  O325     1.0000 0.64350  0.31820  0.79700  Biso   1.000  O
  O326     1.0000 0.77130  0.19420  0.09710  Biso   1.000  O
  O327     1.0000 0.77500  0.14070  0.15680  Biso   1.000  O
  O328     1.0000 0.77750  0.24210  0.56290  Biso   1.000  O
  O329     1.0000 0.76340  0.06960  0.42090  Biso   1.000  O
  O330     1.0000 0.68190  0.84530  0.45670  Biso   1.000  O
  O331     1.0000 0.66980  0.71890  0.64870  Biso   1.000  O
  O332     1.0000 0.68680  0.75520  0.89300  Biso   1.000  O
  O333     1.0000 0.75440  0.93160  0.04290  Biso   1.000  O
  O334     1.0000 0.77040  0.15560  0.00430  Biso   1.000  O
  O335     1.0000 0.81080  0.28150  0.81320  Biso   1.000  O
  C95      1.0000 0.54130  0.08580  0.49020  Biso   1.000  C
  C96      1.0000 0.60480  0.12140  0.50640  Biso   1.000  C
  H63      1.0000 0.57580  0.14940  0.50220  Biso   1.000  H
  C97      1.0000 0.66160  0.12380  0.55520  Biso   1.000  C
  H64      1.0000 0.69230  0.09640  0.56060  Biso   1.000  H
  C98      1.0000 0.61680  0.13200  0.59720  Biso   1.000  C
  C99      1.0000 0.90390  0.05400  0.56700  Biso   1.000  C
  C100     1.0000 0.87360  0.10020  0.56060  Biso   1.000  C
  H65      1.0000 0.84140  0.10680  0.58590  Biso   1.000  H
  C101     1.0000 0.92770  0.13920  0.55490  Biso   1.000  C
  H66      1.0000 0.95540  0.13310  0.52740  Biso   1.000  H
  C102     1.0000 0.99110  0.15350  0.59530  Biso   1.000  C
  C103     1.0000 0.84260  0.19710  0.36880  Biso   1.000  C
  C104     1.0000 0.82490  0.19750  0.41860  Biso   1.000  C
  H67      1.0000 0.86850  0.21260  0.44000  Biso   1.000  H
  C105     1.0000 0.73970  0.21870  0.42220  Biso   1.000  C
  H68      1.0000 0.69690  0.20140  0.40270  Biso   1.000  H
  C106     1.0000 0.73610  0.26600  0.40270  Biso   1.000  C
  C107     1.0000 0.64130  0.96730  0.44730  Biso   1.000  C
  C108     1.0000 0.69430  0.98310  0.49510  Biso   1.000  C
  H69      1.0000 0.65950  0.98170  0.51990  Biso   1.000  H
  C109     1.0000 0.76230  0.94710  0.50810  Biso   1.000  C
  H70      1.0000 0.79930  0.95720  0.53660  Biso   1.000  H
  C110     1.0000 0.81130  0.94630  0.46540  Biso   1.000  C
  C111     1.0000 0.69740  0.24890  0.68760  Biso   1.000  C
  C112     1.0000 0.74840  0.20960  0.70790  Biso   1.000  C
  H71      1.0000 0.71330  0.18380  0.70140  Biso   1.000  H
  C113     1.0000 0.82290  0.20140  0.68370  Biso   1.000  C
  H72      1.0000 0.85320  0.17640  0.69930  Biso   1.000  H
  C114     1.0000 0.87800  0.24180  0.69040  Biso   1.000  C
  C115     1.0000 0.91290  0.83690  0.56030  Biso   1.000  C
  C116     1.0000 0.84260  0.80720  0.57200  Biso   1.000  C
  H73      1.0000 0.86330  0.77730  0.57780  Biso   1.000  H
  C117     1.0000 0.80140  0.82160  0.61460  Biso   1.000  C
  H74      1.0000 0.77270  0.84920  0.60640  Biso   1.000  H
  C118     1.0000 0.84970  0.82500  0.66670  Biso   1.000  C
  C119     1.0000 0.55720  0.89900  0.57320  Biso   1.000  C
  C120     1.0000 0.58710  0.85280  0.58300  Biso   1.000  C
  H75      1.0000 0.62450  0.85200  0.61370  Biso   1.000  H
  C121     1.0000 0.52380  0.81810  0.58270  Biso   1.000  C
  H76      1.0000 0.49050  0.81700  0.55070  Biso   1.000  H
  C122     1.0000 0.46840  0.82640  0.61940  Biso   1.000  C
  C123     1.0000 0.68900  0.64850  0.50790  Biso   1.000  C
  C124     1.0000 0.69070  0.69960  0.50850  Biso   1.000  C
  H77      1.0000 0.73820  0.70900  0.49450  Biso   1.000  H
  C125     1.0000 0.61470  0.71910  0.47800  Biso   1.000  C
  H78      1.0000 0.56760  0.71140  0.49330  Biso   1.000  H
  C126     1.0000 0.59570  0.70520  0.42550  Biso   1.000  C
  C127     1.0000 0.76650  0.74600  0.78380  Biso   1.000  C
  C128     1.0000 0.73040  0.79190  0.78080  Biso   1.000  C
  H79      1.0000 0.77080  0.81170  0.77070  Biso   1.000  H
  C129     1.0000 0.65190  0.79560  0.74380  Biso   1.000  C
  H80      1.0000 0.62710  0.82440  0.74610  Biso   1.000  H
  C130     1.0000 0.59460  0.76010  0.75600  Biso   1.000  C
  C131     1.0000 0.77300  0.79680  0.11100  Biso   1.000  C
  C132     1.0000 0.74830  0.79840  0.05470  Biso   1.000  C
  H81      1.0000 0.78440  0.77780  0.04170  Biso   1.000  H
  C133     1.0000 0.66180  0.78590  0.03250  Biso   1.000  C
  H82      1.0000 0.62260  0.80720  0.04110  Biso   1.000  H
  C134     1.0000 0.63980  0.73960  0.04670  Biso   1.000  C
  C135     1.0000 0.55940  0.88210  0.84870  Biso   1.000  C
  C136     1.0000 0.61690  0.88810  0.89560  Biso   1.000  C
  H83      1.0000 0.65560  0.91220  0.89440  Biso   1.000  H
  C137     1.0000 0.57720  0.88910  0.94180  Biso   1.000  C
  H84      1.0000 0.54460  0.86250  0.94300  Biso   1.000  H
  C138     1.0000 0.52000  0.93030  0.94110  Biso   1.000  C
  C139     1.0000 0.89980  0.92110  0.92030  Biso   1.000  C
  C140     1.0000 0.83560  0.88390  0.92400  Biso   1.000  C
  H85      1.0000 0.80030  0.88180  0.89270  Biso   1.000  H
  C141     1.0000 0.87640  0.83820  0.93540  Biso   1.000  C
  H86      1.0000 0.90890  0.83880  0.96760  Biso   1.000  H
  C142     1.0000 0.93130  0.82360  0.89870  Biso   1.000  C
  C143     1.0000 0.85240  0.04280  0.00740  Biso   1.000  C
  C144     1.0000 0.80020  0.04480  0.95800  Biso   1.000  C
  H87      1.0000 0.83030  0.03140  0.93460  Biso   1.000  H
  C145     1.0000 0.72130  0.02110  0.95680  Biso   1.000  C
  H88      1.0000 0.68580  0.02740  0.92630  Biso   1.000  H
  C146     1.0000 0.68170  0.03810  0.99730  Biso   1.000  C
  C147     1.0000 0.76400  0.28730  0.97010  Biso   1.000  C
  H89      1.0000 0.72310  0.30190  0.94650  Biso   1.000  H
  C148     1.0000 0.84550  0.29700  0.95650  Biso   1.000  C
  H90      1.0000 0.89010  0.28320  0.97830  Biso   1.000  H
  C149     1.0000 0.85000  0.34660  0.95860  Biso   1.000  C
  C150     1.0000 0.56970  0.20890  0.80310  Biso   1.000  C
  C151     1.0000 0.63810  0.20830  0.84810  Biso   1.000  C
  H91      1.0000 0.60740  0.21400  0.87440  Biso   1.000  H
  C152     1.0000 0.66740  0.16240  0.85830  Biso   1.000  C
  H92      1.0000 0.70230  0.15490  0.83460  Biso   1.000  H
  C153     1.0000 0.61010  0.12310  0.86180  Biso   1.000  C
  C154     1.0000 0.99870  0.13890  0.93570  Biso   1.000  C
  C155     1.0000 0.93950  0.17280  0.91440  Biso   1.000  C
  H93      1.0000 0.96990  0.20000  0.91190  Biso   1.000  H
  C156     1.0000 0.89380  0.16180  0.86420  Biso   1.000  C
  H94      1.0000 0.85640  0.13790  0.86830  Biso   1.000  H
  C157     1.0000 0.94490  0.14640  0.82890  Biso   1.000  C
  C158     1.0000 0.58740  0.26150  0.52600  Biso   1.000  C
  H95      1.0000 0.53360  0.27100  0.52020  Biso   1.000  H
  C159     1.0000 0.94810  0.27350  0.53710  Biso   1.000  C
  H96      1.0000 0.99570  0.28790  0.53260  Biso   1.000  H
  C160     1.0000 0.79100  0.34920  0.57460  Biso   1.000  C
  H97      1.0000 0.80070  0.32910  0.59960  Biso   1.000  H
  C161     1.0000 0.96520  0.07260  0.42930  Biso   1.000  C
  H98      1.0000 0.02120  0.07100  0.42970  Biso   1.000  H
  C162     1.0000 0.61070  0.10590  0.34880  Biso   1.000  C
  H99      1.0000 0.56950  0.11400  0.32410  Biso   1.000  H
  C163     1.0000 0.79400  0.02940  0.31910  Biso   1.000  C
  H100     1.0000 0.80730  0.01570  0.34880  Biso   1.000  H
  C164     1.0000 0.82510  0.78080  0.43050  Biso   1.000  C
  H101     1.0000 0.86500  0.76230  0.42210  Biso   1.000  H
  C165     1.0000 0.48720  0.68940  0.59360  Biso   1.000  C
  H102     1.0000 0.43600  0.68420  0.57570  Biso   1.000  H
  C166     1.0000 0.85030  0.67630  0.64480  Biso   1.000  C
  H103     1.0000 0.90100  0.66290  0.64740  Biso   1.000  H
  C167     1.0000 0.47970  0.84390  0.42780  Biso   1.000  C
  H104     1.0000 0.42370  0.84580  0.41780  Biso   1.000  H
  C168     1.0000 0.67800  0.85210  0.34000  Biso   1.000  C
  H105     1.0000 0.67460  0.87770  0.35730  Biso   1.000  H
  C169     1.0000 0.49300  0.76160  0.90540  Biso   1.000  C
  H106     1.0000 0.43810  0.76190  0.90860  Biso   1.000  H
  C170     1.0000 0.83100  0.71030  0.95700  Biso   1.000  C
  H107     1.0000 0.87740  0.69870  0.97570  Biso   1.000  H
  C171     1.0000 0.60100  0.90000  0.08500  Biso   1.000  C
  H108     1.0000 0.55860  0.89230  0.10150  Biso   1.000  H
  C172     1.0000 0.94000  0.89800  0.07900  Biso   1.000  C
  H109     1.0000 0.99300  0.88870  0.09020  Biso   1.000  H
  C173     1.0000 0.66500  0.66210  0.88930  Biso   1.000  C
  H110     1.0000 0.70730  0.67850  0.88080  Biso   1.000  H
  C174     1.0000 0.77200  0.96110  0.14600  Biso   1.000  C
  H111     1.0000 0.75880  0.97550  0.11670  Biso   1.000  H
  C175     1.0000 0.94100  0.20060  0.06150  Biso   1.000  C
  H112     1.0000 0.98300  0.20990  0.08540  Biso   1.000  H
  C176     1.0000 0.57900  0.18830  0.99570  Biso   1.000  C
  H113     1.0000 0.52490  0.19610  0.99590  Biso   1.000  H
  C177     1.0000 0.00500  0.29110  0.85020  Biso   1.000  C
  H114     1.0000 0.06080  0.29510  0.85930  Biso   1.000  H
  C178     1.0000 0.65800  0.34190  0.83230  Biso   1.000  C
  H115     1.0000 0.61530  0.35950  0.83840  Biso   1.000  H
  C179     1.0000 0.77700  0.15680  0.11120  Biso   1.000  C
  H116     1.0000 0.78470  0.13600  0.08820  Biso   1.000  H
  C180     1.0000 0.64600  0.62450  0.68190  Biso   1.000  C
  H117     1.0000 0.67770  0.64460  0.70120  Biso   1.000  H
  O336     1.0000 0.75400  0.34420  0.02350  Biso   1.000  O
  O337     1.0000 0.60200  0.59010  0.69370  Biso   1.000  O
  O338     1.0000 0.62600  0.63520  0.86130  Biso   1.000  O
  C181     1.0000 0.74400  0.29910  0.02030  Biso   1.000  C
  Ba19     1.0000 0.40824  0.08135  0.59092  Biso   1.000  Ba
  Ba20     1.0000 0.74012  0.36804  0.36754  Biso   1.000  Ba
  Ba21     1.0000 0.75496  0.92345  0.25566  Biso   1.000  Ba
  Ba22     1.0000 0.63030  0.54512  0.56729  Biso   1.000  Ba
  Ba23     1.0000 0.77880  0.07094  0.21116  Biso   1.000  Ba
  Ba24     1.0000 0.86650  0.43165  0.50906  Biso   1.000  Ba
  Ba25     1.0000 0.88170  0.39563  0.08261  Biso   1.000  Ba
  Ba26     1.0000 0.59690  0.73700  0.28722  Biso   1.000  Ba
  Ba27     1.0000 0.83010  0.20570  0.24306  Biso   1.000  Ba
  Ba28     1.0000 0.07870  0.06380  0.68350  Biso   1.000  Ba
  O339     1.0000 0.71090  0.39070  0.43090  Biso   1.000  O
  O340     1.0000 0.69930  0.14740  0.24910  Biso   1.000  O
  O341     1.0000 0.61980  0.43370  0.34990  Biso   1.000  O
  O342     1.0000 0.67900  0.53270  0.47840  Biso   1.000  O
  O343     1.0000 0.88840  0.13860  0.24900  Biso   1.000  O
  O344     1.0000 0.75000  0.76790  0.28100  Biso   1.000  O
  O345     1.0000 0.48980  0.78600  0.30590  Biso   1.000  O
  O346     1.0000 0.65500  0.68220  0.32000  Biso   1.000  O
  O347     1.0000 0.72900  0.22130  0.19160  Biso   1.000  O
  O348     1.0000 0.81400  0.45190  0.40700  Biso   1.000  O
  O349     1.0000 0.55800  0.80380  0.23870  Biso   1.000  O
  C182     1.0000 0.92220  0.47150  0.12470  Biso   1.000  C
  H118     1.0000 0.96490  0.46270  0.14820  Biso   1.000  H
  O350     1.0000 0.93180  0.48290  0.08240  Biso   1.000  O
  O351     1.0000 0.84530  0.47360  0.13150  Biso   1.000  O
  C183     1.0000 0.73400  0.47080  0.57740  Biso   1.000  C
  H119     1.0000 0.78560  0.47810  0.59410  Biso   1.000  H
  O352     1.0000 0.67500  0.46420  0.60050  Biso   1.000  O
  O353     1.0000 0.72400  0.46750  0.53100  Biso   1.000  O
  O354     1.0000 0.86780  0.29620  0.23150  Biso   1.000  O
  O355     1.0000 0.51300  0.00530  0.60500  Biso   1.000  O
  O356     1.0000 0.79200  0.41500  0.28500  Biso   1.000  O
  O357     1.0000 0.61540  0.64930  0.24140  Biso   1.000  O
  O358     1.0000 0.87820  0.36120  0.44290  Biso   1.000  O
  O359     1.0000 0.71500  0.51110  0.65630  Biso   1.000  O
  O360     1.0000 0.43780  0.96050  0.75060  Biso   1.000  O
  C184     1.0000 0.09500  0.89700  0.64700  Biso   1.000  C
  H120     1.0000 0.09270  0.87700  0.62250  Biso   1.000  H
  O361     1.0000 0.03600  0.90500  0.67200  Biso   1.000  O
  O362     1.0000 0.15800  0.92200  0.66300  Biso   1.000  O
  C185     1.0000 0.36500  0.96200  0.62700  Biso   1.000  C
  H121     1.0000 0.38100  0.99090  0.62680  Biso   1.000  H
  O363     1.0000 0.34200  0.94400  0.66500  Biso   1.000  O
  O364     1.0000 0.36400  0.93600  0.59000  Biso   1.000  O
  C186     1.0000 0.39200  0.08670  0.79990  Biso   1.000  C
  H122     1.0000 0.37380  0.06890  0.77350  Biso   1.000  H
  O365     1.0000 0.39100  0.13010  0.79730  Biso   1.000  O
  Ba29     1.0000 0.50220  0.68270  0.31570  Biso   1.000  Ba
  Ba30     1.0000 0.61960  0.78780  0.24940  Biso   1.000  Ba
  O366     1.0000 0.60700  0.69680  0.28930  Biso   1.000  O
  O367     1.0000 0.74300  0.78120  0.23290  Biso   1.000  O
  O368     1.0000 0.49300  0.00460  0.56060  Biso   1.000  O
  Ba31     1.0000 0.40910  0.92870  0.75130  Biso   1.000  Ba
  Ba32     1.0000 0.39990  0.98070  0.82300  Biso   1.000  Ba
  Ba33     1.0000 0.87790  0.22380  0.20040  Biso   1.000  Ba
  O369     1.0000 0.71400  0.26020  0.16340  Biso   1.000  O
  Ba34     1.0000 0.79510  0.43400  0.66690  Biso   1.000  Ba
  Ba35     1.0000 0.31860  0.08480  0.89070  Biso   1.000  Ba
  O370     1.0000 0.41000  0.15860  0.86160  Biso   1.000  O
  O371     1.0000 0.36500  0.16940  0.84160  Biso   1.000  O
  O372     1.0000 0.41830  0.07140  0.84170  Biso   1.000  O
  C187     1.0000 0.43000  0.07270  0.88760  Biso   1.000  C
  H123     1.0000 0.44970  0.08230  0.86040  Biso   1.000  H
  O373     1.0000 0.48200  0.05170  0.92070  Biso   1.000  O
  C188     1.0000 0.30600  0.98600  0.91400  Biso   1.000  C
  H124     1.0000 0.28040  0.95910  0.91740  Biso   1.000  H
  O374     1.0000 0.32600  0.99800  0.87300  Biso   1.000  O
  O375     1.0000 0.32300  0.01300  0.95000  Biso   1.000  O
  Ba36     1.0000 0.59600  0.57160  0.79440  Biso   1.000  Ba
  O376     1.0000 0.69500  0.39770  0.46710  Biso   1.000  O
