data_image0
_cell_length_a       25.457
_cell_length_b       21.8687
_cell_length_c       34.667
_cell_angle_alpha    90
_cell_angle_beta     108.143
_cell_angle_gamma    90

_symmetry_space_group_name_H-M    "P 1"
_symmetry_int_tables_number       1

loop_
  _symmetry_equiv_pos_as_xyz
  'x, y, z'

loop_
  _atom_site_label
  _atom_site_occupancy
  _atom_site_fract_x
  _atom_site_fract_y
  _atom_site_fract_z
  _atom_site_thermal_displace_type
  _atom_site_B_iso_or_equiv
  _atom_site_type_symbol
  W1       1.0000 0.41641  0.07051  0.26551  Biso   1.000  W
  W2       1.0000 0.54286  0.06126  0.33006  Biso   1.000  W
  W3       1.0000 0.50448  0.95650  0.40394  Biso   1.000  W
  W4       1.0000 0.37702  0.96660  0.33947  Biso   1.000  W
  W5       1.0000 0.36648  0.94468  0.19425  Biso   1.000  W
  W6       1.0000 0.39960  0.84737  0.11665  Biso   1.000  W
  W7       1.0000 0.32951  0.83932  0.26593  Biso   1.000  W
  W8       1.0000 0.36238  0.80600  0.37403  Biso   1.000  W
  W9       1.0000 0.49487  0.78979  0.42749  Biso   1.000  W
  W10      1.0000 0.37708  0.64034  0.34628  Biso   1.000  W
  W11      1.0000 0.34537  0.67780  0.23660  Biso   1.000  W
  W12      1.0000 0.38762  0.68370  0.14278  Biso   1.000  W
  W13      1.0000 0.49110  0.62363  0.09954  Biso   1.000  W
  W14      1.0000 0.45245  0.53217  0.17730  Biso   1.000  W
  W15      1.0000 0.41315  0.53240  0.27368  Biso   1.000  W
  Ni1      1.0000 0.23678  0.03261  0.15200  Biso   1.000  Ni
  Ni2      1.0000 0.53605  0.83931  0.53460  Biso   1.000  Ni
  Ni3      1.0000 0.32928  0.44102  0.13764  Biso   1.000  Ni
  P1       1.0000 0.47670  0.66910  0.30093  Biso   1.000  P
  P2       1.0000 0.46200  0.84740  0.33129  Biso   1.000  P
  O1       1.0000 0.47910  0.55990  0.13040  Biso   1.000  O
  O2       1.0000 0.40900  0.47610  0.14820  Biso   1.000  O
  O3       1.0000 0.52270  0.48850  0.19560  Biso   1.000  O
  O4       1.0000 0.44060  0.51930  0.22520  Biso   1.000  O
  O5       1.0000 0.39680  0.56230  0.31640  Biso   1.000  O
  O6       1.0000 0.37120  0.59600  0.23910  Biso   1.000  O
  O7       1.0000 0.48260  0.60110  0.28860  Biso   1.000  O
  O8       1.0000 0.40490  0.59900  0.16370  Biso   1.000  O
  O9       1.0000 0.43050  0.66680  0.10830  Biso   1.000  O
  O10      1.0000 0.53180  0.70150  0.31110  Biso   1.000  O
  O11      1.0000 0.36200  0.69250  0.18980  Biso   1.000  O
  O12      1.0000 0.43280  0.69980  0.26550  Biso   1.000  O
  O13      1.0000 0.34690  0.66750  0.29270  Biso   1.000  O
  O14      1.0000 0.45670  0.66740  0.33990  Biso   1.000  O
  O15      1.0000 0.32160  0.59950  0.35390  Biso   1.000  O
  O16      1.0000 0.43320  0.60790  0.39230  Biso   1.000  O
  O17      1.0000 0.49500  0.70810  0.42020  Biso   1.000  O
  O18      1.0000 0.37090  0.71350  0.36820  Biso   1.000  O
  O19      1.0000 0.33770  0.76540  0.24390  Biso   1.000  O
  O20      1.0000 0.38680  0.76820  0.13540  Biso   1.000  O
  O21      1.0000 0.44280  0.80480  0.08730  Biso   1.000  O
  O22      1.0000 0.43470  0.92160  0.10580  Biso   1.000  O
  O23      1.0000 0.37770  0.88700  0.15690  Biso   1.000  O
  O24      1.0000 0.52170  0.83750  0.33300  Biso   1.000  O
  O25      1.0000 0.34750  0.88260  0.22360  Biso   1.000  O
  O26      1.0000 0.42160  0.83440  0.28960  Biso   1.000  O
  O27      1.0000 0.33370  0.80250  0.31720  Biso   1.000  O
  O28      1.0000 0.44830  0.80460  0.36300  Biso   1.000  O
  O29      1.0000 0.41790  0.79550  0.42420  Biso   1.000  O
  O30      1.0000 0.51960  0.79530  0.47870  Biso   1.000  O
  O31      1.0000 0.48990  0.88460  0.42420  Biso   1.000  O
  O32      1.0000 0.36710  0.88710  0.37190  Biso   1.000  O
  O33      1.0000 0.45560  0.91530  0.34370  Biso   1.000  O
  O34      1.0000 0.34290  0.91730  0.29490  Biso   1.000  O
  O35      1.0000 0.45000  0.91930  0.22870  Biso   1.000  O
  O36      1.0000 0.29990  0.97010  0.16710  Biso   1.000  O
  O37      1.0000 0.40330  0.00370  0.16800  Biso   1.000  O
  O38      1.0000 0.37540  0.00450  0.23620  Biso   1.000  O
  O39      1.0000 0.48650  0.00130  0.28060  Biso   1.000  O
  O40      1.0000 0.39890  0.02600  0.31230  Biso   1.000  O
  O41      1.0000 0.43090  0.98920  0.39140  Biso   1.000  O
  O42      1.0000 0.51720  0.02380  0.36710  Biso   1.000  O
  O43      1.0000 0.47590  0.10690  0.30580  Biso   1.000  O
  O44      1.0000 0.43800  0.08920  0.22260  Biso   1.000  O
  N1       1.0000 0.42180  0.20980  0.00920  Biso   1.000  N
  H1       1.0000 0.42030  0.19870  0.98500  Biso   1.000  H
  N2       1.0000 0.46610  0.20000  0.04190  Biso   1.000  N
  N3       1.0000 0.34650  0.35960  0.11620  Biso   1.000  N
  N4       1.0000 0.31980  0.30630  0.11980  Biso   1.000  N
  H2       1.0000 0.29720  0.30270  0.13360  Biso   1.000  H
  N5       1.0000 0.17630  0.96920  0.92930  Biso   1.000  N
  H3       1.0000 0.15610  0.94520  0.91090  Biso   1.000  H
  N6       1.0000 0.19840  0.02360  0.92030  Biso   1.000  N
  N7       1.0000 0.29450  0.03840  0.09100  Biso   1.000  N
  H4       1.0000 0.32430  0.04200  0.11120  Biso   1.000  H
  N8       1.0000 0.24490  0.04460  0.09460  Biso   1.000  N
  N9       1.0000 0.13320  0.96240  0.13830  Biso   1.000  N
  H5       1.0000 0.11990  0.99340  0.14740  Biso   1.000  H
  N10      1.0000 0.18300  0.96190  0.13150  Biso   1.000  N
  N11      1.0000 0.13510  0.71440  0.09460  Biso   1.000  N
  H6       1.0000 0.14750  0.67790  0.10050  Biso   1.000  H
  N12      1.0000 0.08980  0.72830  0.06250  Biso   1.000  N
  C1       1.0000 0.33050  0.25650  0.98440  Biso   1.000  C
  H7       1.0000 0.33060  0.30000  0.98080  Biso   1.000  H
  H8       1.0000 0.29820  0.24470  0.99120  Biso   1.000  H
  H9       1.0000 0.33030  0.23660  0.95960  Biso   1.000  H
  C2       1.0000 0.38090  0.23800  0.01770  Biso   1.000  C
  C3       1.0000 0.39850  0.24950  0.05760  Biso   1.000  C
  C4       1.0000 0.45030  0.22640  0.07140  Biso   1.000  C
  C5       1.0000 0.48830  0.22720  0.11470  Biso   1.000  C
  H10      1.0000 0.48940  0.18730  0.12640  Biso   1.000  H
  H11      1.0000 0.47490  0.25620  0.13020  Biso   1.000  H
  H12      1.0000 0.52490  0.23870  0.11500  Biso   1.000  H
  C6       1.0000 0.30690  0.19730  0.10020  Biso   1.000  C
  H13      1.0000 0.33340  0.16560  0.10110  Biso   1.000  H
  H14      1.0000 0.27550  0.19220  0.07650  Biso   1.000  H
  H15      1.0000 0.29530  0.19490  0.12400  Biso   1.000  H
  C7       1.0000 0.33350  0.25990  0.09870  Biso   1.000  C
  C8       1.0000 0.37000  0.28160  0.08190  Biso   1.000  C
  C9       1.0000 0.37750  0.34360  0.09260  Biso   1.000  C
  C10      1.0000 0.41020  0.39000  0.07780  Biso   1.000  C
  H16      1.0000 0.39090  0.40000  0.05000  Biso   1.000  H
  H17      1.0000 0.44580  0.37330  0.07970  Biso   1.000  H
  H18      1.0000 0.41470  0.42620  0.09410  Biso   1.000  H
  C11      1.0000 0.25360  0.10590  0.96210  Biso   1.000  C
  H19      1.0000 0.22940  0.13780  0.94770  Biso   1.000  H
  H20      1.0000 0.28480  0.10290  0.95220  Biso   1.000  H
  H21      1.0000 0.26610  0.11520  0.99060  Biso   1.000  H
  C12      1.0000 0.22350  0.04730  0.95550  Biso   1.000  C
  C13      1.0000 0.21900  0.01000  0.98670  Biso   1.000  C
  C14      1.0000 0.18890  0.95770  0.96820  Biso   1.000  C
  C15      1.0000 0.17330  0.90300  0.98590  Biso   1.000  C
  H22      1.0000 0.20480  0.87650  0.99550  Biso   1.000  H
  H23      1.0000 0.14440  0.88200  0.96570  Biso   1.000  H
  H24      1.0000 0.16050  0.91420  0.00820  Biso   1.000  H
  C16      1.0000 0.14950  0.04000  0.04800  Biso   1.000  C
  H25      1.0000 0.13550  0.00040  0.05170  Biso   1.000  H
  H26      1.0000 0.13370  0.05240  0.02020  Biso   1.000  H
  H27      1.0000 0.13960  0.06910  0.06530  Biso   1.000  H
  C17      1.0000 0.21200  0.03720  0.05860  Biso   1.000  C
  C18      1.0000 0.24110  0.02310  0.03190  Biso   1.000  C
  C19      1.0000 0.29470  0.02670  0.05520  Biso   1.000  C
  C20      1.0000 0.34640  0.01990  0.04210  Biso   1.000  C
  H28      1.0000 0.37860  0.02080  0.06570  Biso   1.000  H
  H29      1.0000 0.34810  0.05300  0.02440  Biso   1.000  H
  H30      1.0000 0.34500  0.98180  0.02820  Biso   1.000  H
  C21      1.0000 0.23540  0.88770  0.10280  Biso   1.000  C
  H31      1.0000 0.25310  0.92280  0.09560  Biso   1.000  H
  H32      1.0000 0.22250  0.86110  0.07980  Biso   1.000  H
  H33      1.0000 0.26140  0.86630  0.12470  Biso   1.000  H
  C22      1.0000 0.18640  0.90860  0.11620  Biso   1.000  C
  C23      1.0000 0.13860  0.87480  0.11260  Biso   1.000  C
  C24      1.0000 0.10790  0.90920  0.12900  Biso   1.000  C
  C25      1.0000 0.05440  0.90100  0.13300  Biso   1.000  C
  H34      1.0000 0.05770  0.89300  0.16090  Biso   1.000  H
  H35      1.0000 0.03650  0.86700  0.11660  Biso   1.000  H
  H36      1.0000 0.03290  0.93730  0.12410  Biso   1.000  H
  C26      1.0000 0.04060  0.82410  0.03560  Biso   1.000  C
  H37      1.0000 0.00580  0.81680  0.04010  Biso   1.000  H
  H38      1.0000 0.03850  0.81130  0.00870  Biso   1.000  H
  H39      1.0000 0.04910  0.86700  0.03860  Biso   1.000  H
  C27      1.0000 0.08590  0.78800  0.06650  Biso   1.000  C
  C28      1.0000 0.12800  0.81090  0.09860  Biso   1.000  C
  C29      1.0000 0.15760  0.76260  0.11530  Biso   1.000  C
  C30      1.0000 0.21960  0.75600  0.14020  Biso   1.000  C
  H40      1.0000 0.24110  0.74990  0.12220  Biso   1.000  H
  H41      1.0000 0.23220  0.79280  0.15580  Biso   1.000  H
  H42      1.0000 0.22390  0.72200  0.15820  Biso   1.000  H
  Na1      1.0000 0.43650  0.79860  0.22240  Biso   1.000  Na
  O45      1.0000 0.46190  0.79800  0.23180  Biso   1.000  O
  C31      1.0000 0.20380  0.76100  0.15680  Biso   1.000  C
  H43      1.0000 0.18780  0.76680  0.17810  Biso   1.000  H
  H44      1.0000 0.22200  0.72170  0.16010  Biso   1.000  H
  H45      1.0000 0.23030  0.79250  0.15780  Biso   1.000  H
  W16      1.0000 0.91641  0.57051  0.26551  Biso   1.000  W
  W17      1.0000 0.04286  0.56126  0.33006  Biso   1.000  W
  W18      1.0000 0.00448  0.45650  0.40394  Biso   1.000  W
  W19      1.0000 0.87702  0.46660  0.33947  Biso   1.000  W
  W20      1.0000 0.86648  0.44468  0.19425  Biso   1.000  W
  W21      1.0000 0.89960  0.34737  0.11665  Biso   1.000  W
  W22      1.0000 0.82951  0.33932  0.26593  Biso   1.000  W
  W23      1.0000 0.86238  0.30600  0.37403  Biso   1.000  W
  W24      1.0000 0.99487  0.28979  0.42749  Biso   1.000  W
  W25      1.0000 0.87708  0.14034  0.34628  Biso   1.000  W
  W26      1.0000 0.84537  0.17780  0.23660  Biso   1.000  W
  W27      1.0000 0.88762  0.18370  0.14278  Biso   1.000  W
  W28      1.0000 0.99110  0.12363  0.09954  Biso   1.000  W
  W29      1.0000 0.95245  0.03217  0.17730  Biso   1.000  W
  W30      1.0000 0.91315  0.03240  0.27368  Biso   1.000  W
  Ni4      1.0000 0.73678  0.53261  0.15200  Biso   1.000  Ni
  Ni5      1.0000 0.03605  0.33931  0.53460  Biso   1.000  Ni
  Ni6      1.0000 0.82928  0.94102  0.13764  Biso   1.000  Ni
  P3       1.0000 0.97670  0.16910  0.30093  Biso   1.000  P
  P4       1.0000 0.96200  0.34740  0.33129  Biso   1.000  P
  O46      1.0000 0.97910  0.05990  0.13040  Biso   1.000  O
  O47      1.0000 0.90900  0.97610  0.14820  Biso   1.000  O
  O48      1.0000 0.02270  0.98850  0.19560  Biso   1.000  O
  O49      1.0000 0.94060  0.01930  0.22520  Biso   1.000  O
  O50      1.0000 0.89680  0.06230  0.31640  Biso   1.000  O
  O51      1.0000 0.87120  0.09600  0.23910  Biso   1.000  O
  O52      1.0000 0.98260  0.10110  0.28860  Biso   1.000  O
  O53      1.0000 0.90490  0.09900  0.16370  Biso   1.000  O
  O54      1.0000 0.93050  0.16680  0.10830  Biso   1.000  O
  O55      1.0000 0.03180  0.20150  0.31110  Biso   1.000  O
  O56      1.0000 0.86200  0.19250  0.18980  Biso   1.000  O
  O57      1.0000 0.93280  0.19980  0.26550  Biso   1.000  O
  O58      1.0000 0.84690  0.16750  0.29270  Biso   1.000  O
  O59      1.0000 0.95670  0.16740  0.33990  Biso   1.000  O
  O60      1.0000 0.82160  0.09950  0.35390  Biso   1.000  O
  O61      1.0000 0.93320  0.10790  0.39230  Biso   1.000  O
  O62      1.0000 0.99500  0.20810  0.42020  Biso   1.000  O
  O63      1.0000 0.87090  0.21350  0.36820  Biso   1.000  O
  O64      1.0000 0.83770  0.26540  0.24390  Biso   1.000  O
  O65      1.0000 0.88680  0.26820  0.13540  Biso   1.000  O
  O66      1.0000 0.94280  0.30480  0.08730  Biso   1.000  O
  O67      1.0000 0.93470  0.42160  0.10580  Biso   1.000  O
  O68      1.0000 0.87770  0.38700  0.15690  Biso   1.000  O
  O69      1.0000 0.02170  0.33750  0.33300  Biso   1.000  O
  O70      1.0000 0.84750  0.38260  0.22360  Biso   1.000  O
  O71      1.0000 0.92160  0.33440  0.28960  Biso   1.000  O
  O72      1.0000 0.83370  0.30250  0.31720  Biso   1.000  O
  O73      1.0000 0.94830  0.30460  0.36300  Biso   1.000  O
  O74      1.0000 0.91790  0.29550  0.42420  Biso   1.000  O
  O75      1.0000 0.01960  0.29530  0.47870  Biso   1.000  O
  O76      1.0000 0.98990  0.38460  0.42420  Biso   1.000  O
  O77      1.0000 0.86710  0.38710  0.37190  Biso   1.000  O
  O78      1.0000 0.95560  0.41530  0.34370  Biso   1.000  O
  O79      1.0000 0.84290  0.41730  0.29490  Biso   1.000  O
  O80      1.0000 0.95000  0.41930  0.22870  Biso   1.000  O
  O81      1.0000 0.79990  0.47010  0.16710  Biso   1.000  O
  O82      1.0000 0.90330  0.50370  0.16800  Biso   1.000  O
  O83      1.0000 0.87540  0.50450  0.23620  Biso   1.000  O
  O84      1.0000 0.98650  0.50130  0.28060  Biso   1.000  O
  O85      1.0000 0.89890  0.52600  0.31230  Biso   1.000  O
  O86      1.0000 0.93090  0.48920  0.39140  Biso   1.000  O
  O87      1.0000 0.01720  0.52380  0.36710  Biso   1.000  O
  O88      1.0000 0.97590  0.60690  0.30580  Biso   1.000  O
  O89      1.0000 0.93800  0.58920  0.22260  Biso   1.000  O
  N13      1.0000 0.92180  0.70980  0.00920  Biso   1.000  N
  H46      1.0000 0.92030  0.69870  0.98500  Biso   1.000  H
  N14      1.0000 0.96610  0.70000  0.04190  Biso   1.000  N
  N15      1.0000 0.84650  0.85960  0.11620  Biso   1.000  N
  N16      1.0000 0.81980  0.80630  0.11980  Biso   1.000  N
  H47      1.0000 0.79720  0.80270  0.13360  Biso   1.000  H
  N17      1.0000 0.67630  0.46920  0.92930  Biso   1.000  N
  H48      1.0000 0.65610  0.44520  0.91090  Biso   1.000  H
  N18      1.0000 0.69840  0.52360  0.92030  Biso   1.000  N
  N19      1.0000 0.79450  0.53840  0.09100  Biso   1.000  N
  H49      1.0000 0.82430  0.54200  0.11120  Biso   1.000  H
  N20      1.0000 0.74490  0.54460  0.09460  Biso   1.000  N
  N21      1.0000 0.63320  0.46240  0.13830  Biso   1.000  N
  H50      1.0000 0.61990  0.49340  0.14740  Biso   1.000  H
  N22      1.0000 0.68300  0.46190  0.13150  Biso   1.000  N
  N23      1.0000 0.63510  0.21440  0.09460  Biso   1.000  N
  H51      1.0000 0.64750  0.17790  0.10050  Biso   1.000  H
  N24      1.0000 0.58980  0.22830  0.06250  Biso   1.000  N
  C32      1.0000 0.83050  0.75650  0.98440  Biso   1.000  C
  H52      1.0000 0.83060  0.80000  0.98080  Biso   1.000  H
  H53      1.0000 0.79820  0.74470  0.99120  Biso   1.000  H
  H54      1.0000 0.83030  0.73660  0.95960  Biso   1.000  H
  C33      1.0000 0.88090  0.73800  0.01770  Biso   1.000  C
  C34      1.0000 0.89850  0.74950  0.05760  Biso   1.000  C
  C35      1.0000 0.95030  0.72640  0.07140  Biso   1.000  C
  C36      1.0000 0.98830  0.72720  0.11470  Biso   1.000  C
  H55      1.0000 0.98940  0.68730  0.12640  Biso   1.000  H
  H56      1.0000 0.97490  0.75620  0.13020  Biso   1.000  H
  H57      1.0000 0.02490  0.73870  0.11500  Biso   1.000  H
  C37      1.0000 0.80690  0.69730  0.10020  Biso   1.000  C
  H58      1.0000 0.83340  0.66560  0.10110  Biso   1.000  H
  H59      1.0000 0.77550  0.69220  0.07650  Biso   1.000  H
  H60      1.0000 0.79530  0.69490  0.12400  Biso   1.000  H
  C38      1.0000 0.83350  0.75990  0.09870  Biso   1.000  C
  C39      1.0000 0.87000  0.78160  0.08190  Biso   1.000  C
  C40      1.0000 0.87750  0.84360  0.09260  Biso   1.000  C
  C41      1.0000 0.91020  0.89000  0.07780  Biso   1.000  C
  H61      1.0000 0.89090  0.90000  0.05000  Biso   1.000  H
  H62      1.0000 0.94580  0.87330  0.07970  Biso   1.000  H
  H63      1.0000 0.91470  0.92620  0.09410  Biso   1.000  H
  C42      1.0000 0.75360  0.60590  0.96210  Biso   1.000  C
  H64      1.0000 0.72940  0.63780  0.94770  Biso   1.000  H
  H65      1.0000 0.78480  0.60290  0.95220  Biso   1.000  H
  H66      1.0000 0.76610  0.61520  0.99060  Biso   1.000  H
  C43      1.0000 0.72350  0.54730  0.95550  Biso   1.000  C
  C44      1.0000 0.71900  0.51000  0.98670  Biso   1.000  C
  C45      1.0000 0.68890  0.45770  0.96820  Biso   1.000  C
  C46      1.0000 0.67330  0.40300  0.98590  Biso   1.000  C
  H67      1.0000 0.70480  0.37650  0.99550  Biso   1.000  H
  H68      1.0000 0.64440  0.38200  0.96570  Biso   1.000  H
  H69      1.0000 0.66050  0.41420  0.00820  Biso   1.000  H
  C47      1.0000 0.64950  0.54000  0.04800  Biso   1.000  C
  H70      1.0000 0.63550  0.50040  0.05170  Biso   1.000  H
  H71      1.0000 0.63370  0.55240  0.02020  Biso   1.000  H
  H72      1.0000 0.63960  0.56910  0.06530  Biso   1.000  H
  C48      1.0000 0.71200  0.53720  0.05860  Biso   1.000  C
  C49      1.0000 0.74110  0.52310  0.03190  Biso   1.000  C
  C50      1.0000 0.79470  0.52670  0.05520  Biso   1.000  C
  C51      1.0000 0.84640  0.51990  0.04210  Biso   1.000  C
  H73      1.0000 0.87860  0.52080  0.06570  Biso   1.000  H
  H74      1.0000 0.84810  0.55300  0.02440  Biso   1.000  H
  H75      1.0000 0.84500  0.48180  0.02820  Biso   1.000  H
  C52      1.0000 0.73540  0.38770  0.10280  Biso   1.000  C
  H76      1.0000 0.75310  0.42280  0.09560  Biso   1.000  H
  H77      1.0000 0.72250  0.36110  0.07980  Biso   1.000  H
  H78      1.0000 0.76140  0.36630  0.12470  Biso   1.000  H
  C53      1.0000 0.68640  0.40860  0.11620  Biso   1.000  C
  C54      1.0000 0.63860  0.37480  0.11260  Biso   1.000  C
  C55      1.0000 0.60790  0.40920  0.12900  Biso   1.000  C
  C56      1.0000 0.55440  0.40100  0.13300  Biso   1.000  C
  H79      1.0000 0.55770  0.39300  0.16090  Biso   1.000  H
  H80      1.0000 0.53650  0.36700  0.11660  Biso   1.000  H
  H81      1.0000 0.53290  0.43730  0.12410  Biso   1.000  H
  C57      1.0000 0.54060  0.32410  0.03560  Biso   1.000  C
  H82      1.0000 0.50580  0.31680  0.04010  Biso   1.000  H
  H83      1.0000 0.53850  0.31130  0.00870  Biso   1.000  H
  H84      1.0000 0.54910  0.36700  0.03860  Biso   1.000  H
  C58      1.0000 0.58590  0.28800  0.06650  Biso   1.000  C
  C59      1.0000 0.62800  0.31090  0.09860  Biso   1.000  C
  C60      1.0000 0.65760  0.26260  0.11530  Biso   1.000  C
  C61      1.0000 0.71960  0.25600  0.14020  Biso   1.000  C
  H85      1.0000 0.74110  0.24990  0.12220  Biso   1.000  H
  H86      1.0000 0.73220  0.29280  0.15580  Biso   1.000  H
  H87      1.0000 0.72390  0.22200  0.15820  Biso   1.000  H
  Na2      1.0000 0.93650  0.29860  0.22240  Biso   1.000  Na
  O90      1.0000 0.96190  0.29800  0.23180  Biso   1.000  O
  C62      1.0000 0.70380  0.26100  0.15680  Biso   1.000  C
  H88      1.0000 0.68780  0.26680  0.17810  Biso   1.000  H
  H89      1.0000 0.72200  0.22170  0.16010  Biso   1.000  H
  H90      1.0000 0.73030  0.29250  0.15780  Biso   1.000  H
  W31      1.0000 0.58359  0.07051  0.23449  Biso   1.000  W
  W32      1.0000 0.45714  0.06126  0.16994  Biso   1.000  W
  W33      1.0000 0.49552  0.95650  0.09606  Biso   1.000  W
  W34      1.0000 0.62298  0.96660  0.16053  Biso   1.000  W
  W35      1.0000 0.63352  0.94468  0.30575  Biso   1.000  W
  W36      1.0000 0.60040  0.84737  0.38335  Biso   1.000  W
  W37      1.0000 0.67049  0.83932  0.23407  Biso   1.000  W
  W38      1.0000 0.63762  0.80600  0.12597  Biso   1.000  W
  W39      1.0000 0.50513  0.78979  0.07251  Biso   1.000  W
  W40      1.0000 0.62292  0.64034  0.15372  Biso   1.000  W
  W41      1.0000 0.65463  0.67780  0.26340  Biso   1.000  W
  W42      1.0000 0.61238  0.68370  0.35722  Biso   1.000  W
  W43      1.0000 0.50890  0.62363  0.40046  Biso   1.000  W
  W44      1.0000 0.54755  0.53217  0.32270  Biso   1.000  W
  W45      1.0000 0.58685  0.53240  0.22632  Biso   1.000  W
  Ni7      1.0000 0.76322  0.03261  0.34800  Biso   1.000  Ni
  Ni8      1.0000 0.46395  0.83931  0.96540  Biso   1.000  Ni
  Ni9      1.0000 0.67072  0.44102  0.36236  Biso   1.000  Ni
  P5       1.0000 0.52330  0.66910  0.19907  Biso   1.000  P
  P6       1.0000 0.53800  0.84740  0.16871  Biso   1.000  P
  O91      1.0000 0.52090  0.55990  0.36960  Biso   1.000  O
  O92      1.0000 0.59100  0.47610  0.35180  Biso   1.000  O
  O93      1.0000 0.47730  0.48850  0.30440  Biso   1.000  O
  O94      1.0000 0.55940  0.51930  0.27480  Biso   1.000  O
  O95      1.0000 0.60320  0.56230  0.18360  Biso   1.000  O
  O96      1.0000 0.62880  0.59600  0.26090  Biso   1.000  O
  O97      1.0000 0.51740  0.60110  0.21140  Biso   1.000  O
  O98      1.0000 0.59510  0.59900  0.33630  Biso   1.000  O
  O99      1.0000 0.56950  0.66680  0.39170  Biso   1.000  O
  O100     1.0000 0.46820  0.70150  0.18890  Biso   1.000  O
  O101     1.0000 0.63800  0.69250  0.31020  Biso   1.000  O
  O102     1.0000 0.56720  0.69980  0.23450  Biso   1.000  O
  O103     1.0000 0.65310  0.66750  0.20730  Biso   1.000  O
  O104     1.0000 0.54330  0.66740  0.16010  Biso   1.000  O
  O105     1.0000 0.67840  0.59950  0.14610  Biso   1.000  O
  O106     1.0000 0.56680  0.60790  0.10770  Biso   1.000  O
  O107     1.0000 0.50500  0.70810  0.07980  Biso   1.000  O
  O108     1.0000 0.62910  0.71350  0.13180  Biso   1.000  O
  O109     1.0000 0.66230  0.76540  0.25610  Biso   1.000  O
  O110     1.0000 0.61320  0.76820  0.36460  Biso   1.000  O
  O111     1.0000 0.55720  0.80480  0.41270  Biso   1.000  O
  O112     1.0000 0.56530  0.92160  0.39420  Biso   1.000  O
  O113     1.0000 0.62230  0.88700  0.34310  Biso   1.000  O
  O114     1.0000 0.47830  0.83750  0.16700  Biso   1.000  O
  O115     1.0000 0.65250  0.88260  0.27640  Biso   1.000  O
  O116     1.0000 0.57840  0.83440  0.21040  Biso   1.000  O
  O117     1.0000 0.66630  0.80250  0.18280  Biso   1.000  O
  O118     1.0000 0.55170  0.80460  0.13700  Biso   1.000  O
  O119     1.0000 0.58210  0.79550  0.07580  Biso   1.000  O
  O120     1.0000 0.48040  0.79530  0.02130  Biso   1.000  O
  O121     1.0000 0.51010  0.88460  0.07580  Biso   1.000  O
  O122     1.0000 0.63290  0.88710  0.12810  Biso   1.000  O
  O123     1.0000 0.54440  0.91530  0.15630  Biso   1.000  O
  O124     1.0000 0.65710  0.91730  0.20510  Biso   1.000  O
  O125     1.0000 0.55000  0.91930  0.27130  Biso   1.000  O
  O126     1.0000 0.70010  0.97010  0.33290  Biso   1.000  O
  O127     1.0000 0.59670  0.00370  0.33200  Biso   1.000  O
  O128     1.0000 0.62460  0.00450  0.26380  Biso   1.000  O
  O129     1.0000 0.51350  0.00130  0.21940  Biso   1.000  O
  O130     1.0000 0.60110  0.02600  0.18770  Biso   1.000  O
  O131     1.0000 0.56910  0.98920  0.10860  Biso   1.000  O
  O132     1.0000 0.48280  0.02380  0.13290  Biso   1.000  O
  O133     1.0000 0.52410  0.10690  0.19420  Biso   1.000  O
  O134     1.0000 0.56200  0.08920  0.27740  Biso   1.000  O
  N25      1.0000 0.57820  0.20980  0.49080  Biso   1.000  N
  H91      1.0000 0.57970  0.19870  0.51500  Biso   1.000  H
  N26      1.0000 0.53390  0.20000  0.45810  Biso   1.000  N
  N27      1.0000 0.65350  0.35960  0.38380  Biso   1.000  N
  N28      1.0000 0.68020  0.30630  0.38020  Biso   1.000  N
  H92      1.0000 0.70280  0.30270  0.36640  Biso   1.000  H
  N29      1.0000 0.82370  0.96920  0.57070  Biso   1.000  N
  H93      1.0000 0.84390  0.94520  0.58910  Biso   1.000  H
  N30      1.0000 0.80160  0.02360  0.57970  Biso   1.000  N
  N31      1.0000 0.70550  0.03840  0.40900  Biso   1.000  N
  H94      1.0000 0.67570  0.04200  0.38880  Biso   1.000  H
  N32      1.0000 0.75510  0.04460  0.40540  Biso   1.000  N
  N33      1.0000 0.86680  0.96240  0.36170  Biso   1.000  N
  H95      1.0000 0.88010  0.99340  0.35260  Biso   1.000  H
  N34      1.0000 0.81700  0.96190  0.36850  Biso   1.000  N
  N35      1.0000 0.86490  0.71440  0.40540  Biso   1.000  N
  H96      1.0000 0.85250  0.67790  0.39950  Biso   1.000  H
  N36      1.0000 0.91020  0.72830  0.43750  Biso   1.000  N
  C63      1.0000 0.66950  0.25650  0.51560  Biso   1.000  C
  H97      1.0000 0.66940  0.30000  0.51920  Biso   1.000  H
  H98      1.0000 0.70180  0.24470  0.50880  Biso   1.000  H
  H99      1.0000 0.66970  0.23660  0.54040  Biso   1.000  H
  C64      1.0000 0.61910  0.23800  0.48230  Biso   1.000  C
  C65      1.0000 0.60150  0.24950  0.44240  Biso   1.000  C
  C66      1.0000 0.54970  0.22640  0.42860  Biso   1.000  C
  C67      1.0000 0.51170  0.22720  0.38530  Biso   1.000  C
  H100     1.0000 0.51060  0.18730  0.37360  Biso   1.000  H
  H101     1.0000 0.52510  0.25620  0.36980  Biso   1.000  H
  H102     1.0000 0.47510  0.23870  0.38500  Biso   1.000  H
  C68      1.0000 0.69310  0.19730  0.39980  Biso   1.000  C
  H103     1.0000 0.66660  0.16560  0.39890  Biso   1.000  H
  H104     1.0000 0.72450  0.19220  0.42350  Biso   1.000  H
  H105     1.0000 0.70470  0.19490  0.37600  Biso   1.000  H
  C69      1.0000 0.66650  0.25990  0.40130  Biso   1.000  C
  C70      1.0000 0.63000  0.28160  0.41810  Biso   1.000  C
  C71      1.0000 0.62250  0.34360  0.40740  Biso   1.000  C
  C72      1.0000 0.58980  0.39000  0.42220  Biso   1.000  C
  H106     1.0000 0.60910  0.40000  0.45000  Biso   1.000  H
  H107     1.0000 0.55420  0.37330  0.42030  Biso   1.000  H
  H108     1.0000 0.58530  0.42620  0.40590  Biso   1.000  H
  C73      1.0000 0.74640  0.10590  0.53790  Biso   1.000  C
  H109     1.0000 0.77060  0.13780  0.55230  Biso   1.000  H
  H110     1.0000 0.71520  0.10290  0.54780  Biso   1.000  H
  H111     1.0000 0.73390  0.11520  0.50940  Biso   1.000  H
  C74      1.0000 0.77650  0.04730  0.54450  Biso   1.000  C
  C75      1.0000 0.78100  0.01000  0.51330  Biso   1.000  C
  C76      1.0000 0.81110  0.95770  0.53180  Biso   1.000  C
  C77      1.0000 0.82670  0.90300  0.51410  Biso   1.000  C
  H112     1.0000 0.79520  0.87650  0.50450  Biso   1.000  H
  H113     1.0000 0.85560  0.88200  0.53430  Biso   1.000  H
  H114     1.0000 0.83950  0.91420  0.49180  Biso   1.000  H
  C78      1.0000 0.85050  0.04000  0.45200  Biso   1.000  C
  H115     1.0000 0.86450  0.00040  0.44830  Biso   1.000  H
  H116     1.0000 0.86630  0.05240  0.47980  Biso   1.000  H
  H117     1.0000 0.86040  0.06910  0.43470  Biso   1.000  H
  C79      1.0000 0.78800  0.03720  0.44140  Biso   1.000  C
  C80      1.0000 0.75890  0.02310  0.46810  Biso   1.000  C
  C81      1.0000 0.70530  0.02670  0.44480  Biso   1.000  C
  C82      1.0000 0.65360  0.01990  0.45790  Biso   1.000  C
  H118     1.0000 0.62140  0.02080  0.43430  Biso   1.000  H
  H119     1.0000 0.65190  0.05300  0.47560  Biso   1.000  H
  H120     1.0000 0.65500  0.98180  0.47180  Biso   1.000  H
  C83      1.0000 0.76460  0.88770  0.39720  Biso   1.000  C
  H121     1.0000 0.74690  0.92280  0.40440  Biso   1.000  H
  H122     1.0000 0.77750  0.86110  0.42020  Biso   1.000  H
  H123     1.0000 0.73860  0.86630  0.37530  Biso   1.000  H
  C84      1.0000 0.81360  0.90860  0.38380  Biso   1.000  C
  C85      1.0000 0.86140  0.87480  0.38740  Biso   1.000  C
  C86      1.0000 0.89210  0.90920  0.37100  Biso   1.000  C
  C87      1.0000 0.94560  0.90100  0.36700  Biso   1.000  C
  H124     1.0000 0.94230  0.89300  0.33910  Biso   1.000  H
  H125     1.0000 0.96350  0.86700  0.38340  Biso   1.000  H
  H126     1.0000 0.96710  0.93730  0.37590  Biso   1.000  H
  C88      1.0000 0.95940  0.82410  0.46440  Biso   1.000  C
  H127     1.0000 0.99420  0.81680  0.45990  Biso   1.000  H
  H128     1.0000 0.96150  0.81130  0.49130  Biso   1.000  H
  H129     1.0000 0.95090  0.86700  0.46140  Biso   1.000  H
  C89      1.0000 0.91410  0.78800  0.43350  Biso   1.000  C
  C90      1.0000 0.87200  0.81090  0.40140  Biso   1.000  C
  C91      1.0000 0.84240  0.76260  0.38470  Biso   1.000  C
  C92      1.0000 0.78040  0.75600  0.35980  Biso   1.000  C
  H130     1.0000 0.75890  0.74990  0.37780  Biso   1.000  H
  H131     1.0000 0.76780  0.79280  0.34420  Biso   1.000  H
  H132     1.0000 0.77610  0.72200  0.34180  Biso   1.000  H
  Na3      1.0000 0.56350  0.79860  0.27760  Biso   1.000  Na
  O135     1.0000 0.53810  0.79800  0.26820  Biso   1.000  O
  C93      1.0000 0.79620  0.76100  0.34320  Biso   1.000  C
  H133     1.0000 0.81220  0.76680  0.32190  Biso   1.000  H
  H134     1.0000 0.77800  0.72170  0.33990  Biso   1.000  H
  H135     1.0000 0.76970  0.79250  0.34220  Biso   1.000  H
  W46      1.0000 0.08359  0.57051  0.23449  Biso   1.000  W
  W47      1.0000 0.95714  0.56126  0.16994  Biso   1.000  W
  W48      1.0000 0.99552  0.45650  0.09606  Biso   1.000  W
  W49      1.0000 0.12298  0.46660  0.16053  Biso   1.000  W
  W50      1.0000 0.13352  0.44468  0.30575  Biso   1.000  W
  W51      1.0000 0.10040  0.34737  0.38335  Biso   1.000  W
  W52      1.0000 0.17049  0.33932  0.23407  Biso   1.000  W
  W53      1.0000 0.13762  0.30600  0.12597  Biso   1.000  W
  W54      1.0000 0.00513  0.28979  0.07251  Biso   1.000  W
  W55      1.0000 0.12292  0.14034  0.15372  Biso   1.000  W
  W56      1.0000 0.15463  0.17780  0.26340  Biso   1.000  W
  W57      1.0000 0.11238  0.18370  0.35722  Biso   1.000  W
  W58      1.0000 0.00890  0.12363  0.40046  Biso   1.000  W
  W59      1.0000 0.04755  0.03217  0.32270  Biso   1.000  W
  W60      1.0000 0.08685  0.03240  0.22632  Biso   1.000  W
  Ni10     1.0000 0.26322  0.53261  0.34800  Biso   1.000  Ni
  Ni11     1.0000 0.96395  0.33931  0.96540  Biso   1.000  Ni
  Ni12     1.0000 0.17072  0.94102  0.36236  Biso   1.000  Ni
  P7       1.0000 0.02330  0.16910  0.19907  Biso   1.000  P
  P8       1.0000 0.03800  0.34740  0.16871  Biso   1.000  P
  O136     1.0000 0.02090  0.05990  0.36960  Biso   1.000  O
  O137     1.0000 0.09100  0.97610  0.35180  Biso   1.000  O
  O138     1.0000 0.97730  0.98850  0.30440  Biso   1.000  O
  O139     1.0000 0.05940  0.01930  0.27480  Biso   1.000  O
  O140     1.0000 0.10320  0.06230  0.18360  Biso   1.000  O
  O141     1.0000 0.12880  0.09600  0.26090  Biso   1.000  O
  O142     1.0000 0.01740  0.10110  0.21140  Biso   1.000  O
  O143     1.0000 0.09510  0.09900  0.33630  Biso   1.000  O
  O144     1.0000 0.06950  0.16680  0.39170  Biso   1.000  O
  O145     1.0000 0.96820  0.20150  0.18890  Biso   1.000  O
  O146     1.0000 0.13800  0.19250  0.31020  Biso   1.000  O
  O147     1.0000 0.06720  0.19980  0.23450  Biso   1.000  O
  O148     1.0000 0.15310  0.16750  0.20730  Biso   1.000  O
  O149     1.0000 0.04330  0.16740  0.16010  Biso   1.000  O
  O150     1.0000 0.17840  0.09950  0.14610  Biso   1.000  O
  O151     1.0000 0.06680  0.10790  0.10770  Biso   1.000  O
  O152     1.0000 0.00500  0.20810  0.07980  Biso   1.000  O
  O153     1.0000 0.12910  0.21350  0.13180  Biso   1.000  O
  O154     1.0000 0.16230  0.26540  0.25610  Biso   1.000  O
  O155     1.0000 0.11320  0.26820  0.36460  Biso   1.000  O
  O156     1.0000 0.05720  0.30480  0.41270  Biso   1.000  O
  O157     1.0000 0.06530  0.42160  0.39420  Biso   1.000  O
  O158     1.0000 0.12230  0.38700  0.34310  Biso   1.000  O
  O159     1.0000 0.97830  0.33750  0.16700  Biso   1.000  O
  O160     1.0000 0.15250  0.38260  0.27640  Biso   1.000  O
  O161     1.0000 0.07840  0.33440  0.21040  Biso   1.000  O
  O162     1.0000 0.16630  0.30250  0.18280  Biso   1.000  O
  O163     1.0000 0.05170  0.30460  0.13700  Biso   1.000  O
  O164     1.0000 0.08210  0.29550  0.07580  Biso   1.000  O
  O165     1.0000 0.98040  0.29530  0.02130  Biso   1.000  O
  O166     1.0000 0.01010  0.38460  0.07580  Biso   1.000  O
  O167     1.0000 0.13290  0.38710  0.12810  Biso   1.000  O
  O168     1.0000 0.04440  0.41530  0.15630  Biso   1.000  O
  O169     1.0000 0.15710  0.41730  0.20510  Biso   1.000  O
  O170     1.0000 0.05000  0.41930  0.27130  Biso   1.000  O
  O171     1.0000 0.20010  0.47010  0.33290  Biso   1.000  O
  O172     1.0000 0.09670  0.50370  0.33200  Biso   1.000  O
  O173     1.0000 0.12460  0.50450  0.26380  Biso   1.000  O
  O174     1.0000 0.01350  0.50130  0.21940  Biso   1.000  O
  O175     1.0000 0.10110  0.52600  0.18770  Biso   1.000  O
  O176     1.0000 0.06910  0.48920  0.10860  Biso   1.000  O
  O177     1.0000 0.98280  0.52380  0.13290  Biso   1.000  O
  O178     1.0000 0.02410  0.60690  0.19420  Biso   1.000  O
  O179     1.0000 0.06200  0.58920  0.27740  Biso   1.000  O
  N37      1.0000 0.07820  0.70980  0.49080  Biso   1.000  N
  H136     1.0000 0.07970  0.69870  0.51500  Biso   1.000  H
  N38      1.0000 0.03390  0.70000  0.45810  Biso   1.000  N
  N39      1.0000 0.15350  0.85960  0.38380  Biso   1.000  N
  N40      1.0000 0.18020  0.80630  0.38020  Biso   1.000  N
  H137     1.0000 0.20280  0.80270  0.36640  Biso   1.000  H
  N41      1.0000 0.32370  0.46920  0.57070  Biso   1.000  N
  H138     1.0000 0.34390  0.44520  0.58910  Biso   1.000  H
  N42      1.0000 0.30160  0.52360  0.57970  Biso   1.000  N
  N43      1.0000 0.20550  0.53840  0.40900  Biso   1.000  N
  H139     1.0000 0.17570  0.54200  0.38880  Biso   1.000  H
  N44      1.0000 0.25510  0.54460  0.40540  Biso   1.000  N
  N45      1.0000 0.36680  0.46240  0.36170  Biso   1.000  N
  H140     1.0000 0.38010  0.49340  0.35260  Biso   1.000  H
  N46      1.0000 0.31700  0.46190  0.36850  Biso   1.000  N
  N47      1.0000 0.36490  0.21440  0.40540  Biso   1.000  N
  H141     1.0000 0.35250  0.17790  0.39950  Biso   1.000  H
  N48      1.0000 0.41020  0.22830  0.43750  Biso   1.000  N
  C94      1.0000 0.16950  0.75650  0.51560  Biso   1.000  C
  H142     1.0000 0.16940  0.80000  0.51920  Biso   1.000  H
  H143     1.0000 0.20180  0.74470  0.50880  Biso   1.000  H
  H144     1.0000 0.16970  0.73660  0.54040  Biso   1.000  H
  C95      1.0000 0.11910  0.73800  0.48230  Biso   1.000  C
  C96      1.0000 0.10150  0.74950  0.44240  Biso   1.000  C
  C97      1.0000 0.04970  0.72640  0.42860  Biso   1.000  C
  C98      1.0000 0.01170  0.72720  0.38530  Biso   1.000  C
  H145     1.0000 0.01060  0.68730  0.37360  Biso   1.000  H
  H146     1.0000 0.02510  0.75620  0.36980  Biso   1.000  H
  H147     1.0000 0.97510  0.73870  0.38500  Biso   1.000  H
  C99      1.0000 0.19310  0.69730  0.39980  Biso   1.000  C
  H148     1.0000 0.16660  0.66560  0.39890  Biso   1.000  H
  H149     1.0000 0.22450  0.69220  0.42350  Biso   1.000  H
  H150     1.0000 0.20470  0.69490  0.37600  Biso   1.000  H
  C100     1.0000 0.16650  0.75990  0.40130  Biso   1.000  C
  C101     1.0000 0.13000  0.78160  0.41810  Biso   1.000  C
  C102     1.0000 0.12250  0.84360  0.40740  Biso   1.000  C
  C103     1.0000 0.08980  0.89000  0.42220  Biso   1.000  C
  H151     1.0000 0.10910  0.90000  0.45000  Biso   1.000  H
  H152     1.0000 0.05420  0.87330  0.42030  Biso   1.000  H
  H153     1.0000 0.08530  0.92620  0.40590  Biso   1.000  H
  C104     1.0000 0.24640  0.60590  0.53790  Biso   1.000  C
  H154     1.0000 0.27060  0.63780  0.55230  Biso   1.000  H
  H155     1.0000 0.21520  0.60290  0.54780  Biso   1.000  H
  H156     1.0000 0.23390  0.61520  0.50940  Biso   1.000  H
  C105     1.0000 0.27650  0.54730  0.54450  Biso   1.000  C
  C106     1.0000 0.28100  0.51000  0.51330  Biso   1.000  C
  C107     1.0000 0.31110  0.45770  0.53180  Biso   1.000  C
  C108     1.0000 0.32670  0.40300  0.51410  Biso   1.000  C
  H157     1.0000 0.29520  0.37650  0.50450  Biso   1.000  H
  H158     1.0000 0.35560  0.38200  0.53430  Biso   1.000  H
  H159     1.0000 0.33950  0.41420  0.49180  Biso   1.000  H
  C109     1.0000 0.35050  0.54000  0.45200  Biso   1.000  C
  H160     1.0000 0.36450  0.50040  0.44830  Biso   1.000  H
  H161     1.0000 0.36630  0.55240  0.47980  Biso   1.000  H
  H162     1.0000 0.36040  0.56910  0.43470  Biso   1.000  H
  C110     1.0000 0.28800  0.53720  0.44140  Biso   1.000  C
  C111     1.0000 0.25890  0.52310  0.46810  Biso   1.000  C
  C112     1.0000 0.20530  0.52670  0.44480  Biso   1.000  C
  C113     1.0000 0.15360  0.51990  0.45790  Biso   1.000  C
  H163     1.0000 0.12140  0.52080  0.43430  Biso   1.000  H
  H164     1.0000 0.15190  0.55300  0.47560  Biso   1.000  H
  H165     1.0000 0.15500  0.48180  0.47180  Biso   1.000  H
  C114     1.0000 0.26460  0.38770  0.39720  Biso   1.000  C
  H166     1.0000 0.24690  0.42280  0.40440  Biso   1.000  H
  H167     1.0000 0.27750  0.36110  0.42020  Biso   1.000  H
  H168     1.0000 0.23860  0.36630  0.37530  Biso   1.000  H
  C115     1.0000 0.31360  0.40860  0.38380  Biso   1.000  C
  C116     1.0000 0.36140  0.37480  0.38740  Biso   1.000  C
  C117     1.0000 0.39210  0.40920  0.37100  Biso   1.000  C
  C118     1.0000 0.44560  0.40100  0.36700  Biso   1.000  C
  H169     1.0000 0.44230  0.39300  0.33910  Biso   1.000  H
  H170     1.0000 0.46350  0.36700  0.38340  Biso   1.000  H
  H171     1.0000 0.46710  0.43730  0.37590  Biso   1.000  H
  C119     1.0000 0.45940  0.32410  0.46440  Biso   1.000  C
  H172     1.0000 0.49420  0.31680  0.45990  Biso   1.000  H
  H173     1.0000 0.46150  0.31130  0.49130  Biso   1.000  H
  H174     1.0000 0.45090  0.36700  0.46140  Biso   1.000  H
  C120     1.0000 0.41410  0.28800  0.43350  Biso   1.000  C
  C121     1.0000 0.37200  0.31090  0.40140  Biso   1.000  C
  C122     1.0000 0.34240  0.26260  0.38470  Biso   1.000  C
  C123     1.0000 0.28040  0.25600  0.35980  Biso   1.000  C
  H175     1.0000 0.25890  0.24990  0.37780  Biso   1.000  H
  H176     1.0000 0.26780  0.29280  0.34420  Biso   1.000  H
  H177     1.0000 0.27610  0.22200  0.34180  Biso   1.000  H
  Na4      1.0000 0.06350  0.29860  0.27760  Biso   1.000  Na
  O180     1.0000 0.03810  0.29800  0.26820  Biso   1.000  O
  C124     1.0000 0.29620  0.26100  0.34320  Biso   1.000  C
  H178     1.0000 0.31220  0.26680  0.32190  Biso   1.000  H
  H179     1.0000 0.27800  0.22170  0.33990  Biso   1.000  H
  H180     1.0000 0.26970  0.29250  0.34220  Biso   1.000  H
  W61      1.0000 0.58359  0.92949  0.73449  Biso   1.000  W
  W62      1.0000 0.45714  0.93874  0.66994  Biso   1.000  W
  W63      1.0000 0.49552  0.04350  0.59606  Biso   1.000  W
  W64      1.0000 0.62298  0.03340  0.66053  Biso   1.000  W
  W65      1.0000 0.63352  0.05532  0.80575  Biso   1.000  W
  W66      1.0000 0.60040  0.15263  0.88335  Biso   1.000  W
  W67      1.0000 0.67049  0.16068  0.73407  Biso   1.000  W
  W68      1.0000 0.63762  0.19400  0.62597  Biso   1.000  W
  W69      1.0000 0.50513  0.21021  0.57251  Biso   1.000  W
  W70      1.0000 0.62292  0.35966  0.65372  Biso   1.000  W
  W71      1.0000 0.65463  0.32220  0.76340  Biso   1.000  W
  W72      1.0000 0.61238  0.31630  0.85722  Biso   1.000  W
  W73      1.0000 0.50890  0.37637  0.90046  Biso   1.000  W
  W74      1.0000 0.54755  0.46783  0.82270  Biso   1.000  W
  W75      1.0000 0.58685  0.46760  0.72632  Biso   1.000  W
  Ni13     1.0000 0.76322  0.96739  0.84800  Biso   1.000  Ni
  Ni14     1.0000 0.46395  0.16069  0.46540  Biso   1.000  Ni
  Ni15     1.0000 0.67072  0.55898  0.86236  Biso   1.000  Ni
  P9       1.0000 0.52330  0.33090  0.69907  Biso   1.000  P
  P10      1.0000 0.53800  0.15260  0.66871  Biso   1.000  P
  O181     1.0000 0.52090  0.44010  0.86960  Biso   1.000  O
  O182     1.0000 0.59100  0.52390  0.85180  Biso   1.000  O
  O183     1.0000 0.47730  0.51150  0.80440  Biso   1.000  O
  O184     1.0000 0.55940  0.48070  0.77480  Biso   1.000  O
  O185     1.0000 0.60320  0.43770  0.68360  Biso   1.000  O
  O186     1.0000 0.62880  0.40400  0.76090  Biso   1.000  O
  O187     1.0000 0.51740  0.39890  0.71140  Biso   1.000  O
  O188     1.0000 0.59510  0.40100  0.83630  Biso   1.000  O
  O189     1.0000 0.56950  0.33320  0.89170  Biso   1.000  O
  O190     1.0000 0.46820  0.29850  0.68890  Biso   1.000  O
  O191     1.0000 0.63800  0.30750  0.81020  Biso   1.000  O
  O192     1.0000 0.56720  0.30020  0.73450  Biso   1.000  O
  O193     1.0000 0.65310  0.33250  0.70730  Biso   1.000  O
  O194     1.0000 0.54330  0.33260  0.66010  Biso   1.000  O
  O195     1.0000 0.67840  0.40050  0.64610  Biso   1.000  O
  O196     1.0000 0.56680  0.39210  0.60770  Biso   1.000  O
  O197     1.0000 0.50500  0.29190  0.57980  Biso   1.000  O
  O198     1.0000 0.62910  0.28650  0.63180  Biso   1.000  O
  O199     1.0000 0.66230  0.23460  0.75610  Biso   1.000  O
  O200     1.0000 0.61320  0.23180  0.86460  Biso   1.000  O
  O201     1.0000 0.55720  0.19520  0.91270  Biso   1.000  O
  O202     1.0000 0.56530  0.07840  0.89420  Biso   1.000  O
  O203     1.0000 0.62230  0.11300  0.84310  Biso   1.000  O
  O204     1.0000 0.47830  0.16250  0.66700  Biso   1.000  O
  O205     1.0000 0.65250  0.11740  0.77640  Biso   1.000  O
  O206     1.0000 0.57840  0.16560  0.71040  Biso   1.000  O
  O207     1.0000 0.66630  0.19750  0.68280  Biso   1.000  O
  O208     1.0000 0.55170  0.19540  0.63700  Biso   1.000  O
  O209     1.0000 0.58210  0.20450  0.57580  Biso   1.000  O
  O210     1.0000 0.48040  0.20470  0.52130  Biso   1.000  O
  O211     1.0000 0.51010  0.11540  0.57580  Biso   1.000  O
  O212     1.0000 0.63290  0.11290  0.62810  Biso   1.000  O
  O213     1.0000 0.54440  0.08470  0.65630  Biso   1.000  O
  O214     1.0000 0.65710  0.08270  0.70510  Biso   1.000  O
  O215     1.0000 0.55000  0.08070  0.77130  Biso   1.000  O
  O216     1.0000 0.70010  0.02990  0.83290  Biso   1.000  O
  O217     1.0000 0.59670  0.99630  0.83200  Biso   1.000  O
  O218     1.0000 0.62460  0.99550  0.76380  Biso   1.000  O
  O219     1.0000 0.51350  0.99870  0.71940  Biso   1.000  O
  O220     1.0000 0.60110  0.97400  0.68770  Biso   1.000  O
  O221     1.0000 0.56910  0.01080  0.60860  Biso   1.000  O
  O222     1.0000 0.48280  0.97620  0.63290  Biso   1.000  O
  O223     1.0000 0.52410  0.89310  0.69420  Biso   1.000  O
  O224     1.0000 0.56200  0.91080  0.77740  Biso   1.000  O
  N49      1.0000 0.57820  0.79020  0.99080  Biso   1.000  N
  H181     1.0000 0.57970  0.80130  0.01500  Biso   1.000  H
  N50      1.0000 0.53390  0.80000  0.95810  Biso   1.000  N
  N51      1.0000 0.65350  0.64040  0.88380  Biso   1.000  N
  N52      1.0000 0.68020  0.69370  0.88020  Biso   1.000  N
  H182     1.0000 0.70280  0.69730  0.86640  Biso   1.000  H
  N53      1.0000 0.82370  0.03080  0.07070  Biso   1.000  N
  H183     1.0000 0.84390  0.05480  0.08910  Biso   1.000  H
  N54      1.0000 0.80160  0.97640  0.07970  Biso   1.000  N
  N55      1.0000 0.70550  0.96160  0.90900  Biso   1.000  N
  H184     1.0000 0.67570  0.95800  0.88880  Biso   1.000  H
  N56      1.0000 0.75510  0.95540  0.90540  Biso   1.000  N
  N57      1.0000 0.86680  0.03760  0.86170  Biso   1.000  N
  H185     1.0000 0.88010  0.00660  0.85260  Biso   1.000  H
  N58      1.0000 0.81700  0.03810  0.86850  Biso   1.000  N
  N59      1.0000 0.86490  0.28560  0.90540  Biso   1.000  N
  H186     1.0000 0.85250  0.32210  0.89950  Biso   1.000  H
  N60      1.0000 0.91020  0.27170  0.93750  Biso   1.000  N
  C125     1.0000 0.66950  0.74350  0.01560  Biso   1.000  C
  H187     1.0000 0.66940  0.70000  0.01920  Biso   1.000  H
  H188     1.0000 0.70180  0.75530  0.00880  Biso   1.000  H
  H189     1.0000 0.66970  0.76340  0.04040  Biso   1.000  H
  C126     1.0000 0.61910  0.76200  0.98230  Biso   1.000  C
  C127     1.0000 0.60150  0.75050  0.94240  Biso   1.000  C
  C128     1.0000 0.54970  0.77360  0.92860  Biso   1.000  C
  C129     1.0000 0.51170  0.77280  0.88530  Biso   1.000  C
  H190     1.0000 0.51060  0.81270  0.87360  Biso   1.000  H
  H191     1.0000 0.52510  0.74380  0.86980  Biso   1.000  H
  H192     1.0000 0.47510  0.76130  0.88500  Biso   1.000  H
  C130     1.0000 0.69310  0.80270  0.89980  Biso   1.000  C
  H193     1.0000 0.66660  0.83440  0.89890  Biso   1.000  H
  H194     1.0000 0.72450  0.80780  0.92350  Biso   1.000  H
  H195     1.0000 0.70470  0.80510  0.87600  Biso   1.000  H
  C131     1.0000 0.66650  0.74010  0.90130  Biso   1.000  C
  C132     1.0000 0.63000  0.71840  0.91810  Biso   1.000  C
  C133     1.0000 0.62250  0.65640  0.90740  Biso   1.000  C
  C134     1.0000 0.58980  0.61000  0.92220  Biso   1.000  C
  H196     1.0000 0.60910  0.60000  0.95000  Biso   1.000  H
  H197     1.0000 0.55420  0.62670  0.92030  Biso   1.000  H
  H198     1.0000 0.58530  0.57380  0.90590  Biso   1.000  H
  C135     1.0000 0.74640  0.89410  0.03790  Biso   1.000  C
  H199     1.0000 0.77060  0.86220  0.05230  Biso   1.000  H
  H200     1.0000 0.71520  0.89710  0.04780  Biso   1.000  H
  H201     1.0000 0.73390  0.88480  0.00940  Biso   1.000  H
  C136     1.0000 0.77650  0.95270  0.04450  Biso   1.000  C
  C137     1.0000 0.78100  0.99000  0.01330  Biso   1.000  C
  C138     1.0000 0.81110  0.04230  0.03180  Biso   1.000  C
  C139     1.0000 0.82670  0.09700  0.01410  Biso   1.000  C
  H202     1.0000 0.79520  0.12350  0.00450  Biso   1.000  H
  H203     1.0000 0.85560  0.11800  0.03430  Biso   1.000  H
  H204     1.0000 0.83950  0.08580  0.99180  Biso   1.000  H
  C140     1.0000 0.85050  0.96000  0.95200  Biso   1.000  C
  H205     1.0000 0.86450  0.99960  0.94830  Biso   1.000  H
  H206     1.0000 0.86630  0.94760  0.97980  Biso   1.000  H
  H207     1.0000 0.86040  0.93090  0.93470  Biso   1.000  H
  C141     1.0000 0.78800  0.96280  0.94140  Biso   1.000  C
  C142     1.0000 0.75890  0.97690  0.96810  Biso   1.000  C
  C143     1.0000 0.70530  0.97330  0.94480  Biso   1.000  C
  C144     1.0000 0.65360  0.98010  0.95790  Biso   1.000  C
  H208     1.0000 0.62140  0.97920  0.93430  Biso   1.000  H
  H209     1.0000 0.65190  0.94700  0.97560  Biso   1.000  H
  H210     1.0000 0.65500  0.01820  0.97180  Biso   1.000  H
  C145     1.0000 0.76460  0.11230  0.89720  Biso   1.000  C
  H211     1.0000 0.74690  0.07720  0.90440  Biso   1.000  H
  H212     1.0000 0.77750  0.13890  0.92020  Biso   1.000  H
  H213     1.0000 0.73860  0.13370  0.87530  Biso   1.000  H
  C146     1.0000 0.81360  0.09140  0.88380  Biso   1.000  C
  C147     1.0000 0.86140  0.12520  0.88740  Biso   1.000  C
  C148     1.0000 0.89210  0.09080  0.87100  Biso   1.000  C
  C149     1.0000 0.94560  0.09900  0.86700  Biso   1.000  C
  H214     1.0000 0.94230  0.10700  0.83910  Biso   1.000  H
  H215     1.0000 0.96350  0.13300  0.88340  Biso   1.000  H
  H216     1.0000 0.96710  0.06270  0.87590  Biso   1.000  H
  C150     1.0000 0.95940  0.17590  0.96440  Biso   1.000  C
  H217     1.0000 0.99420  0.18320  0.95990  Biso   1.000  H
  H218     1.0000 0.96150  0.18870  0.99130  Biso   1.000  H
  H219     1.0000 0.95090  0.13300  0.96140  Biso   1.000  H
  C151     1.0000 0.91410  0.21200  0.93350  Biso   1.000  C
  C152     1.0000 0.87200  0.18910  0.90140  Biso   1.000  C
  C153     1.0000 0.84240  0.23740  0.88470  Biso   1.000  C
  C154     1.0000 0.78040  0.24400  0.85980  Biso   1.000  C
  H220     1.0000 0.75890  0.25010  0.87780  Biso   1.000  H
  H221     1.0000 0.76780  0.20720  0.84420  Biso   1.000  H
  H222     1.0000 0.77610  0.27800  0.84180  Biso   1.000  H
  Na5      1.0000 0.56350  0.20140  0.77760  Biso   1.000  Na
  O225     1.0000 0.53810  0.20200  0.76820  Biso   1.000  O
  C155     1.0000 0.79620  0.23900  0.84320  Biso   1.000  C
  H223     1.0000 0.81220  0.23320  0.82190  Biso   1.000  H
  H224     1.0000 0.77800  0.27830  0.83990  Biso   1.000  H
  H225     1.0000 0.76970  0.20750  0.84220  Biso   1.000  H
  W76      1.0000 0.08359  0.42949  0.73449  Biso   1.000  W
  W77      1.0000 0.95714  0.43874  0.66994  Biso   1.000  W
  W78      1.0000 0.99552  0.54350  0.59606  Biso   1.000  W
  W79      1.0000 0.12298  0.53340  0.66053  Biso   1.000  W
  W80      1.0000 0.13352  0.55532  0.80575  Biso   1.000  W
  W81      1.0000 0.10040  0.65263  0.88335  Biso   1.000  W
  W82      1.0000 0.17049  0.66068  0.73407  Biso   1.000  W
  W83      1.0000 0.13762  0.69400  0.62597  Biso   1.000  W
  W84      1.0000 0.00513  0.71021  0.57251  Biso   1.000  W
  W85      1.0000 0.12292  0.85966  0.65372  Biso   1.000  W
  W86      1.0000 0.15463  0.82220  0.76340  Biso   1.000  W
  W87      1.0000 0.11238  0.81630  0.85722  Biso   1.000  W
  W88      1.0000 0.00890  0.87637  0.90046  Biso   1.000  W
  W89      1.0000 0.04755  0.96783  0.82270  Biso   1.000  W
  W90      1.0000 0.08685  0.96760  0.72632  Biso   1.000  W
  Ni16     1.0000 0.26322  0.46739  0.84800  Biso   1.000  Ni
  Ni17     1.0000 0.96395  0.66069  0.46540  Biso   1.000  Ni
  Ni18     1.0000 0.17072  0.05898  0.86236  Biso   1.000  Ni
  P11      1.0000 0.02330  0.83090  0.69907  Biso   1.000  P
  P12      1.0000 0.03800  0.65260  0.66871  Biso   1.000  P
  O226     1.0000 0.02090  0.94010  0.86960  Biso   1.000  O
  O227     1.0000 0.09100  0.02390  0.85180  Biso   1.000  O
  O228     1.0000 0.97730  0.01150  0.80440  Biso   1.000  O
  O229     1.0000 0.05940  0.98070  0.77480  Biso   1.000  O
  O230     1.0000 0.10320  0.93770  0.68360  Biso   1.000  O
  O231     1.0000 0.12880  0.90400  0.76090  Biso   1.000  O
  O232     1.0000 0.01740  0.89890  0.71140  Biso   1.000  O
  O233     1.0000 0.09510  0.90100  0.83630  Biso   1.000  O
  O234     1.0000 0.06950  0.83320  0.89170  Biso   1.000  O
  O235     1.0000 0.96820  0.79850  0.68890  Biso   1.000  O
  O236     1.0000 0.13800  0.80750  0.81020  Biso   1.000  O
  O237     1.0000 0.06720  0.80020  0.73450  Biso   1.000  O
  O238     1.0000 0.15310  0.83250  0.70730  Biso   1.000  O
  O239     1.0000 0.04330  0.83260  0.66010  Biso   1.000  O
  O240     1.0000 0.17840  0.90050  0.64610  Biso   1.000  O
  O241     1.0000 0.06680  0.89210  0.60770  Biso   1.000  O
  O242     1.0000 0.00500  0.79190  0.57980  Biso   1.000  O
  O243     1.0000 0.12910  0.78650  0.63180  Biso   1.000  O
  O244     1.0000 0.16230  0.73460  0.75610  Biso   1.000  O
  O245     1.0000 0.11320  0.73180  0.86460  Biso   1.000  O
  O246     1.0000 0.05720  0.69520  0.91270  Biso   1.000  O
  O247     1.0000 0.06530  0.57840  0.89420  Biso   1.000  O
  O248     1.0000 0.12230  0.61300  0.84310  Biso   1.000  O
  O249     1.0000 0.97830  0.66250  0.66700  Biso   1.000  O
  O250     1.0000 0.15250  0.61740  0.77640  Biso   1.000  O
  O251     1.0000 0.07840  0.66560  0.71040  Biso   1.000  O
  O252     1.0000 0.16630  0.69750  0.68280  Biso   1.000  O
  O253     1.0000 0.05170  0.69540  0.63700  Biso   1.000  O
  O254     1.0000 0.08210  0.70450  0.57580  Biso   1.000  O
  O255     1.0000 0.98040  0.70470  0.52130  Biso   1.000  O
  O256     1.0000 0.01010  0.61540  0.57580  Biso   1.000  O
  O257     1.0000 0.13290  0.61290  0.62810  Biso   1.000  O
  O258     1.0000 0.04440  0.58470  0.65630  Biso   1.000  O
  O259     1.0000 0.15710  0.58270  0.70510  Biso   1.000  O
  O260     1.0000 0.05000  0.58070  0.77130  Biso   1.000  O
  O261     1.0000 0.20010  0.52990  0.83290  Biso   1.000  O
  O262     1.0000 0.09670  0.49630  0.83200  Biso   1.000  O
  O263     1.0000 0.12460  0.49550  0.76380  Biso   1.000  O
  O264     1.0000 0.01350  0.49870  0.71940  Biso   1.000  O
  O265     1.0000 0.10110  0.47400  0.68770  Biso   1.000  O
  O266     1.0000 0.06910  0.51080  0.60860  Biso   1.000  O
  O267     1.0000 0.98280  0.47620  0.63290  Biso   1.000  O
  O268     1.0000 0.02410  0.39310  0.69420  Biso   1.000  O
  O269     1.0000 0.06200  0.41080  0.77740  Biso   1.000  O
  N61      1.0000 0.07820  0.29020  0.99080  Biso   1.000  N
  H226     1.0000 0.07970  0.30130  0.01500  Biso   1.000  H
  N62      1.0000 0.03390  0.30000  0.95810  Biso   1.000  N
  N63      1.0000 0.15350  0.14040  0.88380  Biso   1.000  N
  N64      1.0000 0.18020  0.19370  0.88020  Biso   1.000  N
  H227     1.0000 0.20280  0.19730  0.86640  Biso   1.000  H
  N65      1.0000 0.32370  0.53080  0.07070  Biso   1.000  N
  H228     1.0000 0.34390  0.55480  0.08910  Biso   1.000  H
  N66      1.0000 0.30160  0.47640  0.07970  Biso   1.000  N
  N67      1.0000 0.20550  0.46160  0.90900  Biso   1.000  N
  H229     1.0000 0.17570  0.45800  0.88880  Biso   1.000  H
  N68      1.0000 0.25510  0.45540  0.90540  Biso   1.000  N
  N69      1.0000 0.36680  0.53760  0.86170  Biso   1.000  N
  H230     1.0000 0.38010  0.50660  0.85260  Biso   1.000  H
  N70      1.0000 0.31700  0.53810  0.86850  Biso   1.000  N
  N71      1.0000 0.36490  0.78560  0.90540  Biso   1.000  N
  H231     1.0000 0.35250  0.82210  0.89950  Biso   1.000  H
  N72      1.0000 0.41020  0.77170  0.93750  Biso   1.000  N
  C156     1.0000 0.16950  0.24350  0.01560  Biso   1.000  C
  H232     1.0000 0.16940  0.20000  0.01920  Biso   1.000  H
  H233     1.0000 0.20180  0.25530  0.00880  Biso   1.000  H
  H234     1.0000 0.16970  0.26340  0.04040  Biso   1.000  H
  C157     1.0000 0.11910  0.26200  0.98230  Biso   1.000  C
  C158     1.0000 0.10150  0.25050  0.94240  Biso   1.000  C
  C159     1.0000 0.04970  0.27360  0.92860  Biso   1.000  C
  C160     1.0000 0.01170  0.27280  0.88530  Biso   1.000  C
  H235     1.0000 0.01060  0.31270  0.87360  Biso   1.000  H
  H236     1.0000 0.02510  0.24380  0.86980  Biso   1.000  H
  H237     1.0000 0.97510  0.26130  0.88500  Biso   1.000  H
  C161     1.0000 0.19310  0.30270  0.89980  Biso   1.000  C
  H238     1.0000 0.16660  0.33440  0.89890  Biso   1.000  H
  H239     1.0000 0.22450  0.30780  0.92350  Biso   1.000  H
  H240     1.0000 0.20470  0.30510  0.87600  Biso   1.000  H
  C162     1.0000 0.16650  0.24010  0.90130  Biso   1.000  C
  C163     1.0000 0.13000  0.21840  0.91810  Biso   1.000  C
  C164     1.0000 0.12250  0.15640  0.90740  Biso   1.000  C
  C165     1.0000 0.08980  0.11000  0.92220  Biso   1.000  C
  H241     1.0000 0.10910  0.10000  0.95000  Biso   1.000  H
  H242     1.0000 0.05420  0.12670  0.92030  Biso   1.000  H
  H243     1.0000 0.08530  0.07380  0.90590  Biso   1.000  H
  C166     1.0000 0.24640  0.39410  0.03790  Biso   1.000  C
  H244     1.0000 0.27060  0.36220  0.05230  Biso   1.000  H
  H245     1.0000 0.21520  0.39710  0.04780  Biso   1.000  H
  H246     1.0000 0.23390  0.38480  0.00940  Biso   1.000  H
  C167     1.0000 0.27650  0.45270  0.04450  Biso   1.000  C
  C168     1.0000 0.28100  0.49000  0.01330  Biso   1.000  C
  C169     1.0000 0.31110  0.54230  0.03180  Biso   1.000  C
  C170     1.0000 0.32670  0.59700  0.01410  Biso   1.000  C
  H247     1.0000 0.29520  0.62350  0.00450  Biso   1.000  H
  H248     1.0000 0.35560  0.61800  0.03430  Biso   1.000  H
  H249     1.0000 0.33950  0.58580  0.99180  Biso   1.000  H
  C171     1.0000 0.35050  0.46000  0.95200  Biso   1.000  C
  H250     1.0000 0.36450  0.49960  0.94830  Biso   1.000  H
  H251     1.0000 0.36630  0.44760  0.97980  Biso   1.000  H
  H252     1.0000 0.36040  0.43090  0.93470  Biso   1.000  H
  C172     1.0000 0.28800  0.46280  0.94140  Biso   1.000  C
  C173     1.0000 0.25890  0.47690  0.96810  Biso   1.000  C
  C174     1.0000 0.20530  0.47330  0.94480  Biso   1.000  C
  C175     1.0000 0.15360  0.48010  0.95790  Biso   1.000  C
  H253     1.0000 0.12140  0.47920  0.93430  Biso   1.000  H
  H254     1.0000 0.15190  0.44700  0.97560  Biso   1.000  H
  H255     1.0000 0.15500  0.51820  0.97180  Biso   1.000  H
  C176     1.0000 0.26460  0.61230  0.89720  Biso   1.000  C
  H256     1.0000 0.24690  0.57720  0.90440  Biso   1.000  H
  H257     1.0000 0.27750  0.63890  0.92020  Biso   1.000  H
  H258     1.0000 0.23860  0.63370  0.87530  Biso   1.000  H
  C177     1.0000 0.31360  0.59140  0.88380  Biso   1.000  C
  C178     1.0000 0.36140  0.62520  0.88740  Biso   1.000  C
  C179     1.0000 0.39210  0.59080  0.87100  Biso   1.000  C
  C180     1.0000 0.44560  0.59900  0.86700  Biso   1.000  C
  H259     1.0000 0.44230  0.60700  0.83910  Biso   1.000  H
  H260     1.0000 0.46350  0.63300  0.88340  Biso   1.000  H
  H261     1.0000 0.46710  0.56270  0.87590  Biso   1.000  H
  C181     1.0000 0.45940  0.67590  0.96440  Biso   1.000  C
  H262     1.0000 0.49420  0.68320  0.95990  Biso   1.000  H
  H263     1.0000 0.46150  0.68870  0.99130  Biso   1.000  H
  H264     1.0000 0.45090  0.63300  0.96140  Biso   1.000  H
  C182     1.0000 0.41410  0.71200  0.93350  Biso   1.000  C
  C183     1.0000 0.37200  0.68910  0.90140  Biso   1.000  C
  C184     1.0000 0.34240  0.73740  0.88470  Biso   1.000  C
  C185     1.0000 0.28040  0.74400  0.85980  Biso   1.000  C
  H265     1.0000 0.25890  0.75010  0.87780  Biso   1.000  H
  H266     1.0000 0.26780  0.70720  0.84420  Biso   1.000  H
  H267     1.0000 0.27610  0.77800  0.84180  Biso   1.000  H
  Na6      1.0000 0.06350  0.70140  0.77760  Biso   1.000  Na
  O270     1.0000 0.03810  0.70200  0.76820  Biso   1.000  O
  C186     1.0000 0.29620  0.73900  0.84320  Biso   1.000  C
  H268     1.0000 0.31220  0.73320  0.82190  Biso   1.000  H
  H269     1.0000 0.27800  0.77830  0.83990  Biso   1.000  H
  H270     1.0000 0.26970  0.70750  0.84220  Biso   1.000  H
  W91      1.0000 0.41641  0.92949  0.76551  Biso   1.000  W
  W92      1.0000 0.54286  0.93874  0.83006  Biso   1.000  W
  W93      1.0000 0.50448  0.04350  0.90394  Biso   1.000  W
  W94      1.0000 0.37702  0.03340  0.83947  Biso   1.000  W
  W95      1.0000 0.36648  0.05532  0.69425  Biso   1.000  W
  W96      1.0000 0.39960  0.15263  0.61665  Biso   1.000  W
  W97      1.0000 0.32951  0.16068  0.76593  Biso   1.000  W
  W98      1.0000 0.36238  0.19400  0.87403  Biso   1.000  W
  W99      1.0000 0.49487  0.21021  0.92749  Biso   1.000  W
  W100     1.0000 0.37708  0.35966  0.84628  Biso   1.000  W
  W101     1.0000 0.34537  0.32220  0.73660  Biso   1.000  W
  W102     1.0000 0.38762  0.31630  0.64278  Biso   1.000  W
  W103     1.0000 0.49110  0.37637  0.59954  Biso   1.000  W
  W104     1.0000 0.45245  0.46783  0.67730  Biso   1.000  W
  W105     1.0000 0.41315  0.46760  0.77368  Biso   1.000  W
  Ni19     1.0000 0.23678  0.96739  0.65200  Biso   1.000  Ni
  Ni20     1.0000 0.53605  0.16069  0.03460  Biso   1.000  Ni
  Ni21     1.0000 0.32928  0.55898  0.63764  Biso   1.000  Ni
  P13      1.0000 0.47670  0.33090  0.80093  Biso   1.000  P
  P14      1.0000 0.46200  0.15260  0.83129  Biso   1.000  P
  O271     1.0000 0.47910  0.44010  0.63040  Biso   1.000  O
  O272     1.0000 0.40900  0.52390  0.64820  Biso   1.000  O
  O273     1.0000 0.52270  0.51150  0.69560  Biso   1.000  O
  O274     1.0000 0.44060  0.48070  0.72520  Biso   1.000  O
  O275     1.0000 0.39680  0.43770  0.81640  Biso   1.000  O
  O276     1.0000 0.37120  0.40400  0.73910  Biso   1.000  O
  O277     1.0000 0.48260  0.39890  0.78860  Biso   1.000  O
  O278     1.0000 0.40490  0.40100  0.66370  Biso   1.000  O
  O279     1.0000 0.43050  0.33320  0.60830  Biso   1.000  O
  O280     1.0000 0.53180  0.29850  0.81110  Biso   1.000  O
  O281     1.0000 0.36200  0.30750  0.68980  Biso   1.000  O
  O282     1.0000 0.43280  0.30020  0.76550  Biso   1.000  O
  O283     1.0000 0.34690  0.33250  0.79270  Biso   1.000  O
  O284     1.0000 0.45670  0.33260  0.83990  Biso   1.000  O
  O285     1.0000 0.32160  0.40050  0.85390  Biso   1.000  O
  O286     1.0000 0.43320  0.39210  0.89230  Biso   1.000  O
  O287     1.0000 0.49500  0.29190  0.92020  Biso   1.000  O
  O288     1.0000 0.37090  0.28650  0.86820  Biso   1.000  O
  O289     1.0000 0.33770  0.23460  0.74390  Biso   1.000  O
  O290     1.0000 0.38680  0.23180  0.63540  Biso   1.000  O
  O291     1.0000 0.44280  0.19520  0.58730  Biso   1.000  O
  O292     1.0000 0.43470  0.07840  0.60580  Biso   1.000  O
  O293     1.0000 0.37770  0.11300  0.65690  Biso   1.000  O
  O294     1.0000 0.52170  0.16250  0.83300  Biso   1.000  O
  O295     1.0000 0.34750  0.11740  0.72360  Biso   1.000  O
  O296     1.0000 0.42160  0.16560  0.78960  Biso   1.000  O
  O297     1.0000 0.33370  0.19750  0.81720  Biso   1.000  O
  O298     1.0000 0.44830  0.19540  0.86300  Biso   1.000  O
  O299     1.0000 0.41790  0.20450  0.92420  Biso   1.000  O
  O300     1.0000 0.51960  0.20470  0.97870  Biso   1.000  O
  O301     1.0000 0.48990  0.11540  0.92420  Biso   1.000  O
  O302     1.0000 0.36710  0.11290  0.87190  Biso   1.000  O
  O303     1.0000 0.45560  0.08470  0.84370  Biso   1.000  O
  O304     1.0000 0.34290  0.08270  0.79490  Biso   1.000  O
  O305     1.0000 0.45000  0.08070  0.72870  Biso   1.000  O
  O306     1.0000 0.29990  0.02990  0.66710  Biso   1.000  O
  O307     1.0000 0.40330  0.99630  0.66800  Biso   1.000  O
  O308     1.0000 0.37540  0.99550  0.73620  Biso   1.000  O
  O309     1.0000 0.48650  0.99870  0.78060  Biso   1.000  O
  O310     1.0000 0.39890  0.97400  0.81230  Biso   1.000  O
  O311     1.0000 0.43090  0.01080  0.89140  Biso   1.000  O
  O312     1.0000 0.51720  0.97620  0.86710  Biso   1.000  O
  O313     1.0000 0.47590  0.89310  0.80580  Biso   1.000  O
  O314     1.0000 0.43800  0.91080  0.72260  Biso   1.000  O
  N73      1.0000 0.42180  0.79020  0.50920  Biso   1.000  N
  H271     1.0000 0.42030  0.80130  0.48500  Biso   1.000  H
  N74      1.0000 0.46610  0.80000  0.54190  Biso   1.000  N
  N75      1.0000 0.34650  0.64040  0.61620  Biso   1.000  N
  N76      1.0000 0.31980  0.69370  0.61980  Biso   1.000  N
  H272     1.0000 0.29720  0.69730  0.63360  Biso   1.000  H
  N77      1.0000 0.17630  0.03080  0.42930  Biso   1.000  N
  H273     1.0000 0.15610  0.05480  0.41090  Biso   1.000  H
  N78      1.0000 0.19840  0.97640  0.42030  Biso   1.000  N
  N79      1.0000 0.29450  0.96160  0.59100  Biso   1.000  N
  H274     1.0000 0.32430  0.95800  0.61120  Biso   1.000  H
  N80      1.0000 0.24490  0.95540  0.59460  Biso   1.000  N
  N81      1.0000 0.13320  0.03760  0.63830  Biso   1.000  N
  H275     1.0000 0.11990  0.00660  0.64740  Biso   1.000  H
  N82      1.0000 0.18300  0.03810  0.63150  Biso   1.000  N
  N83      1.0000 0.13510  0.28560  0.59460  Biso   1.000  N
  H276     1.0000 0.14750  0.32210  0.60050  Biso   1.000  H
  N84      1.0000 0.08980  0.27170  0.56250  Biso   1.000  N
  C187     1.0000 0.33050  0.74350  0.48440  Biso   1.000  C
  H277     1.0000 0.33060  0.70000  0.48080  Biso   1.000  H
  H278     1.0000 0.29820  0.75530  0.49120  Biso   1.000  H
  H279     1.0000 0.33030  0.76340  0.45960  Biso   1.000  H
  C188     1.0000 0.38090  0.76200  0.51770  Biso   1.000  C
  C189     1.0000 0.39850  0.75050  0.55760  Biso   1.000  C
  C190     1.0000 0.45030  0.77360  0.57140  Biso   1.000  C
  C191     1.0000 0.48830  0.77280  0.61470  Biso   1.000  C
  H280     1.0000 0.48940  0.81270  0.62640  Biso   1.000  H
  H281     1.0000 0.47490  0.74380  0.63020  Biso   1.000  H
  H282     1.0000 0.52490  0.76130  0.61500  Biso   1.000  H
  C192     1.0000 0.30690  0.80270  0.60020  Biso   1.000  C
  H283     1.0000 0.33340  0.83440  0.60110  Biso   1.000  H
  H284     1.0000 0.27550  0.80780  0.57650  Biso   1.000  H
  H285     1.0000 0.29530  0.80510  0.62400  Biso   1.000  H
  C193     1.0000 0.33350  0.74010  0.59870  Biso   1.000  C
  C194     1.0000 0.37000  0.71840  0.58190  Biso   1.000  C
  C195     1.0000 0.37750  0.65640  0.59260  Biso   1.000  C
  C196     1.0000 0.41020  0.61000  0.57780  Biso   1.000  C
  H286     1.0000 0.39090  0.60000  0.55000  Biso   1.000  H
  H287     1.0000 0.44580  0.62670  0.57970  Biso   1.000  H
  H288     1.0000 0.41470  0.57380  0.59410  Biso   1.000  H
  C197     1.0000 0.25360  0.89410  0.46210  Biso   1.000  C
  H289     1.0000 0.22940  0.86220  0.44770  Biso   1.000  H
  H290     1.0000 0.28480  0.89710  0.45220  Biso   1.000  H
  H291     1.0000 0.26610  0.88480  0.49060  Biso   1.000  H
  C198     1.0000 0.22350  0.95270  0.45550  Biso   1.000  C
  C199     1.0000 0.21900  0.99000  0.48670  Biso   1.000  C
  C200     1.0000 0.18890  0.04230  0.46820  Biso   1.000  C
  C201     1.0000 0.17330  0.09700  0.48590  Biso   1.000  C
  H292     1.0000 0.20480  0.12350  0.49550  Biso   1.000  H
  H293     1.0000 0.14440  0.11800  0.46570  Biso   1.000  H
  H294     1.0000 0.16050  0.08580  0.50820  Biso   1.000  H
  C202     1.0000 0.14950  0.96000  0.54800  Biso   1.000  C
  H295     1.0000 0.13550  0.99960  0.55170  Biso   1.000  H
  H296     1.0000 0.13370  0.94760  0.52020  Biso   1.000  H
  H297     1.0000 0.13960  0.93090  0.56530  Biso   1.000  H
  C203     1.0000 0.21200  0.96280  0.55860  Biso   1.000  C
  C204     1.0000 0.24110  0.97690  0.53190  Biso   1.000  C
  C205     1.0000 0.29470  0.97330  0.55520  Biso   1.000  C
  C206     1.0000 0.34640  0.98010  0.54210  Biso   1.000  C
  H298     1.0000 0.37860  0.97920  0.56570  Biso   1.000  H
  H299     1.0000 0.34810  0.94700  0.52440  Biso   1.000  H
  H300     1.0000 0.34500  0.01820  0.52820  Biso   1.000  H
  C207     1.0000 0.23540  0.11230  0.60280  Biso   1.000  C
  H301     1.0000 0.25310  0.07720  0.59560  Biso   1.000  H
  H302     1.0000 0.22250  0.13890  0.57980  Biso   1.000  H
  H303     1.0000 0.26140  0.13370  0.62470  Biso   1.000  H
  C208     1.0000 0.18640  0.09140  0.61620  Biso   1.000  C
  C209     1.0000 0.13860  0.12520  0.61260  Biso   1.000  C
  C210     1.0000 0.10790  0.09080  0.62900  Biso   1.000  C
  C211     1.0000 0.05440  0.09900  0.63300  Biso   1.000  C
  H304     1.0000 0.05770  0.10700  0.66090  Biso   1.000  H
  H305     1.0000 0.03650  0.13300  0.61660  Biso   1.000  H
  H306     1.0000 0.03290  0.06270  0.62410  Biso   1.000  H
  C212     1.0000 0.04060  0.17590  0.53560  Biso   1.000  C
  H307     1.0000 0.00580  0.18320  0.54010  Biso   1.000  H
  H308     1.0000 0.03850  0.18870  0.50870  Biso   1.000  H
  H309     1.0000 0.04910  0.13300  0.53860  Biso   1.000  H
  C213     1.0000 0.08590  0.21200  0.56650  Biso   1.000  C
  C214     1.0000 0.12800  0.18910  0.59860  Biso   1.000  C
  C215     1.0000 0.15760  0.23740  0.61530  Biso   1.000  C
  C216     1.0000 0.21960  0.24400  0.64020  Biso   1.000  C
  H310     1.0000 0.24110  0.25010  0.62220  Biso   1.000  H
  H311     1.0000 0.23220  0.20720  0.65580  Biso   1.000  H
  H312     1.0000 0.22390  0.27800  0.65820  Biso   1.000  H
  Na7      1.0000 0.43650  0.20140  0.72240  Biso   1.000  Na
  O315     1.0000 0.46190  0.20200  0.73180  Biso   1.000  O
  C217     1.0000 0.20380  0.23900  0.65680  Biso   1.000  C
  H313     1.0000 0.18780  0.23320  0.67810  Biso   1.000  H
  H314     1.0000 0.22200  0.27830  0.66010  Biso   1.000  H
  H315     1.0000 0.23030  0.20750  0.65780  Biso   1.000  H
  W106     1.0000 0.91641  0.42949  0.76551  Biso   1.000  W
  W107     1.0000 0.04286  0.43874  0.83006  Biso   1.000  W
  W108     1.0000 0.00448  0.54350  0.90394  Biso   1.000  W
  W109     1.0000 0.87702  0.53340  0.83947  Biso   1.000  W
  W110     1.0000 0.86648  0.55532  0.69425  Biso   1.000  W
  W111     1.0000 0.89960  0.65263  0.61665  Biso   1.000  W
  W112     1.0000 0.82951  0.66068  0.76593  Biso   1.000  W
  W113     1.0000 0.86238  0.69400  0.87403  Biso   1.000  W
  W114     1.0000 0.99487  0.71021  0.92749  Biso   1.000  W
  W115     1.0000 0.87708  0.85966  0.84628  Biso   1.000  W
  W116     1.0000 0.84537  0.82220  0.73660  Biso   1.000  W
  W117     1.0000 0.88762  0.81630  0.64278  Biso   1.000  W
  W118     1.0000 0.99110  0.87637  0.59954  Biso   1.000  W
  W119     1.0000 0.95245  0.96783  0.67730  Biso   1.000  W
  W120     1.0000 0.91315  0.96760  0.77368  Biso   1.000  W
  Ni22     1.0000 0.73678  0.46739  0.65200  Biso   1.000  Ni
  Ni23     1.0000 0.03605  0.66069  0.03460  Biso   1.000  Ni
  Ni24     1.0000 0.82928  0.05898  0.63764  Biso   1.000  Ni
  P15      1.0000 0.97670  0.83090  0.80093  Biso   1.000  P
  P16      1.0000 0.96200  0.65260  0.83129  Biso   1.000  P
  O316     1.0000 0.97910  0.94010  0.63040  Biso   1.000  O
  O317     1.0000 0.90900  0.02390  0.64820  Biso   1.000  O
  O318     1.0000 0.02270  0.01150  0.69560  Biso   1.000  O
  O319     1.0000 0.94060  0.98070  0.72520  Biso   1.000  O
  O320     1.0000 0.89680  0.93770  0.81640  Biso   1.000  O
  O321     1.0000 0.87120  0.90400  0.73910  Biso   1.000  O
  O322     1.0000 0.98260  0.89890  0.78860  Biso   1.000  O
  O323     1.0000 0.90490  0.90100  0.66370  Biso   1.000  O
  O324     1.0000 0.93050  0.83320  0.60830  Biso   1.000  O
  O325     1.0000 0.03180  0.79850  0.81110  Biso   1.000  O
  O326     1.0000 0.86200  0.80750  0.68980  Biso   1.000  O
  O327     1.0000 0.93280  0.80020  0.76550  Biso   1.000  O
  O328     1.0000 0.84690  0.83250  0.79270  Biso   1.000  O
  O329     1.0000 0.95670  0.83260  0.83990  Biso   1.000  O
  O330     1.0000 0.82160  0.90050  0.85390  Biso   1.000  O
  O331     1.0000 0.93320  0.89210  0.89230  Biso   1.000  O
  O332     1.0000 0.99500  0.79190  0.92020  Biso   1.000  O
  O333     1.0000 0.87090  0.78650  0.86820  Biso   1.000  O
  O334     1.0000 0.83770  0.73460  0.74390  Biso   1.000  O
  O335     1.0000 0.88680  0.73180  0.63540  Biso   1.000  O
  O336     1.0000 0.94280  0.69520  0.58730  Biso   1.000  O
  O337     1.0000 0.93470  0.57840  0.60580  Biso   1.000  O
  O338     1.0000 0.87770  0.61300  0.65690  Biso   1.000  O
  O339     1.0000 0.02170  0.66250  0.83300  Biso   1.000  O
  O340     1.0000 0.84750  0.61740  0.72360  Biso   1.000  O
  O341     1.0000 0.92160  0.66560  0.78960  Biso   1.000  O
  O342     1.0000 0.83370  0.69750  0.81720  Biso   1.000  O
  O343     1.0000 0.94830  0.69540  0.86300  Biso   1.000  O
  O344     1.0000 0.91790  0.70450  0.92420  Biso   1.000  O
  O345     1.0000 0.01960  0.70470  0.97870  Biso   1.000  O
  O346     1.0000 0.98990  0.61540  0.92420  Biso   1.000  O
  O347     1.0000 0.86710  0.61290  0.87190  Biso   1.000  O
  O348     1.0000 0.95560  0.58470  0.84370  Biso   1.000  O
  O349     1.0000 0.84290  0.58270  0.79490  Biso   1.000  O
  O350     1.0000 0.95000  0.58070  0.72870  Biso   1.000  O
  O351     1.0000 0.79990  0.52990  0.66710  Biso   1.000  O
  O352     1.0000 0.90330  0.49630  0.66800  Biso   1.000  O
  O353     1.0000 0.87540  0.49550  0.73620  Biso   1.000  O
  O354     1.0000 0.98650  0.49870  0.78060  Biso   1.000  O
  O355     1.0000 0.89890  0.47400  0.81230  Biso   1.000  O
  O356     1.0000 0.93090  0.51080  0.89140  Biso   1.000  O
  O357     1.0000 0.01720  0.47620  0.86710  Biso   1.000  O
  O358     1.0000 0.97590  0.39310  0.80580  Biso   1.000  O
  O359     1.0000 0.93800  0.41080  0.72260  Biso   1.000  O
  N85      1.0000 0.92180  0.29020  0.50920  Biso   1.000  N
  H316     1.0000 0.92030  0.30130  0.48500  Biso   1.000  H
  N86      1.0000 0.96610  0.30000  0.54190  Biso   1.000  N
  N87      1.0000 0.84650  0.14040  0.61620  Biso   1.000  N
  N88      1.0000 0.81980  0.19370  0.61980  Biso   1.000  N
  H317     1.0000 0.79720  0.19730  0.63360  Biso   1.000  H
  N89      1.0000 0.67630  0.53080  0.42930  Biso   1.000  N
  H318     1.0000 0.65610  0.55480  0.41090  Biso   1.000  H
  N90      1.0000 0.69840  0.47640  0.42030  Biso   1.000  N
  N91      1.0000 0.79450  0.46160  0.59100  Biso   1.000  N
  H319     1.0000 0.82430  0.45800  0.61120  Biso   1.000  H
  N92      1.0000 0.74490  0.45540  0.59460  Biso   1.000  N
  N93      1.0000 0.63320  0.53760  0.63830  Biso   1.000  N
  H320     1.0000 0.61990  0.50660  0.64740  Biso   1.000  H
  N94      1.0000 0.68300  0.53810  0.63150  Biso   1.000  N
  N95      1.0000 0.63510  0.78560  0.59460  Biso   1.000  N
  H321     1.0000 0.64750  0.82210  0.60050  Biso   1.000  H
  N96      1.0000 0.58980  0.77170  0.56250  Biso   1.000  N
  C218     1.0000 0.83050  0.24350  0.48440  Biso   1.000  C
  H322     1.0000 0.83060  0.20000  0.48080  Biso   1.000  H
  H323     1.0000 0.79820  0.25530  0.49120  Biso   1.000  H
  H324     1.0000 0.83030  0.26340  0.45960  Biso   1.000  H
  C219     1.0000 0.88090  0.26200  0.51770  Biso   1.000  C
  C220     1.0000 0.89850  0.25050  0.55760  Biso   1.000  C
  C221     1.0000 0.95030  0.27360  0.57140  Biso   1.000  C
  C222     1.0000 0.98830  0.27280  0.61470  Biso   1.000  C
  H325     1.0000 0.98940  0.31270  0.62640  Biso   1.000  H
  H326     1.0000 0.97490  0.24380  0.63020  Biso   1.000  H
  H327     1.0000 0.02490  0.26130  0.61500  Biso   1.000  H
  C223     1.0000 0.80690  0.30270  0.60020  Biso   1.000  C
  H328     1.0000 0.83340  0.33440  0.60110  Biso   1.000  H
  H329     1.0000 0.77550  0.30780  0.57650  Biso   1.000  H
  H330     1.0000 0.79530  0.30510  0.62400  Biso   1.000  H
  C224     1.0000 0.83350  0.24010  0.59870  Biso   1.000  C
  C225     1.0000 0.87000  0.21840  0.58190  Biso   1.000  C
  C226     1.0000 0.87750  0.15640  0.59260  Biso   1.000  C
  C227     1.0000 0.91020  0.11000  0.57780  Biso   1.000  C
  H331     1.0000 0.89090  0.10000  0.55000  Biso   1.000  H
  H332     1.0000 0.94580  0.12670  0.57970  Biso   1.000  H
  H333     1.0000 0.91470  0.07380  0.59410  Biso   1.000  H
  C228     1.0000 0.75360  0.39410  0.46210  Biso   1.000  C
  H334     1.0000 0.72940  0.36220  0.44770  Biso   1.000  H
  H335     1.0000 0.78480  0.39710  0.45220  Biso   1.000  H
  H336     1.0000 0.76610  0.38480  0.49060  Biso   1.000  H
  C229     1.0000 0.72350  0.45270  0.45550  Biso   1.000  C
  C230     1.0000 0.71900  0.49000  0.48670  Biso   1.000  C
  C231     1.0000 0.68890  0.54230  0.46820  Biso   1.000  C
  C232     1.0000 0.67330  0.59700  0.48590  Biso   1.000  C
  H337     1.0000 0.70480  0.62350  0.49550  Biso   1.000  H
  H338     1.0000 0.64440  0.61800  0.46570  Biso   1.000  H
  H339     1.0000 0.66050  0.58580  0.50820  Biso   1.000  H
  C233     1.0000 0.64950  0.46000  0.54800  Biso   1.000  C
  H340     1.0000 0.63550  0.49960  0.55170  Biso   1.000  H
  H341     1.0000 0.63370  0.44760  0.52020  Biso   1.000  H
  H342     1.0000 0.63960  0.43090  0.56530  Biso   1.000  H
  C234     1.0000 0.71200  0.46280  0.55860  Biso   1.000  C
  C235     1.0000 0.74110  0.47690  0.53190  Biso   1.000  C
  C236     1.0000 0.79470  0.47330  0.55520  Biso   1.000  C
  C237     1.0000 0.84640  0.48010  0.54210  Biso   1.000  C
  H343     1.0000 0.87860  0.47920  0.56570  Biso   1.000  H
  H344     1.0000 0.84810  0.44700  0.52440  Biso   1.000  H
  H345     1.0000 0.84500  0.51820  0.52820  Biso   1.000  H
  C238     1.0000 0.73540  0.61230  0.60280  Biso   1.000  C
  H346     1.0000 0.75310  0.57720  0.59560  Biso   1.000  H
  H347     1.0000 0.72250  0.63890  0.57980  Biso   1.000  H
  H348     1.0000 0.76140  0.63370  0.62470  Biso   1.000  H
  C239     1.0000 0.68640  0.59140  0.61620  Biso   1.000  C
  C240     1.0000 0.63860  0.62520  0.61260  Biso   1.000  C
  C241     1.0000 0.60790  0.59080  0.62900  Biso   1.000  C
  C242     1.0000 0.55440  0.59900  0.63300  Biso   1.000  C
  H349     1.0000 0.55770  0.60700  0.66090  Biso   1.000  H
  H350     1.0000 0.53650  0.63300  0.61660  Biso   1.000  H
  H351     1.0000 0.53290  0.56270  0.62410  Biso   1.000  H
  C243     1.0000 0.54060  0.67590  0.53560  Biso   1.000  C
  H352     1.0000 0.50580  0.68320  0.54010  Biso   1.000  H
  H353     1.0000 0.53850  0.68870  0.50870  Biso   1.000  H
  H354     1.0000 0.54910  0.63300  0.53860  Biso   1.000  H
  C244     1.0000 0.58590  0.71200  0.56650  Biso   1.000  C
  C245     1.0000 0.62800  0.68910  0.59860  Biso   1.000  C
  C246     1.0000 0.65760  0.73740  0.61530  Biso   1.000  C
  C247     1.0000 0.71960  0.74400  0.64020  Biso   1.000  C
  H355     1.0000 0.74110  0.75010  0.62220  Biso   1.000  H
  H356     1.0000 0.73220  0.70720  0.65580  Biso   1.000  H
  H357     1.0000 0.72390  0.77800  0.65820  Biso   1.000  H
  Na8      1.0000 0.93650  0.70140  0.72240  Biso   1.000  Na
  O360     1.0000 0.96190  0.70200  0.73180  Biso   1.000  O
  C248     1.0000 0.70380  0.73900  0.65680  Biso   1.000  C
  H358     1.0000 0.68780  0.73320  0.67810  Biso   1.000  H
  H359     1.0000 0.72200  0.77830  0.66010  Biso   1.000  H
  H360     1.0000 0.73030  0.70750  0.65780  Biso   1.000  H
  P17      1.0000 0.50000  0.95970  0.25000  Biso   1.000  P
  P18      1.0000 0.00000  0.45970  0.25000  Biso   1.000  P
  P19      1.0000 0.50000  0.04030  0.75000  Biso   1.000  P
  P20      1.0000 0.00000  0.54030  0.75000  Biso   1.000  P
