data_image0
_cell_length_a       32.47
_cell_length_b       22.115
_cell_length_c       20.273
_cell_angle_alpha    90
_cell_angle_beta     90
_cell_angle_gamma    90

_symmetry_space_group_name_H-M    "P 1"
_symmetry_int_tables_number       1

loop_
  _symmetry_equiv_pos_as_xyz
  'x, y, z'

loop_
  _atom_site_label
  _atom_site_occupancy
  _atom_site_fract_x
  _atom_site_fract_y
  _atom_site_fract_z
  _atom_site_thermal_displace_type
  _atom_site_B_iso_or_equiv
  _atom_site_type_symbol
  Cu1      1.0000 0.96242  0.85432  0.72297  Biso   1.000  Cu
  Cu2      1.0000 0.96112  0.92377  0.58648  Biso   1.000  Cu
  Cu3      1.0000 0.01624  0.81573  0.61089  Biso   1.000  Cu
  Cu4      1.0000 0.96681  0.98549  0.44975  Biso   1.000  Cu
  C1       1.0000 0.76425  0.88270  0.46030  Biso   1.000  C
  C2       1.0000 0.78910  0.90870  0.40920  Biso   1.000  C
  C3       1.0000 0.78120  0.87480  0.52080  Biso   1.000  C
  C4       1.0000 0.82932  0.92400  0.42100  Biso   1.000  C
  H1       1.0000 0.84520  0.94010  0.38720  Biso   1.000  H
  C5       1.0000 0.84654  0.91580  0.48300  Biso   1.000  C
  C6       1.0000 0.88991  0.93420  0.49670  Biso   1.000  C
  C7       1.0000 0.82258  0.89050  0.53210  Biso   1.000  C
  H2       1.0000 0.83410  0.88360  0.57340  Biso   1.000  H
  C8       1.0000 0.70100  0.81950  0.43180  Biso   1.000  C
  C9       1.0000 0.71891  0.87260  0.44760  Biso   1.000  C
  C10      1.0000 0.69360  0.92220  0.45420  Biso   1.000  C
  H3       1.0000 0.70510  0.95910  0.46610  Biso   1.000  H
  C11      1.0000 0.65141  0.91890  0.44350  Biso   1.000  C
  H4       1.0000 0.63520  0.95340  0.44680  Biso   1.000  H
  C12      1.0000 0.63351  0.86350  0.42780  Biso   1.000  C
  C13      1.0000 0.65840  0.81380  0.42240  Biso   1.000  C
  H5       1.0000 0.64710  0.77630  0.41250  Biso   1.000  H
  C14      1.0000 0.58807  0.85890  0.41700  Biso   1.000  C
  C15      1.0000 0.87957  0.87280  0.76100  Biso   1.000  C
  C16      1.0000 0.84091  0.91280  0.75470  Biso   1.000  C
  C17      1.0000 0.80890  0.90400  0.79840  Biso   1.000  C
  H6       1.0000 0.81050  0.87510  0.83160  Biso   1.000  H
  C18      1.0000 0.77370  0.94040  0.79080  Biso   1.000  C
  H7       1.0000 0.75210  0.93590  0.82050  Biso   1.000  H
  C19      1.0000 0.77013  0.98110  0.74280  Biso   1.000  C
  C20      1.0000 0.80203  0.98840  0.70150  Biso   1.000  C
  C21      1.0000 0.83835  0.95500  0.70690  Biso   1.000  C
  H8       1.0000 0.86020  0.96170  0.67820  Biso   1.000  H
  C22      1.0000 0.99073  0.83270  0.48030  Biso   1.000  C
  C23      1.0000 0.98434  0.80900  0.41100  Biso   1.000  C
  C24      1.0000 0.95068  0.82880  0.37320  Biso   1.000  C
  H9       1.0000 0.93280  0.85800  0.38960  Biso   1.000  H
  C25      1.0000 0.94470  0.80410  0.31140  Biso   1.000  C
  C26      1.0000 0.97190  0.76270  0.28370  Biso   1.000  C
  C27      1.0000 0.00518  0.74500  0.32260  Biso   1.000  C
  H10      1.0000 0.02430  0.71770  0.30570  Biso   1.000  H
  C28      1.0000 0.01035  0.76710  0.38550  Biso   1.000  C
  H11      1.0000 0.03210  0.75310  0.41110  Biso   1.000  H
  C29      1.0000 0.99560  0.83410  0.85450  Biso   1.000  C
  C30      1.0000 0.00104  0.85720  0.92360  Biso   1.000  C
  C31      1.0000 0.97260  0.89660  0.94920  Biso   1.000  C
  H12      1.0000 0.95000  0.90810  0.92400  Biso   1.000  H
  C32      1.0000 0.97750  0.91960  0.01280  Biso   1.000  C
  H13      1.0000 0.95820  0.94690  0.02910  Biso   1.000  H
  C33      1.0000 0.01027  0.90280  0.05220  Biso   1.000  C
  C34      1.0000 0.03843  0.86300  0.02360  Biso   1.000  C
  C35      1.0000 0.03446  0.84040  0.96100  Biso   1.000  C
  H14      1.0000 0.05410  0.81400  0.94410  Biso   1.000  H
  C36      1.0000 0.01047  0.92750  0.12050  Biso   1.000  C
  C37      1.0000 0.97550  0.91400  0.16040  Biso   1.000  C
  H15      1.0000 0.95540  0.88820  0.14390  Biso   1.000  H
  C38      1.0000 0.97052  0.93790  0.22230  Biso   1.000  C
  H16      1.0000 0.94720  0.92800  0.24660  Biso   1.000  H
  C39      1.0000 0.99878  0.97560  0.24870  Biso   1.000  C
  C40      1.0000 0.99362  0.00190  0.31620  Biso   1.000  C
  C41      1.0000 0.03383  0.98940  0.21160  Biso   1.000  C
  H17      1.0000 0.05390  0.01480  0.22900  Biso   1.000  H
  C42      1.0000 0.03880  0.96600  0.15040  Biso   1.000  C
  O1       1.0000 0.90923  0.95898  0.45085  Biso   1.000  O
  O2       1.0000 0.90268  0.92258  0.55421  Biso   1.000  O
  O3       1.0000 0.78810  0.95430  0.30450  Biso   1.000  O
  O4       1.0000 0.75080  0.87690  0.31830  Biso   1.000  O
  O5       1.0000 0.76160  0.76950  0.40410  Biso   1.000  O
  O6       1.0000 0.70640  0.71080  0.43850  Biso   1.000  O
  O7       1.0000 0.57512  0.80829  0.39861  Biso   1.000  O
  O8       1.0000 0.56579  0.90373  0.42651  Biso   1.000  O
  O9       1.0000 0.90943  0.89116  0.72638  Biso   1.000  O
  O10      1.0000 0.87923  0.83040  0.79920  Biso   1.000  O
  O11      1.0000 0.82720  0.03820  0.60790  Biso   1.000  O
  O12      1.0000 0.78250  0.08510  0.65920  Biso   1.000  O
  O13      1.0000 0.00751  0.79652  0.51966  Biso   1.000  O
  O14      1.0000 0.97946  0.88505  0.49344  Biso   1.000  O
  O15      1.0000 0.90496  0.81540  0.21740  Biso   1.000  O
  O16      1.0000 0.88188  0.85060  0.30610  Biso   1.000  O
  O17      1.0000 0.01429  0.78665  0.83951  Biso   1.000  O
  O18      1.0000 0.97273  0.86470  0.81685  Biso   1.000  O
  O19      1.0000 0.10450  0.82280  0.02810  Biso   1.000  O
  O20      1.0000 0.07618  0.84720  0.12020  Biso   1.000  O
  O21      1.0000 0.07968  0.97750  0.05450  Biso   1.000  O
  O22      1.0000 0.10574  0.00080  0.14610  Biso   1.000  O
  O23      1.0000 0.01482  0.04752  0.32947  Biso   1.000  O
  O24      1.0000 0.96902  0.97506  0.35439  Biso   1.000  O
  O25      1.0000 0.97331  0.99926  0.54415  Biso   1.000  O
  H18      1.0000 0.95660  0.03290  0.56070  Biso   1.000  H
  O26      1.0000 0.95951  0.84411  0.62631  Biso   1.000  O
  H19      1.0000 0.93770  0.81730  0.61030  Biso   1.000  H
  O27      1.0000 0.01859  0.82652  0.70669  Biso   1.000  O
  H20      1.0000 0.03960  0.85560  0.72080  Biso   1.000  H
  O28      1.0000 0.77130  0.85610  0.64170  Biso   1.000  O
  O29      1.0000 0.73470  0.79870  0.56560  Biso   1.000  O
  N1       1.0000 0.77520  0.91400  0.33960  Biso   1.000  N
  N2       1.0000 0.76560  0.83360  0.58240  Biso   1.000  N
  N3       1.0000 0.72470  0.76090  0.42570  Biso   1.000  N
  N4       1.0000 0.80020  0.03160  0.64670  Biso   1.000  N
  N5       1.0000 0.90860  0.82360  0.27570  Biso   1.000  N
  N6       1.0000 0.07609  0.84230  0.05980  Biso   1.000  N
  N7       1.0000 0.07741  0.98230  0.11550  Biso   1.000  N
  O30      1.0000 0.75970  0.75710  0.44760  Biso   1.000  O
  O31      1.0000 0.71030  0.71730  0.38530  Biso   1.000  O
  O32      1.0000 0.78740  0.80120  0.63220  Biso   1.000  O
  O33      1.0000 0.72640  0.82590  0.57660  Biso   1.000  O
  Cu5      1.0000 0.53758  0.14568  0.72297  Biso   1.000  Cu
  Cu6      1.0000 0.53888  0.07623  0.58648  Biso   1.000  Cu
  Cu7      1.0000 0.48376  0.18427  0.61089  Biso   1.000  Cu
  Cu8      1.0000 0.53319  0.01451  0.44975  Biso   1.000  Cu
  C43      1.0000 0.73575  0.11730  0.46030  Biso   1.000  C
  C44      1.0000 0.71090  0.09130  0.40920  Biso   1.000  C
  C45      1.0000 0.71880  0.12520  0.52080  Biso   1.000  C
  C46      1.0000 0.67068  0.07600  0.42100  Biso   1.000  C
  H21      1.0000 0.65480  0.05990  0.38720  Biso   1.000  H
  C47      1.0000 0.65346  0.08420  0.48300  Biso   1.000  C
  C48      1.0000 0.61009  0.06580  0.49670  Biso   1.000  C
  C49      1.0000 0.67742  0.10950  0.53210  Biso   1.000  C
  H22      1.0000 0.66590  0.11640  0.57340  Biso   1.000  H
  C50      1.0000 0.79900  0.18050  0.43180  Biso   1.000  C
  C51      1.0000 0.78109  0.12740  0.44760  Biso   1.000  C
  C52      1.0000 0.80640  0.07780  0.45420  Biso   1.000  C
  H23      1.0000 0.79490  0.04090  0.46610  Biso   1.000  H
  C53      1.0000 0.84859  0.08110  0.44350  Biso   1.000  C
  H24      1.0000 0.86480  0.04660  0.44680  Biso   1.000  H
  C54      1.0000 0.86649  0.13650  0.42780  Biso   1.000  C
  C55      1.0000 0.84160  0.18620  0.42240  Biso   1.000  C
  H25      1.0000 0.85290  0.22370  0.41250  Biso   1.000  H
  C56      1.0000 0.91193  0.14110  0.41700  Biso   1.000  C
  C57      1.0000 0.62043  0.12720  0.76100  Biso   1.000  C
  C58      1.0000 0.65909  0.08720  0.75470  Biso   1.000  C
  C59      1.0000 0.69110  0.09600  0.79840  Biso   1.000  C
  H26      1.0000 0.68950  0.12490  0.83160  Biso   1.000  H
  C60      1.0000 0.72630  0.05960  0.79080  Biso   1.000  C
  H27      1.0000 0.74790  0.06410  0.82050  Biso   1.000  H
  C61      1.0000 0.72987  0.01890  0.74280  Biso   1.000  C
  C62      1.0000 0.69797  0.01160  0.70150  Biso   1.000  C
  C63      1.0000 0.66165  0.04500  0.70690  Biso   1.000  C
  H28      1.0000 0.63980  0.03830  0.67820  Biso   1.000  H
  C64      1.0000 0.50927  0.16730  0.48030  Biso   1.000  C
  C65      1.0000 0.51566  0.19100  0.41100  Biso   1.000  C
  C66      1.0000 0.54932  0.17120  0.37320  Biso   1.000  C
  H29      1.0000 0.56720  0.14200  0.38960  Biso   1.000  H
  C67      1.0000 0.55530  0.19590  0.31140  Biso   1.000  C
  C68      1.0000 0.52810  0.23730  0.28370  Biso   1.000  C
  C69      1.0000 0.49482  0.25500  0.32260  Biso   1.000  C
  H30      1.0000 0.47570  0.28230  0.30570  Biso   1.000  H
  C70      1.0000 0.48965  0.23290  0.38550  Biso   1.000  C
  H31      1.0000 0.46790  0.24690  0.41110  Biso   1.000  H
  C71      1.0000 0.50440  0.16590  0.85450  Biso   1.000  C
  C72      1.0000 0.49896  0.14280  0.92360  Biso   1.000  C
  C73      1.0000 0.52740  0.10340  0.94920  Biso   1.000  C
  H32      1.0000 0.55000  0.09190  0.92400  Biso   1.000  H
  C74      1.0000 0.52250  0.08040  0.01280  Biso   1.000  C
  H33      1.0000 0.54180  0.05310  0.02910  Biso   1.000  H
  C75      1.0000 0.48973  0.09720  0.05220  Biso   1.000  C
  C76      1.0000 0.46157  0.13700  0.02360  Biso   1.000  C
  C77      1.0000 0.46554  0.15960  0.96100  Biso   1.000  C
  H34      1.0000 0.44590  0.18600  0.94410  Biso   1.000  H
  C78      1.0000 0.48953  0.07250  0.12050  Biso   1.000  C
  C79      1.0000 0.52450  0.08600  0.16040  Biso   1.000  C
  H35      1.0000 0.54460  0.11180  0.14390  Biso   1.000  H
  C80      1.0000 0.52948  0.06210  0.22230  Biso   1.000  C
  H36      1.0000 0.55280  0.07200  0.24660  Biso   1.000  H
  C81      1.0000 0.50122  0.02440  0.24870  Biso   1.000  C
  C82      1.0000 0.50638  0.99810  0.31620  Biso   1.000  C
  C83      1.0000 0.46617  0.01060  0.21160  Biso   1.000  C
  H37      1.0000 0.44610  0.98520  0.22900  Biso   1.000  H
  C84      1.0000 0.46120  0.03400  0.15040  Biso   1.000  C
  O34      1.0000 0.59077  0.04102  0.45085  Biso   1.000  O
  O35      1.0000 0.59732  0.07742  0.55421  Biso   1.000  O
  O36      1.0000 0.71190  0.04570  0.30450  Biso   1.000  O
  O37      1.0000 0.74920  0.12310  0.31830  Biso   1.000  O
  O38      1.0000 0.73840  0.23050  0.40410  Biso   1.000  O
  O39      1.0000 0.79360  0.28920  0.43850  Biso   1.000  O
  O40      1.0000 0.92488  0.19171  0.39861  Biso   1.000  O
  O41      1.0000 0.93421  0.09627  0.42651  Biso   1.000  O
  O42      1.0000 0.59057  0.10884  0.72638  Biso   1.000  O
  O43      1.0000 0.62077  0.16960  0.79920  Biso   1.000  O
  O44      1.0000 0.67280  0.96180  0.60790  Biso   1.000  O
  O45      1.0000 0.71750  0.91490  0.65920  Biso   1.000  O
  O46      1.0000 0.49249  0.20348  0.51966  Biso   1.000  O
  O47      1.0000 0.52054  0.11495  0.49344  Biso   1.000  O
  O48      1.0000 0.59504  0.18460  0.21740  Biso   1.000  O
  O49      1.0000 0.61812  0.14940  0.30610  Biso   1.000  O
  O50      1.0000 0.48571  0.21335  0.83951  Biso   1.000  O
  O51      1.0000 0.52727  0.13530  0.81685  Biso   1.000  O
  O52      1.0000 0.39550  0.17720  0.02810  Biso   1.000  O
  O53      1.0000 0.42382  0.15280  0.12020  Biso   1.000  O
  O54      1.0000 0.42032  0.02250  0.05450  Biso   1.000  O
  O55      1.0000 0.39426  0.99920  0.14610  Biso   1.000  O
  O56      1.0000 0.48518  0.95248  0.32947  Biso   1.000  O
  O57      1.0000 0.53098  0.02494  0.35439  Biso   1.000  O
  O58      1.0000 0.52669  0.00074  0.54415  Biso   1.000  O
  H38      1.0000 0.54340  0.96710  0.56070  Biso   1.000  H
  O59      1.0000 0.54049  0.15589  0.62631  Biso   1.000  O
  H39      1.0000 0.56230  0.18270  0.61030  Biso   1.000  H
  O60      1.0000 0.48141  0.17348  0.70669  Biso   1.000  O
  H40      1.0000 0.46040  0.14440  0.72080  Biso   1.000  H
  O61      1.0000 0.72870  0.14390  0.64170  Biso   1.000  O
  O62      1.0000 0.76530  0.20130  0.56560  Biso   1.000  O
  N8       1.0000 0.72480  0.08600  0.33960  Biso   1.000  N
  N9       1.0000 0.73440  0.16640  0.58240  Biso   1.000  N
  N10      1.0000 0.77530  0.23910  0.42570  Biso   1.000  N
  N11      1.0000 0.69980  0.96840  0.64670  Biso   1.000  N
  N12      1.0000 0.59140  0.17640  0.27570  Biso   1.000  N
  N13      1.0000 0.42391  0.15770  0.05980  Biso   1.000  N
  N14      1.0000 0.42259  0.01770  0.11550  Biso   1.000  N
  O63      1.0000 0.74030  0.24290  0.44760  Biso   1.000  O
  O64      1.0000 0.78970  0.28270  0.38530  Biso   1.000  O
  O65      1.0000 0.71260  0.19880  0.63220  Biso   1.000  O
  O66      1.0000 0.77360  0.17410  0.57660  Biso   1.000  O
  Cu9      1.0000 0.53758  0.35432  0.77703  Biso   1.000  Cu
  Cu10     1.0000 0.53888  0.42377  0.91352  Biso   1.000  Cu
  Cu11     1.0000 0.48376  0.31573  0.88911  Biso   1.000  Cu
  Cu12     1.0000 0.53319  0.48549  0.05025  Biso   1.000  Cu
  C85      1.0000 0.73575  0.38270  0.03970  Biso   1.000  C
  C86      1.0000 0.71090  0.40870  0.09080  Biso   1.000  C
  C87      1.0000 0.71880  0.37480  0.97920  Biso   1.000  C
  C88      1.0000 0.67068  0.42400  0.07900  Biso   1.000  C
  H41      1.0000 0.65480  0.44010  0.11280  Biso   1.000  H
  C89      1.0000 0.65346  0.41580  0.01700  Biso   1.000  C
  C90      1.0000 0.61009  0.43420  0.00330  Biso   1.000  C
  C91      1.0000 0.67742  0.39050  0.96790  Biso   1.000  C
  H42      1.0000 0.66590  0.38360  0.92660  Biso   1.000  H
  C92      1.0000 0.79900  0.31950  0.06820  Biso   1.000  C
  C93      1.0000 0.78109  0.37260  0.05240  Biso   1.000  C
  C94      1.0000 0.80640  0.42220  0.04580  Biso   1.000  C
  H43      1.0000 0.79490  0.45910  0.03390  Biso   1.000  H
  C95      1.0000 0.84859  0.41890  0.05650  Biso   1.000  C
  H44      1.0000 0.86480  0.45340  0.05320  Biso   1.000  H
  C96      1.0000 0.86649  0.36350  0.07220  Biso   1.000  C
  C97      1.0000 0.84160  0.31380  0.07760  Biso   1.000  C
  H45      1.0000 0.85290  0.27630  0.08750  Biso   1.000  H
  C98      1.0000 0.91193  0.35890  0.08300  Biso   1.000  C
  C99      1.0000 0.62043  0.37280  0.73900  Biso   1.000  C
  C100     1.0000 0.65909  0.41280  0.74530  Biso   1.000  C
  C101     1.0000 0.69110  0.40400  0.70160  Biso   1.000  C
  H46      1.0000 0.68950  0.37510  0.66840  Biso   1.000  H
  C102     1.0000 0.72630  0.44040  0.70920  Biso   1.000  C
  H47      1.0000 0.74790  0.43590  0.67950  Biso   1.000  H
  C103     1.0000 0.72987  0.48110  0.75720  Biso   1.000  C
  C104     1.0000 0.69797  0.48840  0.79850  Biso   1.000  C
  C105     1.0000 0.66165  0.45500  0.79310  Biso   1.000  C
  H48      1.0000 0.63980  0.46170  0.82180  Biso   1.000  H
  C106     1.0000 0.50927  0.33270  0.01970  Biso   1.000  C
  C107     1.0000 0.51566  0.30900  0.08900  Biso   1.000  C
  C108     1.0000 0.54932  0.32880  0.12680  Biso   1.000  C
  H49      1.0000 0.56720  0.35800  0.11040  Biso   1.000  H
  C109     1.0000 0.55530  0.30410  0.18860  Biso   1.000  C
  C110     1.0000 0.52810  0.26270  0.21630  Biso   1.000  C
  C111     1.0000 0.49482  0.24500  0.17740  Biso   1.000  C
  H50      1.0000 0.47570  0.21770  0.19430  Biso   1.000  H
  C112     1.0000 0.48965  0.26710  0.11450  Biso   1.000  C
  H51      1.0000 0.46790  0.25310  0.08890  Biso   1.000  H
  C113     1.0000 0.50440  0.33410  0.64550  Biso   1.000  C
  C114     1.0000 0.49896  0.35720  0.57640  Biso   1.000  C
  C115     1.0000 0.52740  0.39660  0.55080  Biso   1.000  C
  H52      1.0000 0.55000  0.40810  0.57600  Biso   1.000  H
  C116     1.0000 0.52250  0.41960  0.48720  Biso   1.000  C
  H53      1.0000 0.54180  0.44690  0.47090  Biso   1.000  H
  C117     1.0000 0.48973  0.40280  0.44780  Biso   1.000  C
  C118     1.0000 0.46157  0.36300  0.47640  Biso   1.000  C
  C119     1.0000 0.46554  0.34040  0.53900  Biso   1.000  C
  H54      1.0000 0.44590  0.31400  0.55590  Biso   1.000  H
  C120     1.0000 0.48953  0.42750  0.37950  Biso   1.000  C
  C121     1.0000 0.52450  0.41400  0.33960  Biso   1.000  C
  H55      1.0000 0.54460  0.38820  0.35610  Biso   1.000  H
  C122     1.0000 0.52948  0.43790  0.27770  Biso   1.000  C
  H56      1.0000 0.55280  0.42800  0.25340  Biso   1.000  H
  C123     1.0000 0.50122  0.47560  0.25130  Biso   1.000  C
  C124     1.0000 0.50638  0.50190  0.18380  Biso   1.000  C
  C125     1.0000 0.46617  0.48940  0.28840  Biso   1.000  C
  H57      1.0000 0.44610  0.51480  0.27100  Biso   1.000  H
  C126     1.0000 0.46120  0.46600  0.34960  Biso   1.000  C
  O67      1.0000 0.59077  0.45898  0.04915  Biso   1.000  O
  O68      1.0000 0.59732  0.42258  0.94579  Biso   1.000  O
  O69      1.0000 0.71190  0.45430  0.19550  Biso   1.000  O
  O70      1.0000 0.74920  0.37690  0.18170  Biso   1.000  O
  O71      1.0000 0.73840  0.26950  0.09590  Biso   1.000  O
  O72      1.0000 0.79360  0.21080  0.06150  Biso   1.000  O
  O73      1.0000 0.92488  0.30829  0.10139  Biso   1.000  O
  O74      1.0000 0.93421  0.40373  0.07349  Biso   1.000  O
  O75      1.0000 0.59057  0.39116  0.77362  Biso   1.000  O
  O76      1.0000 0.62077  0.33040  0.70080  Biso   1.000  O
  O77      1.0000 0.67280  0.53820  0.89210  Biso   1.000  O
  O78      1.0000 0.71750  0.58510  0.84080  Biso   1.000  O
  O79      1.0000 0.49249  0.29652  0.98034  Biso   1.000  O
  O80      1.0000 0.52054  0.38505  0.00656  Biso   1.000  O
  O81      1.0000 0.59504  0.31540  0.28260  Biso   1.000  O
  O82      1.0000 0.61812  0.35060  0.19390  Biso   1.000  O
  O83      1.0000 0.48571  0.28665  0.66049  Biso   1.000  O
  O84      1.0000 0.52727  0.36470  0.68315  Biso   1.000  O
  O85      1.0000 0.39550  0.32280  0.47190  Biso   1.000  O
  O86      1.0000 0.42382  0.34720  0.37980  Biso   1.000  O
  O87      1.0000 0.42032  0.47750  0.44550  Biso   1.000  O
  O88      1.0000 0.39426  0.50080  0.35390  Biso   1.000  O
  O89      1.0000 0.48518  0.54752  0.17053  Biso   1.000  O
  O90      1.0000 0.53098  0.47506  0.14561  Biso   1.000  O
  O91      1.0000 0.52669  0.49926  0.95585  Biso   1.000  O
  H58      1.0000 0.54340  0.53290  0.93930  Biso   1.000  H
  O92      1.0000 0.54049  0.34411  0.87369  Biso   1.000  O
  H59      1.0000 0.56230  0.31730  0.88970  Biso   1.000  H
  O93      1.0000 0.48141  0.32652  0.79331  Biso   1.000  O
  H60      1.0000 0.46040  0.35560  0.77920  Biso   1.000  H
  O94      1.0000 0.72870  0.35610  0.85830  Biso   1.000  O
  O95      1.0000 0.76530  0.29870  0.93440  Biso   1.000  O
  N15      1.0000 0.72480  0.41400  0.16040  Biso   1.000  N
  N16      1.0000 0.73440  0.33360  0.91760  Biso   1.000  N
  N17      1.0000 0.77530  0.26090  0.07430  Biso   1.000  N
  N18      1.0000 0.69980  0.53160  0.85330  Biso   1.000  N
  N19      1.0000 0.59140  0.32360  0.22430  Biso   1.000  N
  N20      1.0000 0.42391  0.34230  0.44020  Biso   1.000  N
  N21      1.0000 0.42259  0.48230  0.38450  Biso   1.000  N
  O96      1.0000 0.74030  0.25710  0.05240  Biso   1.000  O
  O97      1.0000 0.78970  0.21730  0.11470  Biso   1.000  O
  O98      1.0000 0.71260  0.30120  0.86780  Biso   1.000  O
  O99      1.0000 0.77360  0.32590  0.92340  Biso   1.000  O
  Cu13     1.0000 0.96242  0.64568  0.77703  Biso   1.000  Cu
  Cu14     1.0000 0.96112  0.57623  0.91352  Biso   1.000  Cu
  Cu15     1.0000 0.01624  0.68427  0.88911  Biso   1.000  Cu
  Cu16     1.0000 0.96681  0.51451  0.05025  Biso   1.000  Cu
  C127     1.0000 0.76425  0.61730  0.03970  Biso   1.000  C
  C128     1.0000 0.78910  0.59130  0.09080  Biso   1.000  C
  C129     1.0000 0.78120  0.62520  0.97920  Biso   1.000  C
  C130     1.0000 0.82932  0.57600  0.07900  Biso   1.000  C
  H61      1.0000 0.84520  0.55990  0.11280  Biso   1.000  H
  C131     1.0000 0.84654  0.58420  0.01700  Biso   1.000  C
  C132     1.0000 0.88991  0.56580  0.00330  Biso   1.000  C
  C133     1.0000 0.82258  0.60950  0.96790  Biso   1.000  C
  H62      1.0000 0.83410  0.61640  0.92660  Biso   1.000  H
  C134     1.0000 0.70100  0.68050  0.06820  Biso   1.000  C
  C135     1.0000 0.71891  0.62740  0.05240  Biso   1.000  C
  C136     1.0000 0.69360  0.57780  0.04580  Biso   1.000  C
  H63      1.0000 0.70510  0.54090  0.03390  Biso   1.000  H
  C137     1.0000 0.65141  0.58110  0.05650  Biso   1.000  C
  H64      1.0000 0.63520  0.54660  0.05320  Biso   1.000  H
  C138     1.0000 0.63351  0.63650  0.07220  Biso   1.000  C
  C139     1.0000 0.65840  0.68620  0.07760  Biso   1.000  C
  H65      1.0000 0.64710  0.72370  0.08750  Biso   1.000  H
  C140     1.0000 0.58807  0.64110  0.08300  Biso   1.000  C
  C141     1.0000 0.87957  0.62720  0.73900  Biso   1.000  C
  C142     1.0000 0.84091  0.58720  0.74530  Biso   1.000  C
  C143     1.0000 0.80890  0.59600  0.70160  Biso   1.000  C
  H66      1.0000 0.81050  0.62490  0.66840  Biso   1.000  H
  C144     1.0000 0.77370  0.55960  0.70920  Biso   1.000  C
  H67      1.0000 0.75210  0.56410  0.67950  Biso   1.000  H
  C145     1.0000 0.77013  0.51890  0.75720  Biso   1.000  C
  C146     1.0000 0.80203  0.51160  0.79850  Biso   1.000  C
  C147     1.0000 0.83835  0.54500  0.79310  Biso   1.000  C
  H68      1.0000 0.86020  0.53830  0.82180  Biso   1.000  H
  C148     1.0000 0.99073  0.66730  0.01970  Biso   1.000  C
  C149     1.0000 0.98434  0.69100  0.08900  Biso   1.000  C
  C150     1.0000 0.95068  0.67120  0.12680  Biso   1.000  C
  H69      1.0000 0.93280  0.64200  0.11040  Biso   1.000  H
  C151     1.0000 0.94470  0.69590  0.18860  Biso   1.000  C
  C152     1.0000 0.97190  0.73730  0.21630  Biso   1.000  C
  C153     1.0000 0.00518  0.75500  0.17740  Biso   1.000  C
  H70      1.0000 0.02430  0.78230  0.19430  Biso   1.000  H
  C154     1.0000 0.01035  0.73290  0.11450  Biso   1.000  C
  H71      1.0000 0.03210  0.74690  0.08890  Biso   1.000  H
  C155     1.0000 0.99560  0.66590  0.64550  Biso   1.000  C
  C156     1.0000 0.00104  0.64280  0.57640  Biso   1.000  C
  C157     1.0000 0.97260  0.60340  0.55080  Biso   1.000  C
  H72      1.0000 0.95000  0.59190  0.57600  Biso   1.000  H
  C158     1.0000 0.97750  0.58040  0.48720  Biso   1.000  C
  H73      1.0000 0.95820  0.55310  0.47090  Biso   1.000  H
  C159     1.0000 0.01027  0.59720  0.44780  Biso   1.000  C
  C160     1.0000 0.03843  0.63700  0.47640  Biso   1.000  C
  C161     1.0000 0.03446  0.65960  0.53900  Biso   1.000  C
  H74      1.0000 0.05410  0.68600  0.55590  Biso   1.000  H
  C162     1.0000 0.01047  0.57250  0.37950  Biso   1.000  C
  C163     1.0000 0.97550  0.58600  0.33960  Biso   1.000  C
  H75      1.0000 0.95540  0.61180  0.35610  Biso   1.000  H
  C164     1.0000 0.97052  0.56210  0.27770  Biso   1.000  C
  H76      1.0000 0.94720  0.57200  0.25340  Biso   1.000  H
  C165     1.0000 0.99878  0.52440  0.25130  Biso   1.000  C
  C166     1.0000 0.99362  0.49810  0.18380  Biso   1.000  C
  C167     1.0000 0.03383  0.51060  0.28840  Biso   1.000  C
  H77      1.0000 0.05390  0.48520  0.27100  Biso   1.000  H
  C168     1.0000 0.03880  0.53400  0.34960  Biso   1.000  C
  O100     1.0000 0.90923  0.54102  0.04915  Biso   1.000  O
  O101     1.0000 0.90268  0.57742  0.94579  Biso   1.000  O
  O102     1.0000 0.78810  0.54570  0.19550  Biso   1.000  O
  O103     1.0000 0.75080  0.62310  0.18170  Biso   1.000  O
  O104     1.0000 0.76160  0.73050  0.09590  Biso   1.000  O
  O105     1.0000 0.70640  0.78920  0.06150  Biso   1.000  O
  O106     1.0000 0.57512  0.69171  0.10139  Biso   1.000  O
  O107     1.0000 0.56579  0.59627  0.07349  Biso   1.000  O
  O108     1.0000 0.90943  0.60884  0.77362  Biso   1.000  O
  O109     1.0000 0.87923  0.66960  0.70080  Biso   1.000  O
  O110     1.0000 0.82720  0.46180  0.89210  Biso   1.000  O
  O111     1.0000 0.78250  0.41490  0.84080  Biso   1.000  O
  O112     1.0000 0.00751  0.70348  0.98034  Biso   1.000  O
  O113     1.0000 0.97946  0.61495  0.00656  Biso   1.000  O
  O114     1.0000 0.90496  0.68460  0.28260  Biso   1.000  O
  O115     1.0000 0.88188  0.64940  0.19390  Biso   1.000  O
  O116     1.0000 0.01429  0.71335  0.66049  Biso   1.000  O
  O117     1.0000 0.97273  0.63530  0.68315  Biso   1.000  O
  O118     1.0000 0.10450  0.67720  0.47190  Biso   1.000  O
  O119     1.0000 0.07618  0.65280  0.37980  Biso   1.000  O
  O120     1.0000 0.07968  0.52250  0.44550  Biso   1.000  O
  O121     1.0000 0.10574  0.49920  0.35390  Biso   1.000  O
  O122     1.0000 0.01482  0.45248  0.17053  Biso   1.000  O
  O123     1.0000 0.96902  0.52494  0.14561  Biso   1.000  O
  O124     1.0000 0.97331  0.50074  0.95585  Biso   1.000  O
  H78      1.0000 0.95660  0.46710  0.93930  Biso   1.000  H
  O125     1.0000 0.95951  0.65589  0.87369  Biso   1.000  O
  H79      1.0000 0.93770  0.68270  0.88970  Biso   1.000  H
  O126     1.0000 0.01859  0.67348  0.79331  Biso   1.000  O
  H80      1.0000 0.03960  0.64440  0.77920  Biso   1.000  H
  O127     1.0000 0.77130  0.64390  0.85830  Biso   1.000  O
  O128     1.0000 0.73470  0.70130  0.93440  Biso   1.000  O
  N22      1.0000 0.77520  0.58600  0.16040  Biso   1.000  N
  N23      1.0000 0.76560  0.66640  0.91760  Biso   1.000  N
  N24      1.0000 0.72470  0.73910  0.07430  Biso   1.000  N
  N25      1.0000 0.80020  0.46840  0.85330  Biso   1.000  N
  N26      1.0000 0.90860  0.67640  0.22430  Biso   1.000  N
  N27      1.0000 0.07609  0.65770  0.44020  Biso   1.000  N
  N28      1.0000 0.07741  0.51770  0.38450  Biso   1.000  N
  O129     1.0000 0.75970  0.74290  0.05240  Biso   1.000  O
  O130     1.0000 0.71030  0.78270  0.11470  Biso   1.000  O
  O131     1.0000 0.78740  0.69880  0.86780  Biso   1.000  O
  O132     1.0000 0.72640  0.67410  0.92340  Biso   1.000  O
  Cu17     1.0000 0.03758  0.14568  0.27703  Biso   1.000  Cu
  Cu18     1.0000 0.03888  0.07623  0.41352  Biso   1.000  Cu
  Cu19     1.0000 0.98376  0.18427  0.38911  Biso   1.000  Cu
  Cu20     1.0000 0.03319  0.01451  0.55025  Biso   1.000  Cu
  C169     1.0000 0.23575  0.11730  0.53970  Biso   1.000  C
  C170     1.0000 0.21090  0.09130  0.59080  Biso   1.000  C
  C171     1.0000 0.21880  0.12520  0.47920  Biso   1.000  C
  C172     1.0000 0.17068  0.07600  0.57900  Biso   1.000  C
  H81      1.0000 0.15480  0.05990  0.61280  Biso   1.000  H
  C173     1.0000 0.15346  0.08420  0.51700  Biso   1.000  C
  C174     1.0000 0.11009  0.06580  0.50330  Biso   1.000  C
  C175     1.0000 0.17742  0.10950  0.46790  Biso   1.000  C
  H82      1.0000 0.16590  0.11640  0.42660  Biso   1.000  H
  C176     1.0000 0.29900  0.18050  0.56820  Biso   1.000  C
  C177     1.0000 0.28109  0.12740  0.55240  Biso   1.000  C
  C178     1.0000 0.30640  0.07780  0.54580  Biso   1.000  C
  H83      1.0000 0.29490  0.04090  0.53390  Biso   1.000  H
  C179     1.0000 0.34859  0.08110  0.55650  Biso   1.000  C
  H84      1.0000 0.36480  0.04660  0.55320  Biso   1.000  H
  C180     1.0000 0.36649  0.13650  0.57220  Biso   1.000  C
  C181     1.0000 0.34160  0.18620  0.57760  Biso   1.000  C
  H85      1.0000 0.35290  0.22370  0.58750  Biso   1.000  H
  C182     1.0000 0.41193  0.14110  0.58300  Biso   1.000  C
  C183     1.0000 0.12043  0.12720  0.23900  Biso   1.000  C
  C184     1.0000 0.15909  0.08720  0.24530  Biso   1.000  C
  C185     1.0000 0.19110  0.09600  0.20160  Biso   1.000  C
  H86      1.0000 0.18950  0.12490  0.16840  Biso   1.000  H
  C186     1.0000 0.22630  0.05960  0.20920  Biso   1.000  C
  H87      1.0000 0.24790  0.06410  0.17950  Biso   1.000  H
  C187     1.0000 0.22987  0.01890  0.25720  Biso   1.000  C
  C188     1.0000 0.19797  0.01160  0.29850  Biso   1.000  C
  C189     1.0000 0.16165  0.04500  0.29310  Biso   1.000  C
  H88      1.0000 0.13980  0.03830  0.32180  Biso   1.000  H
  C190     1.0000 0.00927  0.16730  0.51970  Biso   1.000  C
  C191     1.0000 0.01566  0.19100  0.58900  Biso   1.000  C
  C192     1.0000 0.04932  0.17120  0.62680  Biso   1.000  C
  H89      1.0000 0.06720  0.14200  0.61040  Biso   1.000  H
  C193     1.0000 0.05530  0.19590  0.68860  Biso   1.000  C
  C194     1.0000 0.02810  0.23730  0.71630  Biso   1.000  C
  C195     1.0000 0.99482  0.25500  0.67740  Biso   1.000  C
  H90      1.0000 0.97570  0.28230  0.69430  Biso   1.000  H
  C196     1.0000 0.98965  0.23290  0.61450  Biso   1.000  C
  H91      1.0000 0.96790  0.24690  0.58890  Biso   1.000  H
  C197     1.0000 0.00440  0.16590  0.14550  Biso   1.000  C
  C198     1.0000 0.99896  0.14280  0.07640  Biso   1.000  C
  C199     1.0000 0.02740  0.10340  0.05080  Biso   1.000  C
  H92      1.0000 0.05000  0.09190  0.07600  Biso   1.000  H
  C200     1.0000 0.02250  0.08040  0.98720  Biso   1.000  C
  H93      1.0000 0.04180  0.05310  0.97090  Biso   1.000  H
  C201     1.0000 0.98973  0.09720  0.94780  Biso   1.000  C
  C202     1.0000 0.96157  0.13700  0.97640  Biso   1.000  C
  C203     1.0000 0.96554  0.15960  0.03900  Biso   1.000  C
  H94      1.0000 0.94590  0.18600  0.05590  Biso   1.000  H
  C204     1.0000 0.98953  0.07250  0.87950  Biso   1.000  C
  C205     1.0000 0.02450  0.08600  0.83960  Biso   1.000  C
  H95      1.0000 0.04460  0.11180  0.85610  Biso   1.000  H
  C206     1.0000 0.02948  0.06210  0.77770  Biso   1.000  C
  H96      1.0000 0.05280  0.07200  0.75340  Biso   1.000  H
  C207     1.0000 0.00122  0.02440  0.75130  Biso   1.000  C
  C208     1.0000 0.00638  0.99810  0.68380  Biso   1.000  C
  C209     1.0000 0.96617  0.01060  0.78840  Biso   1.000  C
  H97      1.0000 0.94610  0.98520  0.77100  Biso   1.000  H
  C210     1.0000 0.96120  0.03400  0.84960  Biso   1.000  C
  O133     1.0000 0.09077  0.04102  0.54915  Biso   1.000  O
  O134     1.0000 0.09732  0.07742  0.44579  Biso   1.000  O
  O135     1.0000 0.21190  0.04570  0.69550  Biso   1.000  O
  O136     1.0000 0.24920  0.12310  0.68170  Biso   1.000  O
  O137     1.0000 0.23840  0.23050  0.59590  Biso   1.000  O
  O138     1.0000 0.29360  0.28920  0.56150  Biso   1.000  O
  O139     1.0000 0.42488  0.19171  0.60139  Biso   1.000  O
  O140     1.0000 0.43421  0.09627  0.57349  Biso   1.000  O
  O141     1.0000 0.09057  0.10884  0.27362  Biso   1.000  O
  O142     1.0000 0.12077  0.16960  0.20080  Biso   1.000  O
  O143     1.0000 0.17280  0.96180  0.39210  Biso   1.000  O
  O144     1.0000 0.21750  0.91490  0.34080  Biso   1.000  O
  O145     1.0000 0.99249  0.20348  0.48034  Biso   1.000  O
  O146     1.0000 0.02054  0.11495  0.50656  Biso   1.000  O
  O147     1.0000 0.09504  0.18460  0.78260  Biso   1.000  O
  O148     1.0000 0.11812  0.14940  0.69390  Biso   1.000  O
  O149     1.0000 0.98571  0.21335  0.16049  Biso   1.000  O
  O150     1.0000 0.02727  0.13530  0.18315  Biso   1.000  O
  O151     1.0000 0.89550  0.17720  0.97190  Biso   1.000  O
  O152     1.0000 0.92382  0.15280  0.87980  Biso   1.000  O
  O153     1.0000 0.92032  0.02250  0.94550  Biso   1.000  O
  O154     1.0000 0.89426  0.99920  0.85390  Biso   1.000  O
  O155     1.0000 0.98518  0.95248  0.67053  Biso   1.000  O
  O156     1.0000 0.03098  0.02494  0.64561  Biso   1.000  O
  O157     1.0000 0.02669  0.00074  0.45585  Biso   1.000  O
  H98      1.0000 0.04340  0.96710  0.43930  Biso   1.000  H
  O158     1.0000 0.04049  0.15589  0.37369  Biso   1.000  O
  H99      1.0000 0.06230  0.18270  0.38970  Biso   1.000  H
  O159     1.0000 0.98141  0.17348  0.29331  Biso   1.000  O
  H100     1.0000 0.96040  0.14440  0.27920  Biso   1.000  H
  O160     1.0000 0.22870  0.14390  0.35830  Biso   1.000  O
  O161     1.0000 0.26530  0.20130  0.43440  Biso   1.000  O
  N29      1.0000 0.22480  0.08600  0.66040  Biso   1.000  N
  N30      1.0000 0.23440  0.16640  0.41760  Biso   1.000  N
  N31      1.0000 0.27530  0.23910  0.57430  Biso   1.000  N
  N32      1.0000 0.19980  0.96840  0.35330  Biso   1.000  N
  N33      1.0000 0.09140  0.17640  0.72430  Biso   1.000  N
  N34      1.0000 0.92391  0.15770  0.94020  Biso   1.000  N
  N35      1.0000 0.92259  0.01770  0.88450  Biso   1.000  N
  O162     1.0000 0.24030  0.24290  0.55240  Biso   1.000  O
  O163     1.0000 0.28970  0.28270  0.61470  Biso   1.000  O
  O164     1.0000 0.21260  0.19880  0.36780  Biso   1.000  O
  O165     1.0000 0.27360  0.17410  0.42340  Biso   1.000  O
  Cu21     1.0000 0.46242  0.85432  0.27703  Biso   1.000  Cu
  Cu22     1.0000 0.46112  0.92377  0.41352  Biso   1.000  Cu
  Cu23     1.0000 0.51624  0.81573  0.38911  Biso   1.000  Cu
  Cu24     1.0000 0.46681  0.98549  0.55025  Biso   1.000  Cu
  C211     1.0000 0.26425  0.88270  0.53970  Biso   1.000  C
  C212     1.0000 0.28910  0.90870  0.59080  Biso   1.000  C
  C213     1.0000 0.28120  0.87480  0.47920  Biso   1.000  C
  C214     1.0000 0.32932  0.92400  0.57900  Biso   1.000  C
  H101     1.0000 0.34520  0.94010  0.61280  Biso   1.000  H
  C215     1.0000 0.34654  0.91580  0.51700  Biso   1.000  C
  C216     1.0000 0.38991  0.93420  0.50330  Biso   1.000  C
  C217     1.0000 0.32258  0.89050  0.46790  Biso   1.000  C
  H102     1.0000 0.33410  0.88360  0.42660  Biso   1.000  H
  C218     1.0000 0.20100  0.81950  0.56820  Biso   1.000  C
  C219     1.0000 0.21891  0.87260  0.55240  Biso   1.000  C
  C220     1.0000 0.19360  0.92220  0.54580  Biso   1.000  C
  H103     1.0000 0.20510  0.95910  0.53390  Biso   1.000  H
  C221     1.0000 0.15141  0.91890  0.55650  Biso   1.000  C
  H104     1.0000 0.13520  0.95340  0.55320  Biso   1.000  H
  C222     1.0000 0.13351  0.86350  0.57220  Biso   1.000  C
  C223     1.0000 0.15840  0.81380  0.57760  Biso   1.000  C
  H105     1.0000 0.14710  0.77630  0.58750  Biso   1.000  H
  C224     1.0000 0.08807  0.85890  0.58300  Biso   1.000  C
  C225     1.0000 0.37957  0.87280  0.23900  Biso   1.000  C
  C226     1.0000 0.34091  0.91280  0.24530  Biso   1.000  C
  C227     1.0000 0.30890  0.90400  0.20160  Biso   1.000  C
  H106     1.0000 0.31050  0.87510  0.16840  Biso   1.000  H
  C228     1.0000 0.27370  0.94040  0.20920  Biso   1.000  C
  H107     1.0000 0.25210  0.93590  0.17950  Biso   1.000  H
  C229     1.0000 0.27013  0.98110  0.25720  Biso   1.000  C
  C230     1.0000 0.30203  0.98840  0.29850  Biso   1.000  C
  C231     1.0000 0.33835  0.95500  0.29310  Biso   1.000  C
  H108     1.0000 0.36020  0.96170  0.32180  Biso   1.000  H
  C232     1.0000 0.49073  0.83270  0.51970  Biso   1.000  C
  C233     1.0000 0.48434  0.80900  0.58900  Biso   1.000  C
  C234     1.0000 0.45068  0.82880  0.62680  Biso   1.000  C
  H109     1.0000 0.43280  0.85800  0.61040  Biso   1.000  H
  C235     1.0000 0.44470  0.80410  0.68860  Biso   1.000  C
  C236     1.0000 0.47190  0.76270  0.71630  Biso   1.000  C
  C237     1.0000 0.50518  0.74500  0.67740  Biso   1.000  C
  H110     1.0000 0.52430  0.71770  0.69430  Biso   1.000  H
  C238     1.0000 0.51035  0.76710  0.61450  Biso   1.000  C
  H111     1.0000 0.53210  0.75310  0.58890  Biso   1.000  H
  C239     1.0000 0.49560  0.83410  0.14550  Biso   1.000  C
  C240     1.0000 0.50104  0.85720  0.07640  Biso   1.000  C
  C241     1.0000 0.47260  0.89660  0.05080  Biso   1.000  C
  H112     1.0000 0.45000  0.90810  0.07600  Biso   1.000  H
  C242     1.0000 0.47750  0.91960  0.98720  Biso   1.000  C
  H113     1.0000 0.45820  0.94690  0.97090  Biso   1.000  H
  C243     1.0000 0.51027  0.90280  0.94780  Biso   1.000  C
  C244     1.0000 0.53843  0.86300  0.97640  Biso   1.000  C
  C245     1.0000 0.53446  0.84040  0.03900  Biso   1.000  C
  H114     1.0000 0.55410  0.81400  0.05590  Biso   1.000  H
  C246     1.0000 0.51047  0.92750  0.87950  Biso   1.000  C
  C247     1.0000 0.47550  0.91400  0.83960  Biso   1.000  C
  H115     1.0000 0.45540  0.88820  0.85610  Biso   1.000  H
  C248     1.0000 0.47052  0.93790  0.77770  Biso   1.000  C
  H116     1.0000 0.44720  0.92800  0.75340  Biso   1.000  H
  C249     1.0000 0.49878  0.97560  0.75130  Biso   1.000  C
  C250     1.0000 0.49362  0.00190  0.68380  Biso   1.000  C
  C251     1.0000 0.53383  0.98940  0.78840  Biso   1.000  C
  H117     1.0000 0.55390  0.01480  0.77100  Biso   1.000  H
  C252     1.0000 0.53880  0.96600  0.84960  Biso   1.000  C
  O166     1.0000 0.40923  0.95898  0.54915  Biso   1.000  O
  O167     1.0000 0.40268  0.92258  0.44579  Biso   1.000  O
  O168     1.0000 0.28810  0.95430  0.69550  Biso   1.000  O
  O169     1.0000 0.25080  0.87690  0.68170  Biso   1.000  O
  O170     1.0000 0.26160  0.76950  0.59590  Biso   1.000  O
  O171     1.0000 0.20640  0.71080  0.56150  Biso   1.000  O
  O172     1.0000 0.07512  0.80829  0.60139  Biso   1.000  O
  O173     1.0000 0.06579  0.90373  0.57349  Biso   1.000  O
  O174     1.0000 0.40943  0.89116  0.27362  Biso   1.000  O
  O175     1.0000 0.37923  0.83040  0.20080  Biso   1.000  O
  O176     1.0000 0.32720  0.03820  0.39210  Biso   1.000  O
  O177     1.0000 0.28250  0.08510  0.34080  Biso   1.000  O
  O178     1.0000 0.50751  0.79652  0.48034  Biso   1.000  O
  O179     1.0000 0.47946  0.88505  0.50656  Biso   1.000  O
  O180     1.0000 0.40496  0.81540  0.78260  Biso   1.000  O
  O181     1.0000 0.38188  0.85060  0.69390  Biso   1.000  O
  O182     1.0000 0.51429  0.78665  0.16049  Biso   1.000  O
  O183     1.0000 0.47273  0.86470  0.18315  Biso   1.000  O
  O184     1.0000 0.60450  0.82280  0.97190  Biso   1.000  O
  O185     1.0000 0.57618  0.84720  0.87980  Biso   1.000  O
  O186     1.0000 0.57968  0.97750  0.94550  Biso   1.000  O
  O187     1.0000 0.60574  0.00080  0.85390  Biso   1.000  O
  O188     1.0000 0.51482  0.04752  0.67053  Biso   1.000  O
  O189     1.0000 0.46902  0.97506  0.64561  Biso   1.000  O
  O190     1.0000 0.47331  0.99926  0.45585  Biso   1.000  O
  H118     1.0000 0.45660  0.03290  0.43930  Biso   1.000  H
  O191     1.0000 0.45951  0.84411  0.37369  Biso   1.000  O
  H119     1.0000 0.43770  0.81730  0.38970  Biso   1.000  H
  O192     1.0000 0.51859  0.82652  0.29331  Biso   1.000  O
  H120     1.0000 0.53960  0.85560  0.27920  Biso   1.000  H
  O193     1.0000 0.27130  0.85610  0.35830  Biso   1.000  O
  O194     1.0000 0.23470  0.79870  0.43440  Biso   1.000  O
  N36      1.0000 0.27520  0.91400  0.66040  Biso   1.000  N
  N37      1.0000 0.26560  0.83360  0.41760  Biso   1.000  N
  N38      1.0000 0.22470  0.76090  0.57430  Biso   1.000  N
  N39      1.0000 0.30020  0.03160  0.35330  Biso   1.000  N
  N40      1.0000 0.40860  0.82360  0.72430  Biso   1.000  N
  N41      1.0000 0.57609  0.84230  0.94020  Biso   1.000  N
  N42      1.0000 0.57741  0.98230  0.88450  Biso   1.000  N
  O195     1.0000 0.25970  0.75710  0.55240  Biso   1.000  O
  O196     1.0000 0.21030  0.71730  0.61470  Biso   1.000  O
  O197     1.0000 0.28740  0.80120  0.36780  Biso   1.000  O
  O198     1.0000 0.22640  0.82590  0.42340  Biso   1.000  O
  Cu25     1.0000 0.46242  0.64568  0.22297  Biso   1.000  Cu
  Cu26     1.0000 0.46112  0.57623  0.08648  Biso   1.000  Cu
  Cu27     1.0000 0.51624  0.68427  0.11089  Biso   1.000  Cu
  Cu28     1.0000 0.46681  0.51451  0.94975  Biso   1.000  Cu
  C253     1.0000 0.26425  0.61730  0.96030  Biso   1.000  C
  C254     1.0000 0.28910  0.59130  0.90920  Biso   1.000  C
  C255     1.0000 0.28120  0.62520  0.02080  Biso   1.000  C
  C256     1.0000 0.32932  0.57600  0.92100  Biso   1.000  C
  H121     1.0000 0.34520  0.55990  0.88720  Biso   1.000  H
  C257     1.0000 0.34654  0.58420  0.98300  Biso   1.000  C
  C258     1.0000 0.38991  0.56580  0.99670  Biso   1.000  C
  C259     1.0000 0.32258  0.60950  0.03210  Biso   1.000  C
  H122     1.0000 0.33410  0.61640  0.07340  Biso   1.000  H
  C260     1.0000 0.20100  0.68050  0.93180  Biso   1.000  C
  C261     1.0000 0.21891  0.62740  0.94760  Biso   1.000  C
  C262     1.0000 0.19360  0.57780  0.95420  Biso   1.000  C
  H123     1.0000 0.20510  0.54090  0.96610  Biso   1.000  H
  C263     1.0000 0.15141  0.58110  0.94350  Biso   1.000  C
  H124     1.0000 0.13520  0.54660  0.94680  Biso   1.000  H
  C264     1.0000 0.13351  0.63650  0.92780  Biso   1.000  C
  C265     1.0000 0.15840  0.68620  0.92240  Biso   1.000  C
  H125     1.0000 0.14710  0.72370  0.91250  Biso   1.000  H
  C266     1.0000 0.08807  0.64110  0.91700  Biso   1.000  C
  C267     1.0000 0.37957  0.62720  0.26100  Biso   1.000  C
  C268     1.0000 0.34091  0.58720  0.25470  Biso   1.000  C
  C269     1.0000 0.30890  0.59600  0.29840  Biso   1.000  C
  H126     1.0000 0.31050  0.62490  0.33160  Biso   1.000  H
  C270     1.0000 0.27370  0.55960  0.29080  Biso   1.000  C
  H127     1.0000 0.25210  0.56410  0.32050  Biso   1.000  H
  C271     1.0000 0.27013  0.51890  0.24280  Biso   1.000  C
  C272     1.0000 0.30203  0.51160  0.20150  Biso   1.000  C
  C273     1.0000 0.33835  0.54500  0.20690  Biso   1.000  C
  H128     1.0000 0.36020  0.53830  0.17820  Biso   1.000  H
  C274     1.0000 0.49073  0.66730  0.98030  Biso   1.000  C
  C275     1.0000 0.48434  0.69100  0.91100  Biso   1.000  C
  C276     1.0000 0.45068  0.67120  0.87320  Biso   1.000  C
  H129     1.0000 0.43280  0.64200  0.88960  Biso   1.000  H
  C277     1.0000 0.44470  0.69590  0.81140  Biso   1.000  C
  C278     1.0000 0.47190  0.73730  0.78370  Biso   1.000  C
  C279     1.0000 0.50518  0.75500  0.82260  Biso   1.000  C
  H130     1.0000 0.52430  0.78230  0.80570  Biso   1.000  H
  C280     1.0000 0.51035  0.73290  0.88550  Biso   1.000  C
  H131     1.0000 0.53210  0.74690  0.91110  Biso   1.000  H
  C281     1.0000 0.49560  0.66590  0.35450  Biso   1.000  C
  C282     1.0000 0.50104  0.64280  0.42360  Biso   1.000  C
  C283     1.0000 0.47260  0.60340  0.44920  Biso   1.000  C
  H132     1.0000 0.45000  0.59190  0.42400  Biso   1.000  H
  C284     1.0000 0.47750  0.58040  0.51280  Biso   1.000  C
  H133     1.0000 0.45820  0.55310  0.52910  Biso   1.000  H
  C285     1.0000 0.51027  0.59720  0.55220  Biso   1.000  C
  C286     1.0000 0.53843  0.63700  0.52360  Biso   1.000  C
  C287     1.0000 0.53446  0.65960  0.46100  Biso   1.000  C
  H134     1.0000 0.55410  0.68600  0.44410  Biso   1.000  H
  C288     1.0000 0.51047  0.57250  0.62050  Biso   1.000  C
  C289     1.0000 0.47550  0.58600  0.66040  Biso   1.000  C
  H135     1.0000 0.45540  0.61180  0.64390  Biso   1.000  H
  C290     1.0000 0.47052  0.56210  0.72230  Biso   1.000  C
  H136     1.0000 0.44720  0.57200  0.74660  Biso   1.000  H
  C291     1.0000 0.49878  0.52440  0.74870  Biso   1.000  C
  C292     1.0000 0.49362  0.49810  0.81620  Biso   1.000  C
  C293     1.0000 0.53383  0.51060  0.71160  Biso   1.000  C
  H137     1.0000 0.55390  0.48520  0.72900  Biso   1.000  H
  C294     1.0000 0.53880  0.53400  0.65040  Biso   1.000  C
  O199     1.0000 0.40923  0.54102  0.95085  Biso   1.000  O
  O200     1.0000 0.40268  0.57742  0.05421  Biso   1.000  O
  O201     1.0000 0.28810  0.54570  0.80450  Biso   1.000  O
  O202     1.0000 0.25080  0.62310  0.81830  Biso   1.000  O
  O203     1.0000 0.26160  0.73050  0.90410  Biso   1.000  O
  O204     1.0000 0.20640  0.78920  0.93850  Biso   1.000  O
  O205     1.0000 0.07512  0.69171  0.89861  Biso   1.000  O
  O206     1.0000 0.06579  0.59627  0.92651  Biso   1.000  O
  O207     1.0000 0.40943  0.60884  0.22638  Biso   1.000  O
  O208     1.0000 0.37923  0.66960  0.29920  Biso   1.000  O
  O209     1.0000 0.32720  0.46180  0.10790  Biso   1.000  O
  O210     1.0000 0.28250  0.41490  0.15920  Biso   1.000  O
  O211     1.0000 0.50751  0.70348  0.01966  Biso   1.000  O
  O212     1.0000 0.47946  0.61495  0.99344  Biso   1.000  O
  O213     1.0000 0.40496  0.68460  0.71740  Biso   1.000  O
  O214     1.0000 0.38188  0.64940  0.80610  Biso   1.000  O
  O215     1.0000 0.51429  0.71335  0.33951  Biso   1.000  O
  O216     1.0000 0.47273  0.63530  0.31685  Biso   1.000  O
  O217     1.0000 0.60450  0.67720  0.52810  Biso   1.000  O
  O218     1.0000 0.57618  0.65280  0.62020  Biso   1.000  O
  O219     1.0000 0.57968  0.52250  0.55450  Biso   1.000  O
  O220     1.0000 0.60574  0.49920  0.64610  Biso   1.000  O
  O221     1.0000 0.51482  0.45248  0.82947  Biso   1.000  O
  O222     1.0000 0.46902  0.52494  0.85439  Biso   1.000  O
  O223     1.0000 0.47331  0.50074  0.04415  Biso   1.000  O
  H138     1.0000 0.45660  0.46710  0.06070  Biso   1.000  H
  O224     1.0000 0.45951  0.65589  0.12631  Biso   1.000  O
  H139     1.0000 0.43770  0.68270  0.11030  Biso   1.000  H
  O225     1.0000 0.51859  0.67348  0.20669  Biso   1.000  O
  H140     1.0000 0.53960  0.64440  0.22080  Biso   1.000  H
  O226     1.0000 0.27130  0.64390  0.14170  Biso   1.000  O
  O227     1.0000 0.23470  0.70130  0.06560  Biso   1.000  O
  N43      1.0000 0.27520  0.58600  0.83960  Biso   1.000  N
  N44      1.0000 0.26560  0.66640  0.08240  Biso   1.000  N
  N45      1.0000 0.22470  0.73910  0.92570  Biso   1.000  N
  N46      1.0000 0.30020  0.46840  0.14670  Biso   1.000  N
  N47      1.0000 0.40860  0.67640  0.77570  Biso   1.000  N
  N48      1.0000 0.57609  0.65770  0.55980  Biso   1.000  N
  N49      1.0000 0.57741  0.51770  0.61550  Biso   1.000  N
  O228     1.0000 0.25970  0.74290  0.94760  Biso   1.000  O
  O229     1.0000 0.21030  0.78270  0.88530  Biso   1.000  O
  O230     1.0000 0.28740  0.69880  0.13220  Biso   1.000  O
  O231     1.0000 0.22640  0.67410  0.07660  Biso   1.000  O
  Cu29     1.0000 0.03758  0.35432  0.22297  Biso   1.000  Cu
  Cu30     1.0000 0.03888  0.42377  0.08648  Biso   1.000  Cu
  Cu31     1.0000 0.98376  0.31573  0.11089  Biso   1.000  Cu
  Cu32     1.0000 0.03319  0.48549  0.94975  Biso   1.000  Cu
  C295     1.0000 0.23575  0.38270  0.96030  Biso   1.000  C
  C296     1.0000 0.21090  0.40870  0.90920  Biso   1.000  C
  C297     1.0000 0.21880  0.37480  0.02080  Biso   1.000  C
  C298     1.0000 0.17068  0.42400  0.92100  Biso   1.000  C
  H141     1.0000 0.15480  0.44010  0.88720  Biso   1.000  H
  C299     1.0000 0.15346  0.41580  0.98300  Biso   1.000  C
  C300     1.0000 0.11009  0.43420  0.99670  Biso   1.000  C
  C301     1.0000 0.17742  0.39050  0.03210  Biso   1.000  C
  H142     1.0000 0.16590  0.38360  0.07340  Biso   1.000  H
  C302     1.0000 0.29900  0.31950  0.93180  Biso   1.000  C
  C303     1.0000 0.28109  0.37260  0.94760  Biso   1.000  C
  C304     1.0000 0.30640  0.42220  0.95420  Biso   1.000  C
  H143     1.0000 0.29490  0.45910  0.96610  Biso   1.000  H
  C305     1.0000 0.34859  0.41890  0.94350  Biso   1.000  C
  H144     1.0000 0.36480  0.45340  0.94680  Biso   1.000  H
  C306     1.0000 0.36649  0.36350  0.92780  Biso   1.000  C
  C307     1.0000 0.34160  0.31380  0.92240  Biso   1.000  C
  H145     1.0000 0.35290  0.27630  0.91250  Biso   1.000  H
  C308     1.0000 0.41193  0.35890  0.91700  Biso   1.000  C
  C309     1.0000 0.12043  0.37280  0.26100  Biso   1.000  C
  C310     1.0000 0.15909  0.41280  0.25470  Biso   1.000  C
  C311     1.0000 0.19110  0.40400  0.29840  Biso   1.000  C
  H146     1.0000 0.18950  0.37510  0.33160  Biso   1.000  H
  C312     1.0000 0.22630  0.44040  0.29080  Biso   1.000  C
  H147     1.0000 0.24790  0.43590  0.32050  Biso   1.000  H
  C313     1.0000 0.22987  0.48110  0.24280  Biso   1.000  C
  C314     1.0000 0.19797  0.48840  0.20150  Biso   1.000  C
  C315     1.0000 0.16165  0.45500  0.20690  Biso   1.000  C
  H148     1.0000 0.13980  0.46170  0.17820  Biso   1.000  H
  C316     1.0000 0.00927  0.33270  0.98030  Biso   1.000  C
  C317     1.0000 0.01566  0.30900  0.91100  Biso   1.000  C
  C318     1.0000 0.04932  0.32880  0.87320  Biso   1.000  C
  H149     1.0000 0.06720  0.35800  0.88960  Biso   1.000  H
  C319     1.0000 0.05530  0.30410  0.81140  Biso   1.000  C
  C320     1.0000 0.02810  0.26270  0.78370  Biso   1.000  C
  C321     1.0000 0.99482  0.24500  0.82260  Biso   1.000  C
  H150     1.0000 0.97570  0.21770  0.80570  Biso   1.000  H
  C322     1.0000 0.98965  0.26710  0.88550  Biso   1.000  C
  H151     1.0000 0.96790  0.25310  0.91110  Biso   1.000  H
  C323     1.0000 0.00440  0.33410  0.35450  Biso   1.000  C
  C324     1.0000 0.99896  0.35720  0.42360  Biso   1.000  C
  C325     1.0000 0.02740  0.39660  0.44920  Biso   1.000  C
  H152     1.0000 0.05000  0.40810  0.42400  Biso   1.000  H
  C326     1.0000 0.02250  0.41960  0.51280  Biso   1.000  C
  H153     1.0000 0.04180  0.44690  0.52910  Biso   1.000  H
  C327     1.0000 0.98973  0.40280  0.55220  Biso   1.000  C
  C328     1.0000 0.96157  0.36300  0.52360  Biso   1.000  C
  C329     1.0000 0.96554  0.34040  0.46100  Biso   1.000  C
  H154     1.0000 0.94590  0.31400  0.44410  Biso   1.000  H
  C330     1.0000 0.98953  0.42750  0.62050  Biso   1.000  C
  C331     1.0000 0.02450  0.41400  0.66040  Biso   1.000  C
  H155     1.0000 0.04460  0.38820  0.64390  Biso   1.000  H
  C332     1.0000 0.02948  0.43790  0.72230  Biso   1.000  C
  H156     1.0000 0.05280  0.42800  0.74660  Biso   1.000  H
  C333     1.0000 0.00122  0.47560  0.74870  Biso   1.000  C
  C334     1.0000 0.00638  0.50190  0.81620  Biso   1.000  C
  C335     1.0000 0.96617  0.48940  0.71160  Biso   1.000  C
  H157     1.0000 0.94610  0.51480  0.72900  Biso   1.000  H
  C336     1.0000 0.96120  0.46600  0.65040  Biso   1.000  C
  O232     1.0000 0.09077  0.45898  0.95085  Biso   1.000  O
  O233     1.0000 0.09732  0.42258  0.05421  Biso   1.000  O
  O234     1.0000 0.21190  0.45430  0.80450  Biso   1.000  O
  O235     1.0000 0.24920  0.37690  0.81830  Biso   1.000  O
  O236     1.0000 0.23840  0.26950  0.90410  Biso   1.000  O
  O237     1.0000 0.29360  0.21080  0.93850  Biso   1.000  O
  O238     1.0000 0.42488  0.30829  0.89861  Biso   1.000  O
  O239     1.0000 0.43421  0.40373  0.92651  Biso   1.000  O
  O240     1.0000 0.09057  0.39116  0.22638  Biso   1.000  O
  O241     1.0000 0.12077  0.33040  0.29920  Biso   1.000  O
  O242     1.0000 0.17280  0.53820  0.10790  Biso   1.000  O
  O243     1.0000 0.21750  0.58510  0.15920  Biso   1.000  O
  O244     1.0000 0.99249  0.29652  0.01966  Biso   1.000  O
  O245     1.0000 0.02054  0.38505  0.99344  Biso   1.000  O
  O246     1.0000 0.09504  0.31540  0.71740  Biso   1.000  O
  O247     1.0000 0.11812  0.35060  0.80610  Biso   1.000  O
  O248     1.0000 0.98571  0.28665  0.33951  Biso   1.000  O
  O249     1.0000 0.02727  0.36470  0.31685  Biso   1.000  O
  O250     1.0000 0.89550  0.32280  0.52810  Biso   1.000  O
  O251     1.0000 0.92382  0.34720  0.62020  Biso   1.000  O
  O252     1.0000 0.92032  0.47750  0.55450  Biso   1.000  O
  O253     1.0000 0.89426  0.50080  0.64610  Biso   1.000  O
  O254     1.0000 0.98518  0.54752  0.82947  Biso   1.000  O
  O255     1.0000 0.03098  0.47506  0.85439  Biso   1.000  O
  O256     1.0000 0.02669  0.49926  0.04415  Biso   1.000  O
  H158     1.0000 0.04340  0.53290  0.06070  Biso   1.000  H
  O257     1.0000 0.04049  0.34411  0.12631  Biso   1.000  O
  H159     1.0000 0.06230  0.31730  0.11030  Biso   1.000  H
  O258     1.0000 0.98141  0.32652  0.20669  Biso   1.000  O
  H160     1.0000 0.96040  0.35560  0.22080  Biso   1.000  H
  O259     1.0000 0.22870  0.35610  0.14170  Biso   1.000  O
  O260     1.0000 0.26530  0.29870  0.06560  Biso   1.000  O
  N50      1.0000 0.22480  0.41400  0.83960  Biso   1.000  N
  N51      1.0000 0.23440  0.33360  0.08240  Biso   1.000  N
  N52      1.0000 0.27530  0.26090  0.92570  Biso   1.000  N
  N53      1.0000 0.19980  0.53160  0.14670  Biso   1.000  N
  N54      1.0000 0.09140  0.32360  0.77570  Biso   1.000  N
  N55      1.0000 0.92391  0.34230  0.55980  Biso   1.000  N
  N56      1.0000 0.92259  0.48230  0.61550  Biso   1.000  N
  O261     1.0000 0.24030  0.25710  0.94760  Biso   1.000  O
  O262     1.0000 0.28970  0.21730  0.88530  Biso   1.000  O
  O263     1.0000 0.21260  0.30120  0.13220  Biso   1.000  O
  O264     1.0000 0.27360  0.32590  0.07660  Biso   1.000  O
  Cu33     1.0000 0.02288  0.75000  0.75000  Biso   1.000  Cu
  Cu34     1.0000 0.47712  0.25000  0.75000  Biso   1.000  Cu
  Cu35     1.0000 0.97712  0.25000  0.25000  Biso   1.000  Cu
  Cu36     1.0000 0.52288  0.75000  0.25000  Biso   1.000  Cu
