data_image0
_cell_length_a       34.3028
_cell_length_b       15.1781
_cell_length_c       29.482
_cell_angle_alpha    90
_cell_angle_beta     100.911
_cell_angle_gamma    90

_symmetry_space_group_name_H-M    "P 1"
_symmetry_int_tables_number       1

loop_
  _symmetry_equiv_pos_as_xyz
  'x, y, z'

loop_
  _atom_site_label
  _atom_site_occupancy
  _atom_site_fract_x
  _atom_site_fract_y
  _atom_site_fract_z
  _atom_site_thermal_displace_type
  _atom_site_B_iso_or_equiv
  _atom_site_type_symbol
  Zn1      1.0000 0.82104  0.86353  0.97234  Biso   1.000  Zn
  Zn2      1.0000 0.63375  0.58903  0.78763  Biso   1.000  Zn
  Zn3      1.0000 0.41739  0.87668  0.65786  Biso   1.000  Zn
  Zn4      1.0000 0.32453  0.63970  0.47529  Biso   1.000  Zn
  Zn5      1.0000 0.13502  0.91777  0.28595  Biso   1.000  Zn
  Zn6      1.0000 0.41625  0.12749  0.15844  Biso   1.000  Zn
  N1       1.0000 0.81090  0.99760  0.96820  Biso   1.000  N
  C1       1.0000 0.83110  0.05080  0.00140  Biso   1.000  C
  H1       1.0000 0.84920  0.02480  0.02610  Biso   1.000  H
  C2       1.0000 0.82640  0.14130  0.00080  Biso   1.000  C
  H2       1.0000 0.84090  0.17660  0.02480  Biso   1.000  H
  C3       1.0000 0.80050  0.17940  0.96500  Biso   1.000  C
  C4       1.0000 0.77940  0.12600  0.93040  Biso   1.000  C
  H3       1.0000 0.76100  0.15050  0.90540  Biso   1.000  H
  C5       1.0000 0.78600  0.03570  0.93380  Biso   1.000  C
  H4       1.0000 0.77200  0.99910  0.91010  Biso   1.000  H
  N2       1.0000 0.67430  0.52800  0.83830  Biso   1.000  N
  C6       1.0000 0.69580  0.57270  0.87500  Biso   1.000  C
  H5       1.0000 0.69060  0.63350  0.87880  Biso   1.000  H
  C7       1.0000 0.72480  0.53130  0.90630  Biso   1.000  C
  H6       1.0000 0.74050  0.56460  0.93030  Biso   1.000  H
  C8       1.0000 0.73150  0.44280  0.90350  Biso   1.000  C
  C9       1.0000 0.70850  0.39760  0.86720  Biso   1.000  C
  H7       1.0000 0.71170  0.33600  0.86370  Biso   1.000  H
  C10      1.0000 0.68090  0.44360  0.83630  Biso   1.000  C
  H8       1.0000 0.66540  0.41160  0.81160  Biso   1.000  H
  N3       1.0000 0.87610  0.55140  0.11310  Biso   1.000  N
  C11      1.0000 0.84690  0.58870  0.08410  Biso   1.000  C
  H9       1.0000 0.84130  0.64900  0.08870  Biso   1.000  H
  C12      1.0000 0.82400  0.54460  0.04740  Biso   1.000  C
  H10      1.0000 0.80340  0.57440  0.02710  Biso   1.000  H
  C13      1.0000 0.83170  0.45620  0.04060  Biso   1.000  C
  C14      1.0000 0.86010  0.41680  0.07330  Biso   1.000  C
  H11      1.0000 0.86440  0.35510  0.07240  Biso   1.000  H
  C15      1.0000 0.88250  0.46770  0.10770  Biso   1.000  C
  H12      1.0000 0.90360  0.44020  0.12840  Biso   1.000  H
  C16      1.0000 0.79440  0.27680  0.96500  Biso   1.000  C
  N4       1.0000 0.76700  0.31080  0.93300  Biso   1.000  N
  C17      1.0000 0.76120  0.39780  0.93800  Biso   1.000  C
  N5       1.0000 0.78020  0.44870  0.97220  Biso   1.000  N
  C18      1.0000 0.80910  0.40540  0.00150  Biso   1.000  C
  N6       1.0000 0.81800  0.31980  0.99930  Biso   1.000  N
  N7       1.0000 0.58360  0.51500  0.78930  Biso   1.000  N
  C19      1.0000 0.56810  0.51170  0.82750  Biso   1.000  C
  H13      1.0000 0.57950  0.54800  0.85280  Biso   1.000  H
  C20      1.0000 0.53680  0.45940  0.83230  Biso   1.000  C
  H14      1.0000 0.52590  0.46190  0.85960  Biso   1.000  H
  C21      1.0000 0.52120  0.40230  0.79660  Biso   1.000  C
  C22      1.0000 0.53630  0.40570  0.75760  Biso   1.000  C
  H15      1.0000 0.52540  0.37000  0.73190  Biso   1.000  H
  C23      1.0000 0.56740  0.46090  0.75540  Biso   1.000  C
  H16      1.0000 0.57810  0.46060  0.72790  Biso   1.000  H
  N8       1.0000 0.43890  0.97550  0.70440  Biso   1.000  N
  C24      1.0000 0.41960  0.99020  0.73920  Biso   1.000  C
  H17      1.0000 0.40070  0.94800  0.74520  Biso   1.000  H
  C25      1.0000 0.42610  0.06470  0.76650  Biso   1.000  C
  H18      1.0000 0.41260  0.07300  0.79140  Biso   1.000  H
  C26      1.0000 0.45310  0.12740  0.75660  Biso   1.000  C
  C27      1.0000 0.47450  0.11070  0.72250  Biso   1.000  C
  H19      1.0000 0.49410  0.15090  0.71640  Biso   1.000  H
  C28      1.0000 0.46650  0.03290  0.69720  Biso   1.000  C
  H20      1.0000 0.48130  0.02040  0.67380  Biso   1.000  H
  N9       1.0000 0.35740  0.34760  0.92510  Biso   1.000  N
  C29      1.0000 0.34870  0.28860  0.89090  Biso   1.000  C
  H21      1.0000 0.32410  0.25790  0.88670  Biso   1.000  H
  C30      1.0000 0.37580  0.27110  0.86070  Biso   1.000  C
  H22      1.0000 0.36980  0.22860  0.83670  Biso   1.000  H
  C31      1.0000 0.41090  0.31770  0.86720  Biso   1.000  C
  C32      1.0000 0.41880  0.38260  0.90090  Biso   1.000  C
  H23      1.0000 0.44200  0.41780  0.90370  Biso   1.000  H
  C33      1.0000 0.39260  0.39510  0.92960  Biso   1.000  C
  H24      1.0000 0.39860  0.43770  0.95350  Biso   1.000  H
  C34      1.0000 0.48870  0.33950  0.80120  Biso   1.000  C
  N10      1.0000 0.48540  0.26890  0.77440  Biso   1.000  N
  C35      1.0000 0.45790  0.21100  0.78270  Biso   1.000  C
  N11      1.0000 0.43340  0.22480  0.81270  Biso   1.000  N
  C36      1.0000 0.43790  0.30000  0.83590  Biso   1.000  C
  N12      1.0000 0.46680  0.36070  0.83190  Biso   1.000  N
  N13      1.0000 0.37540  0.95140  0.61360  Biso   1.000  N
  C37      1.0000 0.34870  0.91140  0.58220  Biso   1.000  C
  H25      1.0000 0.34560  0.84940  0.58440  Biso   1.000  H
  C38      1.0000 0.32500  0.95640  0.54600  Biso   1.000  C
  H26      1.0000 0.30580  0.92600  0.52410  Biso   1.000  H
  C39      1.0000 0.33000  0.04580  0.54280  Biso   1.000  C
  C40      1.0000 0.35550  0.08840  0.57720  Biso   1.000  C
  H27      1.0000 0.35800  0.15070  0.57680  Biso   1.000  H
  C41      1.0000 0.37730  0.04030  0.61220  Biso   1.000  C
  H28      1.0000 0.39430  0.07040  0.63640  Biso   1.000  H
  N14      1.0000 0.31210  0.50510  0.47030  Biso   1.000  N
  C42      1.0000 0.33240  0.45310  0.50240  Biso   1.000  C
  H29      1.0000 0.35080  0.47890  0.52690  Biso   1.000  H
  C43      1.0000 0.32770  0.36220  0.50160  Biso   1.000  C
  H30      1.0000 0.34280  0.32650  0.52500  Biso   1.000  H
  C44      1.0000 0.30050  0.32460  0.46610  Biso   1.000  C
  C45      1.0000 0.27990  0.37850  0.43280  Biso   1.000  C
  H31      1.0000 0.26140  0.35420  0.40790  Biso   1.000  H
  C46      1.0000 0.28600  0.46950  0.43570  Biso   1.000  C
  H32      1.0000 0.27130  0.50670  0.41280  Biso   1.000  H
  N15      1.0000 0.17460  0.97590  0.33870  Biso   1.000  N
  C47      1.0000 0.19570  0.93180  0.37330  Biso   1.000  C
  H33      1.0000 0.19150  0.87010  0.37510  Biso   1.000  H
  C48      1.0000 0.22350  0.97080  0.40710  Biso   1.000  C
  H34      1.0000 0.23810  0.93720  0.43180  Biso   1.000  H
  C49      1.0000 0.22950  0.06130  0.40390  Biso   1.000  C
  C50      1.0000 0.20770  0.10890  0.36750  Biso   1.000  C
  H35      1.0000 0.21140  0.17060  0.36490  Biso   1.000  H
  C51      1.0000 0.18060  0.06380  0.33530  Biso   1.000  C
  H36      1.0000 0.16560  0.09510  0.31000  Biso   1.000  H
  C52      1.0000 0.30740  0.09810  0.50360  Biso   1.000  C
  N16      1.0000 0.31690  0.18210  0.50040  Biso   1.000  N
  C53      1.0000 0.29440  0.22780  0.46660  Biso   1.000  C
  N17      1.0000 0.26560  0.19240  0.43410  Biso   1.000  N
  C54      1.0000 0.26040  0.10590  0.43900  Biso   1.000  C
  N18      1.0000 0.27940  0.05720  0.47440  Biso   1.000  N
  N19      1.0000 0.36120  0.65390  0.42800  Biso   1.000  N
  C55      1.0000 0.39280  0.60970  0.43050  Biso   1.000  C
  H37      1.0000 0.39770  0.56390  0.45280  Biso   1.000  H
  C56      1.0000 0.42070  0.62370  0.40300  Biso   1.000  C
  H38      1.0000 0.44460  0.59060  0.40760  Biso   1.000  H
  C57      1.0000 0.41300  0.68670  0.36870  Biso   1.000  C
  C58      1.0000 0.37680  0.73090  0.36400  Biso   1.000  C
  H39      1.0000 0.36950  0.77330  0.34020  Biso   1.000  H
  C59      1.0000 0.35250  0.71330  0.39300  Biso   1.000  C
  H40      1.0000 0.32790  0.74360  0.38910  Biso   1.000  H
  N20      1.0000 0.43760  0.02980  0.20550  Biso   1.000  N
  C60      1.0000 0.41890  0.01230  0.23960  Biso   1.000  C
  H41      1.0000 0.39990  0.05360  0.24620  Biso   1.000  H
  C61      1.0000 0.42540  0.93800  0.26590  Biso   1.000  C
  H42      1.0000 0.41100  0.92820  0.28990  Biso   1.000  H
  C62      1.0000 0.45300  0.87720  0.25730  Biso   1.000  C
  C63      1.0000 0.47450  0.89680  0.22280  Biso   1.000  C
  H43      1.0000 0.49460  0.85820  0.21650  Biso   1.000  H
  C64      1.0000 0.46580  0.97360  0.19820  Biso   1.000  C
  H44      1.0000 0.48050  0.98740  0.17480  Biso   1.000  H
  N21      1.0000 0.58450  0.49450  0.28770  Biso   1.000  N
  C65      1.0000 0.57070  0.49530  0.32570  Biso   1.000  C
  H45      1.0000 0.58210  0.45680  0.35010  Biso   1.000  H
  C66      1.0000 0.53930  0.55160  0.33220  Biso   1.000  C
  H46      1.0000 0.53070  0.55460  0.36100  Biso   1.000  H
  C67      1.0000 0.52160  0.60180  0.29510  Biso   1.000  C
  C68      1.0000 0.53710  0.60060  0.25490  Biso   1.000  C
  H47      1.0000 0.52660  0.63810  0.22980  Biso   1.000  H
  C69      1.0000 0.56840  0.54280  0.25220  Biso   1.000  C
  H48      1.0000 0.57820  0.53860  0.22420  Biso   1.000  H
  C70      1.0000 0.44040  0.70340  0.33600  Biso   1.000  C
  N22      1.0000 0.43380  0.77950  0.31250  Biso   1.000  N
  C71      1.0000 0.45740  0.79160  0.28310  Biso   1.000  C
  N23      1.0000 0.48580  0.73720  0.27460  Biso   1.000  N
  C72      1.0000 0.48980  0.66310  0.30110  Biso   1.000  C
  N24      1.0000 0.46770  0.64460  0.33240  Biso   1.000  N
  I1       1.0000 0.37140  0.65690  0.55800  Biso   1.000  I
  I2       1.0000 0.26830  0.73660  0.44900  Biso   1.000  I
  I3       1.0000 0.47160  0.15630  0.10910  Biso   1.000  I
  I4       1.0000 0.38460  0.24120  0.19500  Biso   1.000  I
  I5       1.0000 0.47020  0.84130  0.61710  Biso   1.000  I
  I6       1.0000 0.37720  0.77210  0.69980  Biso   1.000  I
  I7       1.0000 0.15070  0.90590  0.22120  Biso   1.000  I
  I8       1.0000 0.11090  0.76280  0.33600  Biso   1.000  I
  I9       1.0000 0.65800  0.54210  0.71541  Biso   1.000  I
  I10      1.0000 0.62227  0.74230  0.81736  Biso   1.000  I
  I11      1.0000 0.85610  0.83670  0.05090  Biso   1.000  I
  I12      1.0000 0.76340  0.77560  0.94540  Biso   1.000  I
  I13      1.0000 0.86690  0.83180  0.05420  Biso   1.000  I
  I14      1.0000 0.47028  0.84480  0.60840  Biso   1.000  I
  I15      1.0000 0.38250  0.76570  0.69927  Biso   1.000  I
  I16      1.0000 0.15970  0.96150  0.21255  Biso   1.000  I
  I17      1.0000 0.12293  0.76538  0.31508  Biso   1.000  I
  I18      1.0000 0.75450  0.77430  0.93700  Biso   1.000  I
  I19      1.0000 0.36210  0.66930  0.55240  Biso   1.000  I
  I20      1.0000 0.25860  0.72660  0.44070  Biso   1.000  I
  I21      1.0000 0.46920  0.16630  0.11510  Biso   1.000  I
  I22      1.0000 0.37610  0.23500  0.19950  Biso   1.000  I
  I23      1.0000 0.65653  0.55220  0.71100  Biso   1.000  I
  I24      1.0000 0.62119  0.73960  0.81796  Biso   1.000  I
  Zn7      1.0000 0.32104  0.36353  0.97234  Biso   1.000  Zn
  Zn8      1.0000 0.13375  0.08903  0.78763  Biso   1.000  Zn
  Zn9      1.0000 0.91739  0.37668  0.65786  Biso   1.000  Zn
  Zn10     1.0000 0.82453  0.13970  0.47529  Biso   1.000  Zn
  Zn11     1.0000 0.63502  0.41777  0.28595  Biso   1.000  Zn
  Zn12     1.0000 0.91625  0.62749  0.15844  Biso   1.000  Zn
  N25      1.0000 0.31090  0.49760  0.96820  Biso   1.000  N
  C73      1.0000 0.33110  0.55080  0.00140  Biso   1.000  C
  H49      1.0000 0.34920  0.52480  0.02610  Biso   1.000  H
  C74      1.0000 0.32640  0.64130  0.00080  Biso   1.000  C
  H50      1.0000 0.34090  0.67660  0.02480  Biso   1.000  H
  C75      1.0000 0.30050  0.67940  0.96500  Biso   1.000  C
  C76      1.0000 0.27940  0.62600  0.93040  Biso   1.000  C
  H51      1.0000 0.26100  0.65050  0.90540  Biso   1.000  H
  C77      1.0000 0.28600  0.53570  0.93380  Biso   1.000  C
  H52      1.0000 0.27200  0.49910  0.91010  Biso   1.000  H
  N26      1.0000 0.17430  0.02800  0.83830  Biso   1.000  N
  C78      1.0000 0.19580  0.07270  0.87500  Biso   1.000  C
  H53      1.0000 0.19060  0.13350  0.87880  Biso   1.000  H
  C79      1.0000 0.22480  0.03130  0.90630  Biso   1.000  C
  H54      1.0000 0.24050  0.06460  0.93030  Biso   1.000  H
  C80      1.0000 0.23150  0.94280  0.90350  Biso   1.000  C
  C81      1.0000 0.20850  0.89760  0.86720  Biso   1.000  C
  H55      1.0000 0.21170  0.83600  0.86370  Biso   1.000  H
  C82      1.0000 0.18090  0.94360  0.83630  Biso   1.000  C
  H56      1.0000 0.16540  0.91160  0.81160  Biso   1.000  H
  N27      1.0000 0.37610  0.05140  0.11310  Biso   1.000  N
  C83      1.0000 0.34690  0.08870  0.08410  Biso   1.000  C
  H57      1.0000 0.34130  0.14900  0.08870  Biso   1.000  H
  C84      1.0000 0.32400  0.04460  0.04740  Biso   1.000  C
  H58      1.0000 0.30340  0.07440  0.02710  Biso   1.000  H
  C85      1.0000 0.33170  0.95620  0.04060  Biso   1.000  C
  C86      1.0000 0.36010  0.91680  0.07330  Biso   1.000  C
  H59      1.0000 0.36440  0.85510  0.07240  Biso   1.000  H
  C87      1.0000 0.38250  0.96770  0.10770  Biso   1.000  C
  H60      1.0000 0.40360  0.94020  0.12840  Biso   1.000  H
  C88      1.0000 0.29440  0.77680  0.96500  Biso   1.000  C
  N28      1.0000 0.26700  0.81080  0.93300  Biso   1.000  N
  C89      1.0000 0.26120  0.89780  0.93800  Biso   1.000  C
  N29      1.0000 0.28020  0.94870  0.97220  Biso   1.000  N
  C90      1.0000 0.30910  0.90540  0.00150  Biso   1.000  C
  N30      1.0000 0.31800  0.81980  0.99930  Biso   1.000  N
  N31      1.0000 0.08360  0.01500  0.78930  Biso   1.000  N
  C91      1.0000 0.06810  0.01170  0.82750  Biso   1.000  C
  H61      1.0000 0.07950  0.04800  0.85280  Biso   1.000  H
  C92      1.0000 0.03680  0.95940  0.83230  Biso   1.000  C
  H62      1.0000 0.02590  0.96190  0.85960  Biso   1.000  H
  C93      1.0000 0.02120  0.90230  0.79660  Biso   1.000  C
  C94      1.0000 0.03630  0.90570  0.75760  Biso   1.000  C
  H63      1.0000 0.02540  0.87000  0.73190  Biso   1.000  H
  C95      1.0000 0.06740  0.96090  0.75540  Biso   1.000  C
  H64      1.0000 0.07810  0.96060  0.72790  Biso   1.000  H
  N32      1.0000 0.93890  0.47550  0.70440  Biso   1.000  N
  C96      1.0000 0.91960  0.49020  0.73920  Biso   1.000  C
  H65      1.0000 0.90070  0.44800  0.74520  Biso   1.000  H
  C97      1.0000 0.92610  0.56470  0.76650  Biso   1.000  C
  H66      1.0000 0.91260  0.57300  0.79140  Biso   1.000  H
  C98      1.0000 0.95310  0.62740  0.75660  Biso   1.000  C
  C99      1.0000 0.97450  0.61070  0.72250  Biso   1.000  C
  H67      1.0000 0.99410  0.65090  0.71640  Biso   1.000  H
  C100     1.0000 0.96650  0.53290  0.69720  Biso   1.000  C
  H68      1.0000 0.98130  0.52040  0.67380  Biso   1.000  H
  N33      1.0000 0.85740  0.84760  0.92510  Biso   1.000  N
  C101     1.0000 0.84870  0.78860  0.89090  Biso   1.000  C
  H69      1.0000 0.82410  0.75790  0.88670  Biso   1.000  H
  C102     1.0000 0.87580  0.77110  0.86070  Biso   1.000  C
  H70      1.0000 0.86980  0.72860  0.83670  Biso   1.000  H
  C103     1.0000 0.91090  0.81770  0.86720  Biso   1.000  C
  C104     1.0000 0.91880  0.88260  0.90090  Biso   1.000  C
  H71      1.0000 0.94200  0.91780  0.90370  Biso   1.000  H
  C105     1.0000 0.89260  0.89510  0.92960  Biso   1.000  C
  H72      1.0000 0.89860  0.93770  0.95350  Biso   1.000  H
  C106     1.0000 0.98870  0.83950  0.80120  Biso   1.000  C
  N34      1.0000 0.98540  0.76890  0.77440  Biso   1.000  N
  C107     1.0000 0.95790  0.71100  0.78270  Biso   1.000  C
  N35      1.0000 0.93340  0.72480  0.81270  Biso   1.000  N
  C108     1.0000 0.93790  0.80000  0.83590  Biso   1.000  C
  N36      1.0000 0.96680  0.86070  0.83190  Biso   1.000  N
  N37      1.0000 0.87540  0.45140  0.61360  Biso   1.000  N
  C109     1.0000 0.84870  0.41140  0.58220  Biso   1.000  C
  H73      1.0000 0.84560  0.34940  0.58440  Biso   1.000  H
  C110     1.0000 0.82500  0.45640  0.54600  Biso   1.000  C
  H74      1.0000 0.80580  0.42600  0.52410  Biso   1.000  H
  C111     1.0000 0.83000  0.54580  0.54280  Biso   1.000  C
  C112     1.0000 0.85550  0.58840  0.57720  Biso   1.000  C
  H75      1.0000 0.85800  0.65070  0.57680  Biso   1.000  H
  C113     1.0000 0.87730  0.54030  0.61220  Biso   1.000  C
  H76      1.0000 0.89430  0.57040  0.63640  Biso   1.000  H
  N38      1.0000 0.81210  0.00510  0.47030  Biso   1.000  N
  C114     1.0000 0.83240  0.95310  0.50240  Biso   1.000  C
  H77      1.0000 0.85080  0.97890  0.52690  Biso   1.000  H
  C115     1.0000 0.82770  0.86220  0.50160  Biso   1.000  C
  H78      1.0000 0.84280  0.82650  0.52500  Biso   1.000  H
  C116     1.0000 0.80050  0.82460  0.46610  Biso   1.000  C
  C117     1.0000 0.77990  0.87850  0.43280  Biso   1.000  C
  H79      1.0000 0.76140  0.85420  0.40790  Biso   1.000  H
  C118     1.0000 0.78600  0.96950  0.43570  Biso   1.000  C
  H80      1.0000 0.77130  0.00670  0.41280  Biso   1.000  H
  N39      1.0000 0.67460  0.47590  0.33870  Biso   1.000  N
  C119     1.0000 0.69570  0.43180  0.37330  Biso   1.000  C
  H81      1.0000 0.69150  0.37010  0.37510  Biso   1.000  H
  C120     1.0000 0.72350  0.47080  0.40710  Biso   1.000  C
  H82      1.0000 0.73810  0.43720  0.43180  Biso   1.000  H
  C121     1.0000 0.72950  0.56130  0.40390  Biso   1.000  C
  C122     1.0000 0.70770  0.60890  0.36750  Biso   1.000  C
  H83      1.0000 0.71140  0.67060  0.36490  Biso   1.000  H
  C123     1.0000 0.68060  0.56380  0.33530  Biso   1.000  C
  H84      1.0000 0.66560  0.59510  0.31000  Biso   1.000  H
  C124     1.0000 0.80740  0.59810  0.50360  Biso   1.000  C
  N40      1.0000 0.81690  0.68210  0.50040  Biso   1.000  N
  C125     1.0000 0.79440  0.72780  0.46660  Biso   1.000  C
  N41      1.0000 0.76560  0.69240  0.43410  Biso   1.000  N
  C126     1.0000 0.76040  0.60590  0.43900  Biso   1.000  C
  N42      1.0000 0.77940  0.55720  0.47440  Biso   1.000  N
  N43      1.0000 0.86120  0.15390  0.42800  Biso   1.000  N
  C127     1.0000 0.89280  0.10970  0.43050  Biso   1.000  C
  H85      1.0000 0.89770  0.06390  0.45280  Biso   1.000  H
  C128     1.0000 0.92070  0.12370  0.40300  Biso   1.000  C
  H86      1.0000 0.94460  0.09060  0.40760  Biso   1.000  H
  C129     1.0000 0.91300  0.18670  0.36870  Biso   1.000  C
  C130     1.0000 0.87680  0.23090  0.36400  Biso   1.000  C
  H87      1.0000 0.86950  0.27330  0.34020  Biso   1.000  H
  C131     1.0000 0.85250  0.21330  0.39300  Biso   1.000  C
  H88      1.0000 0.82790  0.24360  0.38910  Biso   1.000  H
  N44      1.0000 0.93760  0.52980  0.20550  Biso   1.000  N
  C132     1.0000 0.91890  0.51230  0.23960  Biso   1.000  C
  H89      1.0000 0.89990  0.55360  0.24620  Biso   1.000  H
  C133     1.0000 0.92540  0.43800  0.26590  Biso   1.000  C
  H90      1.0000 0.91100  0.42820  0.28990  Biso   1.000  H
  C134     1.0000 0.95300  0.37720  0.25730  Biso   1.000  C
  C135     1.0000 0.97450  0.39680  0.22280  Biso   1.000  C
  H91      1.0000 0.99460  0.35820  0.21650  Biso   1.000  H
  C136     1.0000 0.96580  0.47360  0.19820  Biso   1.000  C
  H92      1.0000 0.98050  0.48740  0.17480  Biso   1.000  H
  N45      1.0000 0.08450  0.99450  0.28770  Biso   1.000  N
  C137     1.0000 0.07070  0.99530  0.32570  Biso   1.000  C
  H93      1.0000 0.08210  0.95680  0.35010  Biso   1.000  H
  C138     1.0000 0.03930  0.05160  0.33220  Biso   1.000  C
  H94      1.0000 0.03070  0.05460  0.36100  Biso   1.000  H
  C139     1.0000 0.02160  0.10180  0.29510  Biso   1.000  C
  C140     1.0000 0.03710  0.10060  0.25490  Biso   1.000  C
  H95      1.0000 0.02660  0.13810  0.22980  Biso   1.000  H
  C141     1.0000 0.06840  0.04280  0.25220  Biso   1.000  C
  H96      1.0000 0.07820  0.03860  0.22420  Biso   1.000  H
  C142     1.0000 0.94040  0.20340  0.33600  Biso   1.000  C
  N46      1.0000 0.93380  0.27950  0.31250  Biso   1.000  N
  C143     1.0000 0.95740  0.29160  0.28310  Biso   1.000  C
  N47      1.0000 0.98580  0.23720  0.27460  Biso   1.000  N
  C144     1.0000 0.98980  0.16310  0.30110  Biso   1.000  C
  N48      1.0000 0.96770  0.14460  0.33240  Biso   1.000  N
  I25      1.0000 0.87140  0.15690  0.55800  Biso   1.000  I
  I26      1.0000 0.76830  0.23660  0.44900  Biso   1.000  I
  I27      1.0000 0.97160  0.65630  0.10910  Biso   1.000  I
  I28      1.0000 0.88460  0.74120  0.19500  Biso   1.000  I
  I29      1.0000 0.97020  0.34130  0.61710  Biso   1.000  I
  I30      1.0000 0.87720  0.27210  0.69980  Biso   1.000  I
  I31      1.0000 0.65070  0.40590  0.22120  Biso   1.000  I
  I32      1.0000 0.61090  0.26280  0.33600  Biso   1.000  I
  I33      1.0000 0.15800  0.04210  0.71541  Biso   1.000  I
  I34      1.0000 0.12227  0.24230  0.81736  Biso   1.000  I
  I35      1.0000 0.35610  0.33670  0.05090  Biso   1.000  I
  I36      1.0000 0.26340  0.27560  0.94540  Biso   1.000  I
  I37      1.0000 0.36690  0.33180  0.05420  Biso   1.000  I
  I38      1.0000 0.97028  0.34480  0.60840  Biso   1.000  I
  I39      1.0000 0.88250  0.26570  0.69927  Biso   1.000  I
  I40      1.0000 0.65970  0.46150  0.21255  Biso   1.000  I
  I41      1.0000 0.62293  0.26538  0.31508  Biso   1.000  I
  I42      1.0000 0.25450  0.27430  0.93700  Biso   1.000  I
  I43      1.0000 0.86210  0.16930  0.55240  Biso   1.000  I
  I44      1.0000 0.75860  0.22660  0.44070  Biso   1.000  I
  I45      1.0000 0.96920  0.66630  0.11510  Biso   1.000  I
  I46      1.0000 0.87610  0.73500  0.19950  Biso   1.000  I
  I47      1.0000 0.15653  0.05220  0.71100  Biso   1.000  I
  I48      1.0000 0.12119  0.23960  0.81796  Biso   1.000  I
  Zn13     1.0000 0.17896  0.86353  0.02766  Biso   1.000  Zn
  Zn14     1.0000 0.36625  0.58903  0.21237  Biso   1.000  Zn
  Zn15     1.0000 0.58261  0.87668  0.34214  Biso   1.000  Zn
  Zn16     1.0000 0.67547  0.63970  0.52471  Biso   1.000  Zn
  Zn17     1.0000 0.86498  0.91777  0.71405  Biso   1.000  Zn
  Zn18     1.0000 0.58375  0.12749  0.84156  Biso   1.000  Zn
  N49      1.0000 0.18910  0.99760  0.03180  Biso   1.000  N
  C145     1.0000 0.16890  0.05080  0.99860  Biso   1.000  C
  H97      1.0000 0.15080  0.02480  0.97390  Biso   1.000  H
  C146     1.0000 0.17360  0.14130  0.99920  Biso   1.000  C
  H98      1.0000 0.15910  0.17660  0.97520  Biso   1.000  H
  C147     1.0000 0.19950  0.17940  0.03500  Biso   1.000  C
  C148     1.0000 0.22060  0.12600  0.06960  Biso   1.000  C
  H99      1.0000 0.23900  0.15050  0.09460  Biso   1.000  H
  C149     1.0000 0.21400  0.03570  0.06620  Biso   1.000  C
  H100     1.0000 0.22800  0.99910  0.08990  Biso   1.000  H
  N50      1.0000 0.32570  0.52800  0.16170  Biso   1.000  N
  C150     1.0000 0.30420  0.57270  0.12500  Biso   1.000  C
  H101     1.0000 0.30940  0.63350  0.12120  Biso   1.000  H
  C151     1.0000 0.27520  0.53130  0.09370  Biso   1.000  C
  H102     1.0000 0.25950  0.56460  0.06970  Biso   1.000  H
  C152     1.0000 0.26850  0.44280  0.09650  Biso   1.000  C
  C153     1.0000 0.29150  0.39760  0.13280  Biso   1.000  C
  H103     1.0000 0.28830  0.33600  0.13630  Biso   1.000  H
  C154     1.0000 0.31910  0.44360  0.16370  Biso   1.000  C
  H104     1.0000 0.33460  0.41160  0.18840  Biso   1.000  H
  N51      1.0000 0.12390  0.55140  0.88690  Biso   1.000  N
  C155     1.0000 0.15310  0.58870  0.91590  Biso   1.000  C
  H105     1.0000 0.15870  0.64900  0.91130  Biso   1.000  H
  C156     1.0000 0.17600  0.54460  0.95260  Biso   1.000  C
  H106     1.0000 0.19660  0.57440  0.97290  Biso   1.000  H
  C157     1.0000 0.16830  0.45620  0.95940  Biso   1.000  C
  C158     1.0000 0.13990  0.41680  0.92670  Biso   1.000  C
  H107     1.0000 0.13560  0.35510  0.92760  Biso   1.000  H
  C159     1.0000 0.11750  0.46770  0.89230  Biso   1.000  C
  H108     1.0000 0.09640  0.44020  0.87160  Biso   1.000  H
  C160     1.0000 0.20560  0.27680  0.03500  Biso   1.000  C
  N52      1.0000 0.23300  0.31080  0.06700  Biso   1.000  N
  C161     1.0000 0.23880  0.39780  0.06200  Biso   1.000  C
  N53      1.0000 0.21980  0.44870  0.02780  Biso   1.000  N
  C162     1.0000 0.19090  0.40540  0.99850  Biso   1.000  C
  N54      1.0000 0.18200  0.31980  0.00070  Biso   1.000  N
  N55      1.0000 0.41640  0.51500  0.21070  Biso   1.000  N
  C163     1.0000 0.43190  0.51170  0.17250  Biso   1.000  C
  H109     1.0000 0.42050  0.54800  0.14720  Biso   1.000  H
  C164     1.0000 0.46320  0.45940  0.16770  Biso   1.000  C
  H110     1.0000 0.47410  0.46190  0.14040  Biso   1.000  H
  C165     1.0000 0.47880  0.40230  0.20340  Biso   1.000  C
  C166     1.0000 0.46370  0.40570  0.24240  Biso   1.000  C
  H111     1.0000 0.47460  0.37000  0.26810  Biso   1.000  H
  C167     1.0000 0.43260  0.46090  0.24460  Biso   1.000  C
  H112     1.0000 0.42190  0.46060  0.27210  Biso   1.000  H
  N56      1.0000 0.56110  0.97550  0.29560  Biso   1.000  N
  C168     1.0000 0.58040  0.99020  0.26080  Biso   1.000  C
  H113     1.0000 0.59930  0.94800  0.25480  Biso   1.000  H
  C169     1.0000 0.57390  0.06470  0.23350  Biso   1.000  C
  H114     1.0000 0.58740  0.07300  0.20860  Biso   1.000  H
  C170     1.0000 0.54690  0.12740  0.24340  Biso   1.000  C
  C171     1.0000 0.52550  0.11070  0.27750  Biso   1.000  C
  H115     1.0000 0.50590  0.15090  0.28360  Biso   1.000  H
  C172     1.0000 0.53350  0.03290  0.30280  Biso   1.000  C
  H116     1.0000 0.51870  0.02040  0.32620  Biso   1.000  H
  N57      1.0000 0.64260  0.34760  0.07490  Biso   1.000  N
  C173     1.0000 0.65130  0.28860  0.10910  Biso   1.000  C
  H117     1.0000 0.67590  0.25790  0.11330  Biso   1.000  H
  C174     1.0000 0.62420  0.27110  0.13930  Biso   1.000  C
  H118     1.0000 0.63020  0.22860  0.16330  Biso   1.000  H
  C175     1.0000 0.58910  0.31770  0.13280  Biso   1.000  C
  C176     1.0000 0.58120  0.38260  0.09910  Biso   1.000  C
  H119     1.0000 0.55800  0.41780  0.09630  Biso   1.000  H
  C177     1.0000 0.60740  0.39510  0.07040  Biso   1.000  C
  H120     1.0000 0.60140  0.43770  0.04650  Biso   1.000  H
  C178     1.0000 0.51130  0.33950  0.19880  Biso   1.000  C
  N58      1.0000 0.51460  0.26890  0.22560  Biso   1.000  N
  C179     1.0000 0.54210  0.21100  0.21730  Biso   1.000  C
  N59      1.0000 0.56660  0.22480  0.18730  Biso   1.000  N
  C180     1.0000 0.56210  0.30000  0.16410  Biso   1.000  C
  N60      1.0000 0.53320  0.36070  0.16810  Biso   1.000  N
  N61      1.0000 0.62460  0.95140  0.38640  Biso   1.000  N
  C181     1.0000 0.65130  0.91140  0.41780  Biso   1.000  C
  H121     1.0000 0.65440  0.84940  0.41560  Biso   1.000  H
  C182     1.0000 0.67500  0.95640  0.45400  Biso   1.000  C
  H122     1.0000 0.69420  0.92600  0.47590  Biso   1.000  H
  C183     1.0000 0.67000  0.04580  0.45720  Biso   1.000  C
  C184     1.0000 0.64450  0.08840  0.42280  Biso   1.000  C
  H123     1.0000 0.64200  0.15070  0.42320  Biso   1.000  H
  C185     1.0000 0.62270  0.04030  0.38780  Biso   1.000  C
  H124     1.0000 0.60570  0.07040  0.36360  Biso   1.000  H
  N62      1.0000 0.68790  0.50510  0.52970  Biso   1.000  N
  C186     1.0000 0.66760  0.45310  0.49760  Biso   1.000  C
  H125     1.0000 0.64920  0.47890  0.47310  Biso   1.000  H
  C187     1.0000 0.67230  0.36220  0.49840  Biso   1.000  C
  H126     1.0000 0.65720  0.32650  0.47500  Biso   1.000  H
  C188     1.0000 0.69950  0.32460  0.53390  Biso   1.000  C
  C189     1.0000 0.72010  0.37850  0.56720  Biso   1.000  C
  H127     1.0000 0.73860  0.35420  0.59210  Biso   1.000  H
  C190     1.0000 0.71400  0.46950  0.56430  Biso   1.000  C
  H128     1.0000 0.72870  0.50670  0.58720  Biso   1.000  H
  N63      1.0000 0.82540  0.97590  0.66130  Biso   1.000  N
  C191     1.0000 0.80430  0.93180  0.62670  Biso   1.000  C
  H129     1.0000 0.80850  0.87010  0.62490  Biso   1.000  H
  C192     1.0000 0.77650  0.97080  0.59290  Biso   1.000  C
  H130     1.0000 0.76190  0.93720  0.56820  Biso   1.000  H
  C193     1.0000 0.77050  0.06130  0.59610  Biso   1.000  C
  C194     1.0000 0.79230  0.10890  0.63250  Biso   1.000  C
  H131     1.0000 0.78860  0.17060  0.63510  Biso   1.000  H
  C195     1.0000 0.81940  0.06380  0.66470  Biso   1.000  C
  H132     1.0000 0.83440  0.09510  0.69000  Biso   1.000  H
  C196     1.0000 0.69260  0.09810  0.49640  Biso   1.000  C
  N64      1.0000 0.68310  0.18210  0.49960  Biso   1.000  N
  C197     1.0000 0.70560  0.22780  0.53340  Biso   1.000  C
  N65      1.0000 0.73440  0.19240  0.56590  Biso   1.000  N
  C198     1.0000 0.73960  0.10590  0.56100  Biso   1.000  C
  N66      1.0000 0.72060  0.05720  0.52560  Biso   1.000  N
  N67      1.0000 0.63880  0.65390  0.57200  Biso   1.000  N
  C199     1.0000 0.60720  0.60970  0.56950  Biso   1.000  C
  H133     1.0000 0.60230  0.56390  0.54720  Biso   1.000  H
  C200     1.0000 0.57930  0.62370  0.59700  Biso   1.000  C
  H134     1.0000 0.55540  0.59060  0.59240  Biso   1.000  H
  C201     1.0000 0.58700  0.68670  0.63130  Biso   1.000  C
  C202     1.0000 0.62320  0.73090  0.63600  Biso   1.000  C
  H135     1.0000 0.63050  0.77330  0.65980  Biso   1.000  H
  C203     1.0000 0.64750  0.71330  0.60700  Biso   1.000  C
  H136     1.0000 0.67210  0.74360  0.61090  Biso   1.000  H
  N68      1.0000 0.56240  0.02980  0.79450  Biso   1.000  N
  C204     1.0000 0.58110  0.01230  0.76040  Biso   1.000  C
  H137     1.0000 0.60010  0.05360  0.75380  Biso   1.000  H
  C205     1.0000 0.57460  0.93800  0.73410  Biso   1.000  C
  H138     1.0000 0.58900  0.92820  0.71010  Biso   1.000  H
  C206     1.0000 0.54700  0.87720  0.74270  Biso   1.000  C
  C207     1.0000 0.52550  0.89680  0.77720  Biso   1.000  C
  H139     1.0000 0.50540  0.85820  0.78350  Biso   1.000  H
  C208     1.0000 0.53420  0.97360  0.80180  Biso   1.000  C
  H140     1.0000 0.51950  0.98740  0.82520  Biso   1.000  H
  N69      1.0000 0.41550  0.49450  0.71230  Biso   1.000  N
  C209     1.0000 0.42930  0.49530  0.67430  Biso   1.000  C
  H141     1.0000 0.41790  0.45680  0.64990  Biso   1.000  H
  C210     1.0000 0.46070  0.55160  0.66780  Biso   1.000  C
  H142     1.0000 0.46930  0.55460  0.63900  Biso   1.000  H
  C211     1.0000 0.47840  0.60180  0.70490  Biso   1.000  C
  C212     1.0000 0.46290  0.60060  0.74510  Biso   1.000  C
  H143     1.0000 0.47340  0.63810  0.77020  Biso   1.000  H
  C213     1.0000 0.43160  0.54280  0.74780  Biso   1.000  C
  H144     1.0000 0.42180  0.53860  0.77580  Biso   1.000  H
  C214     1.0000 0.55960  0.70340  0.66400  Biso   1.000  C
  N70      1.0000 0.56620  0.77950  0.68750  Biso   1.000  N
  C215     1.0000 0.54260  0.79160  0.71690  Biso   1.000  C
  N71      1.0000 0.51420  0.73720  0.72540  Biso   1.000  N
  C216     1.0000 0.51020  0.66310  0.69890  Biso   1.000  C
  N72      1.0000 0.53230  0.64460  0.66760  Biso   1.000  N
  I49      1.0000 0.62860  0.65690  0.44200  Biso   1.000  I
  I50      1.0000 0.73170  0.73660  0.55100  Biso   1.000  I
  I51      1.0000 0.52840  0.15630  0.89090  Biso   1.000  I
  I52      1.0000 0.61540  0.24120  0.80500  Biso   1.000  I
  I53      1.0000 0.52980  0.84130  0.38290  Biso   1.000  I
  I54      1.0000 0.62280  0.77210  0.30020  Biso   1.000  I
  I55      1.0000 0.84930  0.90590  0.77880  Biso   1.000  I
  I56      1.0000 0.88910  0.76280  0.66400  Biso   1.000  I
  I57      1.0000 0.34200  0.54210  0.28459  Biso   1.000  I
  I58      1.0000 0.37773  0.74230  0.18264  Biso   1.000  I
  I59      1.0000 0.14390  0.83670  0.94910  Biso   1.000  I
  I60      1.0000 0.23660  0.77560  0.05460  Biso   1.000  I
  I61      1.0000 0.13310  0.83180  0.94580  Biso   1.000  I
  I62      1.0000 0.52972  0.84480  0.39160  Biso   1.000  I
  I63      1.0000 0.61750  0.76570  0.30073  Biso   1.000  I
  I64      1.0000 0.84030  0.96150  0.78745  Biso   1.000  I
  I65      1.0000 0.87707  0.76538  0.68492  Biso   1.000  I
  I66      1.0000 0.24550  0.77430  0.06300  Biso   1.000  I
  I67      1.0000 0.63790  0.66930  0.44760  Biso   1.000  I
  I68      1.0000 0.74140  0.72660  0.55930  Biso   1.000  I
  I69      1.0000 0.53080  0.16630  0.88490  Biso   1.000  I
  I70      1.0000 0.62390  0.23500  0.80050  Biso   1.000  I
  I71      1.0000 0.34347  0.55220  0.28900  Biso   1.000  I
  I72      1.0000 0.37881  0.73960  0.18204  Biso   1.000  I
  Zn19     1.0000 0.67896  0.36353  0.02766  Biso   1.000  Zn
  Zn20     1.0000 0.86625  0.08903  0.21237  Biso   1.000  Zn
  Zn21     1.0000 0.08261  0.37668  0.34214  Biso   1.000  Zn
  Zn22     1.0000 0.17547  0.13970  0.52471  Biso   1.000  Zn
  Zn23     1.0000 0.36498  0.41777  0.71405  Biso   1.000  Zn
  Zn24     1.0000 0.08375  0.62749  0.84156  Biso   1.000  Zn
  N73      1.0000 0.68910  0.49760  0.03180  Biso   1.000  N
  C217     1.0000 0.66890  0.55080  0.99860  Biso   1.000  C
  H145     1.0000 0.65080  0.52480  0.97390  Biso   1.000  H
  C218     1.0000 0.67360  0.64130  0.99920  Biso   1.000  C
  H146     1.0000 0.65910  0.67660  0.97520  Biso   1.000  H
  C219     1.0000 0.69950  0.67940  0.03500  Biso   1.000  C
  C220     1.0000 0.72060  0.62600  0.06960  Biso   1.000  C
  H147     1.0000 0.73900  0.65050  0.09460  Biso   1.000  H
  C221     1.0000 0.71400  0.53570  0.06620  Biso   1.000  C
  H148     1.0000 0.72800  0.49910  0.08990  Biso   1.000  H
  N74      1.0000 0.82570  0.02800  0.16170  Biso   1.000  N
  C222     1.0000 0.80420  0.07270  0.12500  Biso   1.000  C
  H149     1.0000 0.80940  0.13350  0.12120  Biso   1.000  H
  C223     1.0000 0.77520  0.03130  0.09370  Biso   1.000  C
  H150     1.0000 0.75950  0.06460  0.06970  Biso   1.000  H
  C224     1.0000 0.76850  0.94280  0.09650  Biso   1.000  C
  C225     1.0000 0.79150  0.89760  0.13280  Biso   1.000  C
  H151     1.0000 0.78830  0.83600  0.13630  Biso   1.000  H
  C226     1.0000 0.81910  0.94360  0.16370  Biso   1.000  C
  H152     1.0000 0.83460  0.91160  0.18840  Biso   1.000  H
  N75      1.0000 0.62390  0.05140  0.88690  Biso   1.000  N
  C227     1.0000 0.65310  0.08870  0.91590  Biso   1.000  C
  H153     1.0000 0.65870  0.14900  0.91130  Biso   1.000  H
  C228     1.0000 0.67600  0.04460  0.95260  Biso   1.000  C
  H154     1.0000 0.69660  0.07440  0.97290  Biso   1.000  H
  C229     1.0000 0.66830  0.95620  0.95940  Biso   1.000  C
  C230     1.0000 0.63990  0.91680  0.92670  Biso   1.000  C
  H155     1.0000 0.63560  0.85510  0.92760  Biso   1.000  H
  C231     1.0000 0.61750  0.96770  0.89230  Biso   1.000  C
  H156     1.0000 0.59640  0.94020  0.87160  Biso   1.000  H
  C232     1.0000 0.70560  0.77680  0.03500  Biso   1.000  C
  N76      1.0000 0.73300  0.81080  0.06700  Biso   1.000  N
  C233     1.0000 0.73880  0.89780  0.06200  Biso   1.000  C
  N77      1.0000 0.71980  0.94870  0.02780  Biso   1.000  N
  C234     1.0000 0.69090  0.90540  0.99850  Biso   1.000  C
  N78      1.0000 0.68200  0.81980  0.00070  Biso   1.000  N
  N79      1.0000 0.91640  0.01500  0.21070  Biso   1.000  N
  C235     1.0000 0.93190  0.01170  0.17250  Biso   1.000  C
  H157     1.0000 0.92050  0.04800  0.14720  Biso   1.000  H
  C236     1.0000 0.96320  0.95940  0.16770  Biso   1.000  C
  H158     1.0000 0.97410  0.96190  0.14040  Biso   1.000  H
  C237     1.0000 0.97880  0.90230  0.20340  Biso   1.000  C
  C238     1.0000 0.96370  0.90570  0.24240  Biso   1.000  C
  H159     1.0000 0.97460  0.87000  0.26810  Biso   1.000  H
  C239     1.0000 0.93260  0.96090  0.24460  Biso   1.000  C
  H160     1.0000 0.92190  0.96060  0.27210  Biso   1.000  H
  N80      1.0000 0.06110  0.47550  0.29560  Biso   1.000  N
  C240     1.0000 0.08040  0.49020  0.26080  Biso   1.000  C
  H161     1.0000 0.09930  0.44800  0.25480  Biso   1.000  H
  C241     1.0000 0.07390  0.56470  0.23350  Biso   1.000  C
  H162     1.0000 0.08740  0.57300  0.20860  Biso   1.000  H
  C242     1.0000 0.04690  0.62740  0.24340  Biso   1.000  C
  C243     1.0000 0.02550  0.61070  0.27750  Biso   1.000  C
  H163     1.0000 0.00590  0.65090  0.28360  Biso   1.000  H
  C244     1.0000 0.03350  0.53290  0.30280  Biso   1.000  C
  H164     1.0000 0.01870  0.52040  0.32620  Biso   1.000  H
  N81      1.0000 0.14260  0.84760  0.07490  Biso   1.000  N
  C245     1.0000 0.15130  0.78860  0.10910  Biso   1.000  C
  H165     1.0000 0.17590  0.75790  0.11330  Biso   1.000  H
  C246     1.0000 0.12420  0.77110  0.13930  Biso   1.000  C
  H166     1.0000 0.13020  0.72860  0.16330  Biso   1.000  H
  C247     1.0000 0.08910  0.81770  0.13280  Biso   1.000  C
  C248     1.0000 0.08120  0.88260  0.09910  Biso   1.000  C
  H167     1.0000 0.05800  0.91780  0.09630  Biso   1.000  H
  C249     1.0000 0.10740  0.89510  0.07040  Biso   1.000  C
  H168     1.0000 0.10140  0.93770  0.04650  Biso   1.000  H
  C250     1.0000 0.01130  0.83950  0.19880  Biso   1.000  C
  N82      1.0000 0.01460  0.76890  0.22560  Biso   1.000  N
  C251     1.0000 0.04210  0.71100  0.21730  Biso   1.000  C
  N83      1.0000 0.06660  0.72480  0.18730  Biso   1.000  N
  C252     1.0000 0.06210  0.80000  0.16410  Biso   1.000  C
  N84      1.0000 0.03320  0.86070  0.16810  Biso   1.000  N
  N85      1.0000 0.12460  0.45140  0.38640  Biso   1.000  N
  C253     1.0000 0.15130  0.41140  0.41780  Biso   1.000  C
  H169     1.0000 0.15440  0.34940  0.41560  Biso   1.000  H
  C254     1.0000 0.17500  0.45640  0.45400  Biso   1.000  C
  H170     1.0000 0.19420  0.42600  0.47590  Biso   1.000  H
  C255     1.0000 0.17000  0.54580  0.45720  Biso   1.000  C
  C256     1.0000 0.14450  0.58840  0.42280  Biso   1.000  C
  H171     1.0000 0.14200  0.65070  0.42320  Biso   1.000  H
  C257     1.0000 0.12270  0.54030  0.38780  Biso   1.000  C
  H172     1.0000 0.10570  0.57040  0.36360  Biso   1.000  H
  N86      1.0000 0.18790  0.00510  0.52970  Biso   1.000  N
  C258     1.0000 0.16760  0.95310  0.49760  Biso   1.000  C
  H173     1.0000 0.14920  0.97890  0.47310  Biso   1.000  H
  C259     1.0000 0.17230  0.86220  0.49840  Biso   1.000  C
  H174     1.0000 0.15720  0.82650  0.47500  Biso   1.000  H
  C260     1.0000 0.19950  0.82460  0.53390  Biso   1.000  C
  C261     1.0000 0.22010  0.87850  0.56720  Biso   1.000  C
  H175     1.0000 0.23860  0.85420  0.59210  Biso   1.000  H
  C262     1.0000 0.21400  0.96950  0.56430  Biso   1.000  C
  H176     1.0000 0.22870  0.00670  0.58720  Biso   1.000  H
  N87      1.0000 0.32540  0.47590  0.66130  Biso   1.000  N
  C263     1.0000 0.30430  0.43180  0.62670  Biso   1.000  C
  H177     1.0000 0.30850  0.37010  0.62490  Biso   1.000  H
  C264     1.0000 0.27650  0.47080  0.59290  Biso   1.000  C
  H178     1.0000 0.26190  0.43720  0.56820  Biso   1.000  H
  C265     1.0000 0.27050  0.56130  0.59610  Biso   1.000  C
  C266     1.0000 0.29230  0.60890  0.63250  Biso   1.000  C
  H179     1.0000 0.28860  0.67060  0.63510  Biso   1.000  H
  C267     1.0000 0.31940  0.56380  0.66470  Biso   1.000  C
  H180     1.0000 0.33440  0.59510  0.69000  Biso   1.000  H
  C268     1.0000 0.19260  0.59810  0.49640  Biso   1.000  C
  N88      1.0000 0.18310  0.68210  0.49960  Biso   1.000  N
  C269     1.0000 0.20560  0.72780  0.53340  Biso   1.000  C
  N89      1.0000 0.23440  0.69240  0.56590  Biso   1.000  N
  C270     1.0000 0.23960  0.60590  0.56100  Biso   1.000  C
  N90      1.0000 0.22060  0.55720  0.52560  Biso   1.000  N
  N91      1.0000 0.13880  0.15390  0.57200  Biso   1.000  N
  C271     1.0000 0.10720  0.10970  0.56950  Biso   1.000  C
  H181     1.0000 0.10230  0.06390  0.54720  Biso   1.000  H
  C272     1.0000 0.07930  0.12370  0.59700  Biso   1.000  C
  H182     1.0000 0.05540  0.09060  0.59240  Biso   1.000  H
  C273     1.0000 0.08700  0.18670  0.63130  Biso   1.000  C
  C274     1.0000 0.12320  0.23090  0.63600  Biso   1.000  C
  H183     1.0000 0.13050  0.27330  0.65980  Biso   1.000  H
  C275     1.0000 0.14750  0.21330  0.60700  Biso   1.000  C
  H184     1.0000 0.17210  0.24360  0.61090  Biso   1.000  H
  N92      1.0000 0.06240  0.52980  0.79450  Biso   1.000  N
  C276     1.0000 0.08110  0.51230  0.76040  Biso   1.000  C
  H185     1.0000 0.10010  0.55360  0.75380  Biso   1.000  H
  C277     1.0000 0.07460  0.43800  0.73410  Biso   1.000  C
  H186     1.0000 0.08900  0.42820  0.71010  Biso   1.000  H
  C278     1.0000 0.04700  0.37720  0.74270  Biso   1.000  C
  C279     1.0000 0.02550  0.39680  0.77720  Biso   1.000  C
  H187     1.0000 0.00540  0.35820  0.78350  Biso   1.000  H
  C280     1.0000 0.03420  0.47360  0.80180  Biso   1.000  C
  H188     1.0000 0.01950  0.48740  0.82520  Biso   1.000  H
  N93      1.0000 0.91550  0.99450  0.71230  Biso   1.000  N
  C281     1.0000 0.92930  0.99530  0.67430  Biso   1.000  C
  H189     1.0000 0.91790  0.95680  0.64990  Biso   1.000  H
  C282     1.0000 0.96070  0.05160  0.66780  Biso   1.000  C
  H190     1.0000 0.96930  0.05460  0.63900  Biso   1.000  H
  C283     1.0000 0.97840  0.10180  0.70490  Biso   1.000  C
  C284     1.0000 0.96290  0.10060  0.74510  Biso   1.000  C
  H191     1.0000 0.97340  0.13810  0.77020  Biso   1.000  H
  C285     1.0000 0.93160  0.04280  0.74780  Biso   1.000  C
  H192     1.0000 0.92180  0.03860  0.77580  Biso   1.000  H
  C286     1.0000 0.05960  0.20340  0.66400  Biso   1.000  C
  N94      1.0000 0.06620  0.27950  0.68750  Biso   1.000  N
  C287     1.0000 0.04260  0.29160  0.71690  Biso   1.000  C
  N95      1.0000 0.01420  0.23720  0.72540  Biso   1.000  N
  C288     1.0000 0.01020  0.16310  0.69890  Biso   1.000  C
  N96      1.0000 0.03230  0.14460  0.66760  Biso   1.000  N
  I73      1.0000 0.12860  0.15690  0.44200  Biso   1.000  I
  I74      1.0000 0.23170  0.23660  0.55100  Biso   1.000  I
  I75      1.0000 0.02840  0.65630  0.89090  Biso   1.000  I
  I76      1.0000 0.11540  0.74120  0.80500  Biso   1.000  I
  I77      1.0000 0.02980  0.34130  0.38290  Biso   1.000  I
  I78      1.0000 0.12280  0.27210  0.30020  Biso   1.000  I
  I79      1.0000 0.34930  0.40590  0.77880  Biso   1.000  I
  I80      1.0000 0.38910  0.26280  0.66400  Biso   1.000  I
  I81      1.0000 0.84200  0.04210  0.28459  Biso   1.000  I
  I82      1.0000 0.87773  0.24230  0.18264  Biso   1.000  I
  I83      1.0000 0.64390  0.33670  0.94910  Biso   1.000  I
  I84      1.0000 0.73660  0.27560  0.05460  Biso   1.000  I
  I85      1.0000 0.63310  0.33180  0.94580  Biso   1.000  I
  I86      1.0000 0.02972  0.34480  0.39160  Biso   1.000  I
  I87      1.0000 0.11750  0.26570  0.30073  Biso   1.000  I
  I88      1.0000 0.34030  0.46150  0.78745  Biso   1.000  I
  I89      1.0000 0.37707  0.26538  0.68492  Biso   1.000  I
  I90      1.0000 0.74550  0.27430  0.06300  Biso   1.000  I
  I91      1.0000 0.13790  0.16930  0.44760  Biso   1.000  I
  I92      1.0000 0.24140  0.22660  0.55930  Biso   1.000  I
  I93      1.0000 0.03080  0.66630  0.88490  Biso   1.000  I
  I94      1.0000 0.12390  0.73500  0.80050  Biso   1.000  I
  I95      1.0000 0.84347  0.05220  0.28900  Biso   1.000  I
  I96      1.0000 0.87881  0.23960  0.18204  Biso   1.000  I
  Br1      1.0000 0.29571  0.01000  0.68286  Biso   1.000  Br
  Br2      1.0000 0.20128  0.49645  0.81923  Biso   1.000  Br
  C289     1.0000 0.26610  0.23940  0.74280  Biso   1.000  C
  H193     1.0000 0.27880  0.29510  0.73470  Biso   1.000  H
  C290     1.0000 0.26190  0.17700  0.70230  Biso   1.000  C
  H194     1.0000 0.23440  0.17590  0.68440  Biso   1.000  H
  H195     1.0000 0.28020  0.19370  0.68150  Biso   1.000  H
  C291     1.0000 0.23060  0.26100  0.75720  Biso   1.000  C
  H196     1.0000 0.21540  0.20760  0.76350  Biso   1.000  H
  O1       1.0000 0.20650  0.31970  0.71790  Biso   1.000  O
  C292     1.0000 0.19050  0.38920  0.73590  Biso   1.000  C
  H197     1.0000 0.16560  0.36960  0.74590  Biso   1.000  H
  C293     1.0000 0.21960  0.41300  0.77680  Biso   1.000  C
  H198     1.0000 0.24210  0.44240  0.76550  Biso   1.000  H
  C294     1.0000 0.23560  0.33150  0.79930  Biso   1.000  C
  H199     1.0000 0.22030  0.31290  0.82290  Biso   1.000  H
  H200     1.0000 0.26380  0.33850  0.81400  Biso   1.000  H
  C295     1.0000 0.18000  0.45500  0.69910  Biso   1.000  C
  H201     1.0000 0.17740  0.51250  0.71400  Biso   1.000  H
  H202     1.0000 0.15340  0.43940  0.68130  Biso   1.000  H
  C296     1.0000 0.20750  0.46700  0.66510  Biso   1.000  C
  H203     1.0000 0.22370  0.41440  0.66470  Biso   1.000  H
  H204     1.0000 0.22470  0.51820  0.67440  Biso   1.000  H
  H205     1.0000 0.19170  0.47760  0.63420  Biso   1.000  H
  O2       1.0000 0.29440  0.20140  0.77760  Biso   1.000  O
  C297     1.0000 0.30810  0.11800  0.75580  Biso   1.000  C
  H206     1.0000 0.32950  0.13310  0.73840  Biso   1.000  H
  C298     1.0000 0.27430  0.09030  0.72460  Biso   1.000  C
  H207     1.0000 0.25370  0.06260  0.73980  Biso   1.000  H
  C299     1.0000 0.32490  0.05570  0.79590  Biso   1.000  C
  H208     1.0000 0.32460  0.99480  0.78380  Biso   1.000  H
  H209     1.0000 0.35300  0.07180  0.80760  Biso   1.000  H
  C300     1.0000 0.30630  0.05600  0.83020  Biso   1.000  C
  H210     1.0000 0.27820  0.05770  0.82130  Biso   1.000  H
  C301     1.0000 0.31900  0.05600  0.87480  Biso   1.000  C
  H211     1.0000 0.29870  0.05540  0.89270  Biso   1.000  H
  C302     1.0000 0.36410  0.05500  0.90470  Biso   1.000  C
  C303     1.0000 0.38500  0.07300  0.94820  Biso   1.000  C
  H212     1.0000 0.37460  0.08860  0.97460  Biso   1.000  H
  N97      1.0000 0.41860  0.06600  0.94640  Biso   1.000  N
  N98      1.0000 0.42710  0.03500  0.90750  Biso   1.000  N
  N99      1.0000 0.39250  0.03000  0.87990  Biso   1.000  N
  C304     1.0000 0.45320  0.07200  0.98410  Biso   1.000  C
  H213     1.0000 0.45050  0.12520  0.00270  Biso   1.000  H
  H214     1.0000 0.47740  0.07890  0.97080  Biso   1.000  H
  C305     1.0000 0.45770  0.99100  0.01570  Biso   1.000  C
  O3       1.0000 0.43140  0.93800  0.00890  Biso   1.000  O
  N100     1.0000 0.49330  0.98700  0.04480  Biso   1.000  N
  H215     1.0000 0.51100  0.02590  0.03970  Biso   1.000  H
  C306     1.0000 0.50600  0.92750  0.08330  Biso   1.000  C
  C307     1.0000 0.48530  0.85090  0.08920  Biso   1.000  C
  H216     1.0000 0.46060  0.83910  0.06950  Biso   1.000  H
  C308     1.0000 0.50080  0.79170  0.12390  Biso   1.000  C
  H217     1.0000 0.48670  0.73940  0.12800  Biso   1.000  H
  C309     1.0000 0.53700  0.80900  0.15270  Biso   1.000  C
  H218     1.0000 0.54760  0.76860  0.17650  Biso   1.000  H
  C310     1.0000 0.55770  0.88600  0.14680  Biso   1.000  C
  H219     1.0000 0.58240  0.89750  0.16650  Biso   1.000  H
  C311     1.0000 0.54220  0.94490  0.11210  Biso   1.000  C
  H220     1.0000 0.55630  0.99720  0.10800  Biso   1.000  H
  O4       1.0000 0.27110  0.17100  0.77890  Biso   1.000  O
  C312     1.0000 0.29000  0.08300  0.76820  Biso   1.000  C
  H221     1.0000 0.31760  0.09740  0.76430  Biso   1.000  H
  C313     1.0000 0.26700  0.08800  0.72500  Biso   1.000  C
  H222     1.0000 0.23990  0.06290  0.72520  Biso   1.000  H
  C314     1.0000 0.29450  0.03500  0.81400  Biso   1.000  C
  H223     1.0000 0.31050  0.07620  0.83640  Biso   1.000  H
  H224     1.0000 0.26740  0.03700  0.82150  Biso   1.000  H
  C315     1.0000 0.30740  0.95900  0.82900  Biso   1.000  C
  H225     1.0000 0.28900  0.91200  0.82190  Biso   1.000  H
  C316     1.0000 0.34200  0.93700  0.85200  Biso   1.000  C
  H226     1.0000 0.35630  0.89140  0.84080  Biso   1.000  H
  C317     1.0000 0.36140  0.98700  0.90050  Biso   1.000  C
  C318     1.0000 0.35980  0.06200  0.92600  Biso   1.000  C
  H227     1.0000 0.34300  0.11180  0.91840  Biso   1.000  H
  N101     1.0000 0.38340  0.05100  0.95940  Biso   1.000  N
  N102     1.0000 0.39630  0.97000  0.96940  Biso   1.000  N
  N103     1.0000 0.37850  0.92600  0.93350  Biso   1.000  N
  C319     1.0000 0.40130  0.11800  0.99270  Biso   1.000  C
  H228     1.0000 0.41220  0.08710  0.02200  Biso   1.000  H
  H229     1.0000 0.37990  0.15720  0.99870  Biso   1.000  H
  C320     1.0000 0.43430  0.17500  0.97930  Biso   1.000  C
  O5       1.0000 0.45420  0.14040  0.95570  Biso   1.000  O
  N104     1.0000 0.43700  0.25520  0.99680  Biso   1.000  N
  H230     1.0000 0.41710  0.27120  0.01000  Biso   1.000  H
  C321     1.0000 0.46760  0.32100  0.99750  Biso   1.000  C
  C322     1.0000 0.46420  0.39890  0.02120  Biso   1.000  C
  H231     1.0000 0.44450  0.40450  0.03960  Biso   1.000  H
  C323     1.0000 0.48980  0.46870  0.01800  Biso   1.000  C
  H232     1.0000 0.48750  0.52200  0.03420  Biso   1.000  H
  C324     1.0000 0.51880  0.46050  0.99100  Biso   1.000  C
  H233     1.0000 0.53630  0.50820  0.98880  Biso   1.000  H
  C325     1.0000 0.52210  0.38250  0.96730  Biso   1.000  C
  H234     1.0000 0.54190  0.37700  0.94890  Biso   1.000  H
  C326     1.0000 0.49660  0.31280  0.97060  Biso   1.000  C
  H235     1.0000 0.49890  0.25950  0.95440  Biso   1.000  H
  C327     1.0000 0.53500  0.82800  0.92800  Biso   1.000  C
  H236     1.0000 0.54600  0.88280  0.91810  Biso   1.000  H
  H237     1.0000 0.50840  0.84030  0.93540  Biso   1.000  H
  C328     1.0000 0.56300  0.79000  0.97100  Biso   1.000  C
  H238     1.0000 0.59000  0.81100  0.97120  Biso   1.000  H
  H239     1.0000 0.55430  0.81320  0.99910  Biso   1.000  H
  C329     1.0000 0.56340  0.69000  0.97400  Biso   1.000  C
  H240     1.0000 0.53680  0.66960  0.97720  Biso   1.000  H
  H241     1.0000 0.58230  0.67290  0.00220  Biso   1.000  H
  C330     1.0000 0.57500  0.64300  0.93300  Biso   1.000  C
  H242     1.0000 0.55660  0.59420  0.92240  Biso   1.000  H
  H243     1.0000 0.60230  0.61900  0.94140  Biso   1.000  H
  C331     1.0000 0.57300  0.71300  0.89400  Biso   1.000  C
  H244     1.0000 0.57620  0.68440  0.86440  Biso   1.000  H
  H245     1.0000 0.59460  0.75720  0.90220  Biso   1.000  H
  C332     1.0000 0.53200  0.75600  0.89000  Biso   1.000  C
  H246     1.0000 0.52340  0.78380  0.85880  Biso   1.000  H
  H247     1.0000 0.51150  0.71150  0.89360  Biso   1.000  H
  Br3      1.0000 0.70429  0.01000  0.31714  Biso   1.000  Br
  Br4      1.0000 0.79872  0.49645  0.18077  Biso   1.000  Br
  C333     1.0000 0.73390  0.23940  0.25720  Biso   1.000  C
  H248     1.0000 0.72120  0.29510  0.26530  Biso   1.000  H
  C334     1.0000 0.73810  0.17700  0.29770  Biso   1.000  C
  H249     1.0000 0.76560  0.17590  0.31560  Biso   1.000  H
  H250     1.0000 0.71980  0.19370  0.31850  Biso   1.000  H
  C335     1.0000 0.76940  0.26100  0.24280  Biso   1.000  C
  H251     1.0000 0.78460  0.20760  0.23650  Biso   1.000  H
  O6       1.0000 0.79350  0.31970  0.28210  Biso   1.000  O
  C336     1.0000 0.80950  0.38920  0.26410  Biso   1.000  C
  H252     1.0000 0.83440  0.36960  0.25410  Biso   1.000  H
  C337     1.0000 0.78040  0.41300  0.22320  Biso   1.000  C
  H253     1.0000 0.75790  0.44240  0.23450  Biso   1.000  H
  C338     1.0000 0.76440  0.33150  0.20070  Biso   1.000  C
  H254     1.0000 0.77970  0.31290  0.17710  Biso   1.000  H
  H255     1.0000 0.73620  0.33850  0.18600  Biso   1.000  H
  C339     1.0000 0.82000  0.45500  0.30090  Biso   1.000  C
  H256     1.0000 0.82260  0.51250  0.28600  Biso   1.000  H
  H257     1.0000 0.84660  0.43940  0.31870  Biso   1.000  H
  C340     1.0000 0.79250  0.46700  0.33490  Biso   1.000  C
  H258     1.0000 0.77630  0.41440  0.33530  Biso   1.000  H
  H259     1.0000 0.77530  0.51820  0.32560  Biso   1.000  H
  H260     1.0000 0.80830  0.47760  0.36580  Biso   1.000  H
  O7       1.0000 0.70560  0.20140  0.22240  Biso   1.000  O
  C341     1.0000 0.69190  0.11800  0.24420  Biso   1.000  C
  H261     1.0000 0.67050  0.13310  0.26160  Biso   1.000  H
  C342     1.0000 0.72570  0.09030  0.27540  Biso   1.000  C
  H262     1.0000 0.74630  0.06260  0.26020  Biso   1.000  H
  C343     1.0000 0.67510  0.05570  0.20410  Biso   1.000  C
  H263     1.0000 0.67540  0.99480  0.21620  Biso   1.000  H
  H264     1.0000 0.64700  0.07180  0.19240  Biso   1.000  H
  C344     1.0000 0.69370  0.05600  0.16980  Biso   1.000  C
  H265     1.0000 0.72180  0.05770  0.17870  Biso   1.000  H
  C345     1.0000 0.68100  0.05600  0.12520  Biso   1.000  C
  H266     1.0000 0.70130  0.05540  0.10730  Biso   1.000  H
  C346     1.0000 0.63590  0.05500  0.09530  Biso   1.000  C
  C347     1.0000 0.61500  0.07300  0.05180  Biso   1.000  C
  H267     1.0000 0.62540  0.08860  0.02540  Biso   1.000  H
  N105     1.0000 0.58140  0.06600  0.05360  Biso   1.000  N
  N106     1.0000 0.57290  0.03500  0.09250  Biso   1.000  N
  N107     1.0000 0.60750  0.03000  0.12010  Biso   1.000  N
  C348     1.0000 0.54680  0.07200  0.01590  Biso   1.000  C
  H268     1.0000 0.54950  0.12520  0.99730  Biso   1.000  H
  H269     1.0000 0.52260  0.07890  0.02920  Biso   1.000  H
  C349     1.0000 0.54230  0.99100  0.98430  Biso   1.000  C
  O8       1.0000 0.56860  0.93800  0.99110  Biso   1.000  O
  N108     1.0000 0.50670  0.98700  0.95520  Biso   1.000  N
  H270     1.0000 0.48900  0.02590  0.96030  Biso   1.000  H
  C350     1.0000 0.49400  0.92750  0.91670  Biso   1.000  C
  C351     1.0000 0.51470  0.85090  0.91080  Biso   1.000  C
  H271     1.0000 0.53940  0.83910  0.93050  Biso   1.000  H
  C352     1.0000 0.49920  0.79170  0.87610  Biso   1.000  C
  H272     1.0000 0.51330  0.73940  0.87200  Biso   1.000  H
  C353     1.0000 0.46300  0.80900  0.84730  Biso   1.000  C
  H273     1.0000 0.45240  0.76860  0.82350  Biso   1.000  H
  C354     1.0000 0.44230  0.88600  0.85320  Biso   1.000  C
  H274     1.0000 0.41760  0.89750  0.83350  Biso   1.000  H
  C355     1.0000 0.45780  0.94490  0.88790  Biso   1.000  C
  H275     1.0000 0.44370  0.99720  0.89200  Biso   1.000  H
  O9       1.0000 0.72890  0.17100  0.22110  Biso   1.000  O
  C356     1.0000 0.71000  0.08300  0.23180  Biso   1.000  C
  H276     1.0000 0.68240  0.09740  0.23570  Biso   1.000  H
  C357     1.0000 0.73300  0.08800  0.27500  Biso   1.000  C
  H277     1.0000 0.76010  0.06290  0.27480  Biso   1.000  H
  C358     1.0000 0.70550  0.03500  0.18600  Biso   1.000  C
  H278     1.0000 0.68950  0.07620  0.16360  Biso   1.000  H
  H279     1.0000 0.73260  0.03700  0.17850  Biso   1.000  H
  C359     1.0000 0.69260  0.95900  0.17100  Biso   1.000  C
  H280     1.0000 0.71100  0.91200  0.17810  Biso   1.000  H
  C360     1.0000 0.65800  0.93700  0.14800  Biso   1.000  C
  H281     1.0000 0.64370  0.89140  0.15920  Biso   1.000  H
  C361     1.0000 0.63860  0.98700  0.09950  Biso   1.000  C
  C362     1.0000 0.64020  0.06200  0.07400  Biso   1.000  C
  H282     1.0000 0.65700  0.11180  0.08160  Biso   1.000  H
  N109     1.0000 0.61660  0.05100  0.04060  Biso   1.000  N
  N110     1.0000 0.60370  0.97000  0.03060  Biso   1.000  N
  N111     1.0000 0.62150  0.92600  0.06650  Biso   1.000  N
  C363     1.0000 0.59870  0.11800  0.00730  Biso   1.000  C
  H283     1.0000 0.58780  0.08710  0.97800  Biso   1.000  H
  H284     1.0000 0.62010  0.15720  0.00130  Biso   1.000  H
  C364     1.0000 0.56570  0.17500  0.02070  Biso   1.000  C
  O10      1.0000 0.54580  0.14040  0.04430  Biso   1.000  O
  N112     1.0000 0.56300  0.25520  0.00320  Biso   1.000  N
  H285     1.0000 0.58290  0.27120  0.99000  Biso   1.000  H
  C365     1.0000 0.53240  0.32100  0.00250  Biso   1.000  C
  C366     1.0000 0.53580  0.39890  0.97880  Biso   1.000  C
  H286     1.0000 0.55550  0.40450  0.96040  Biso   1.000  H
  C367     1.0000 0.51020  0.46870  0.98200  Biso   1.000  C
  H287     1.0000 0.51250  0.52200  0.96580  Biso   1.000  H
  C368     1.0000 0.48120  0.46050  0.00900  Biso   1.000  C
  H288     1.0000 0.46370  0.50820  0.01120  Biso   1.000  H
  C369     1.0000 0.47790  0.38250  0.03270  Biso   1.000  C
  H289     1.0000 0.45810  0.37700  0.05110  Biso   1.000  H
  C370     1.0000 0.50340  0.31280  0.02940  Biso   1.000  C
  H290     1.0000 0.50110  0.25950  0.04560  Biso   1.000  H
  C371     1.0000 0.46500  0.82800  0.07200  Biso   1.000  C
  H291     1.0000 0.45400  0.88280  0.08190  Biso   1.000  H
  H292     1.0000 0.49160  0.84030  0.06460  Biso   1.000  H
  C372     1.0000 0.43700  0.79000  0.02900  Biso   1.000  C
  H293     1.0000 0.41000  0.81100  0.02880  Biso   1.000  H
  H294     1.0000 0.44570  0.81320  0.00090  Biso   1.000  H
  C373     1.0000 0.43660  0.69000  0.02600  Biso   1.000  C
  H295     1.0000 0.46320  0.66960  0.02280  Biso   1.000  H
  H296     1.0000 0.41770  0.67290  0.99780  Biso   1.000  H
  C374     1.0000 0.42500  0.64300  0.06700  Biso   1.000  C
  H297     1.0000 0.44340  0.59420  0.07760  Biso   1.000  H
  H298     1.0000 0.39770  0.61900  0.05860  Biso   1.000  H
  C375     1.0000 0.42700  0.71300  0.10600  Biso   1.000  C
  H299     1.0000 0.42380  0.68440  0.13560  Biso   1.000  H
  H300     1.0000 0.40540  0.75720  0.09780  Biso   1.000  H
  C376     1.0000 0.46800  0.75600  0.11000  Biso   1.000  C
  H301     1.0000 0.47660  0.78380  0.14120  Biso   1.000  H
  H302     1.0000 0.48850  0.71150  0.10640  Biso   1.000  H
  Br5      1.0000 0.79571  0.51000  0.68286  Biso   1.000  Br
  Br6      1.0000 0.70128  0.99645  0.81923  Biso   1.000  Br
  C377     1.0000 0.76610  0.73940  0.74280  Biso   1.000  C
  H303     1.0000 0.77880  0.79510  0.73470  Biso   1.000  H
  C378     1.0000 0.76190  0.67700  0.70230  Biso   1.000  C
  H304     1.0000 0.73440  0.67590  0.68440  Biso   1.000  H
  H305     1.0000 0.78020  0.69370  0.68150  Biso   1.000  H
  C379     1.0000 0.73060  0.76100  0.75720  Biso   1.000  C
  H306     1.0000 0.71540  0.70760  0.76350  Biso   1.000  H
  O11      1.0000 0.70650  0.81970  0.71790  Biso   1.000  O
  C380     1.0000 0.69050  0.88920  0.73590  Biso   1.000  C
  H307     1.0000 0.66560  0.86960  0.74590  Biso   1.000  H
  C381     1.0000 0.71960  0.91300  0.77680  Biso   1.000  C
  H308     1.0000 0.74210  0.94240  0.76550  Biso   1.000  H
  C382     1.0000 0.73560  0.83150  0.79930  Biso   1.000  C
  H309     1.0000 0.72030  0.81290  0.82290  Biso   1.000  H
  H310     1.0000 0.76380  0.83850  0.81400  Biso   1.000  H
  C383     1.0000 0.68000  0.95500  0.69910  Biso   1.000  C
  H311     1.0000 0.67740  0.01250  0.71400  Biso   1.000  H
  H312     1.0000 0.65340  0.93940  0.68130  Biso   1.000  H
  C384     1.0000 0.70750  0.96700  0.66510  Biso   1.000  C
  H313     1.0000 0.72370  0.91440  0.66470  Biso   1.000  H
  H314     1.0000 0.72470  0.01820  0.67440  Biso   1.000  H
  H315     1.0000 0.69170  0.97760  0.63420  Biso   1.000  H
  O12      1.0000 0.79440  0.70140  0.77760  Biso   1.000  O
  C385     1.0000 0.80810  0.61800  0.75580  Biso   1.000  C
  H316     1.0000 0.82950  0.63310  0.73840  Biso   1.000  H
  C386     1.0000 0.77430  0.59030  0.72460  Biso   1.000  C
  H317     1.0000 0.75370  0.56260  0.73980  Biso   1.000  H
  C387     1.0000 0.82490  0.55570  0.79590  Biso   1.000  C
  H318     1.0000 0.82460  0.49480  0.78380  Biso   1.000  H
  H319     1.0000 0.85300  0.57180  0.80760  Biso   1.000  H
  C388     1.0000 0.80630  0.55600  0.83020  Biso   1.000  C
  H320     1.0000 0.77820  0.55770  0.82130  Biso   1.000  H
  C389     1.0000 0.81900  0.55600  0.87480  Biso   1.000  C
  H321     1.0000 0.79870  0.55540  0.89270  Biso   1.000  H
  C390     1.0000 0.86410  0.55500  0.90470  Biso   1.000  C
  C391     1.0000 0.88500  0.57300  0.94820  Biso   1.000  C
  H322     1.0000 0.87460  0.58860  0.97460  Biso   1.000  H
  N113     1.0000 0.91860  0.56600  0.94640  Biso   1.000  N
  N114     1.0000 0.92710  0.53500  0.90750  Biso   1.000  N
  N115     1.0000 0.89250  0.53000  0.87990  Biso   1.000  N
  C392     1.0000 0.95320  0.57200  0.98410  Biso   1.000  C
  H323     1.0000 0.95050  0.62520  0.00270  Biso   1.000  H
  H324     1.0000 0.97740  0.57890  0.97080  Biso   1.000  H
  C393     1.0000 0.95770  0.49100  0.01570  Biso   1.000  C
  O13      1.0000 0.93140  0.43800  0.00890  Biso   1.000  O
  N116     1.0000 0.99330  0.48700  0.04480  Biso   1.000  N
  H325     1.0000 0.01100  0.52590  0.03970  Biso   1.000  H
  C394     1.0000 0.00600  0.42750  0.08330  Biso   1.000  C
  C395     1.0000 0.98530  0.35090  0.08920  Biso   1.000  C
  H326     1.0000 0.96060  0.33910  0.06950  Biso   1.000  H
  C396     1.0000 0.00080  0.29170  0.12390  Biso   1.000  C
  H327     1.0000 0.98670  0.23940  0.12800  Biso   1.000  H
  C397     1.0000 0.03700  0.30900  0.15270  Biso   1.000  C
  H328     1.0000 0.04760  0.26860  0.17650  Biso   1.000  H
  C398     1.0000 0.05770  0.38600  0.14680  Biso   1.000  C
  H329     1.0000 0.08240  0.39750  0.16650  Biso   1.000  H
  C399     1.0000 0.04220  0.44490  0.11210  Biso   1.000  C
  H330     1.0000 0.05630  0.49720  0.10800  Biso   1.000  H
  O14      1.0000 0.77110  0.67100  0.77890  Biso   1.000  O
  C400     1.0000 0.79000  0.58300  0.76820  Biso   1.000  C
  H331     1.0000 0.81760  0.59740  0.76430  Biso   1.000  H
  C401     1.0000 0.76700  0.58800  0.72500  Biso   1.000  C
  H332     1.0000 0.73990  0.56290  0.72520  Biso   1.000  H
  C402     1.0000 0.79450  0.53500  0.81400  Biso   1.000  C
  H333     1.0000 0.81050  0.57620  0.83640  Biso   1.000  H
  H334     1.0000 0.76740  0.53700  0.82150  Biso   1.000  H
  C403     1.0000 0.80740  0.45900  0.82900  Biso   1.000  C
  H335     1.0000 0.78900  0.41200  0.82190  Biso   1.000  H
  C404     1.0000 0.84200  0.43700  0.85200  Biso   1.000  C
  H336     1.0000 0.85630  0.39140  0.84080  Biso   1.000  H
  C405     1.0000 0.86140  0.48700  0.90050  Biso   1.000  C
  C406     1.0000 0.85980  0.56200  0.92600  Biso   1.000  C
  H337     1.0000 0.84300  0.61180  0.91840  Biso   1.000  H
  N117     1.0000 0.88340  0.55100  0.95940  Biso   1.000  N
  N118     1.0000 0.89630  0.47000  0.96940  Biso   1.000  N
  N119     1.0000 0.87850  0.42600  0.93350  Biso   1.000  N
  C407     1.0000 0.90130  0.61800  0.99270  Biso   1.000  C
  H338     1.0000 0.91220  0.58710  0.02200  Biso   1.000  H
  H339     1.0000 0.87990  0.65720  0.99870  Biso   1.000  H
  C408     1.0000 0.93430  0.67500  0.97930  Biso   1.000  C
  O15      1.0000 0.95420  0.64040  0.95570  Biso   1.000  O
  N120     1.0000 0.93700  0.75520  0.99680  Biso   1.000  N
  H340     1.0000 0.91710  0.77120  0.01000  Biso   1.000  H
  C409     1.0000 0.96760  0.82100  0.99750  Biso   1.000  C
  C410     1.0000 0.96420  0.89890  0.02120  Biso   1.000  C
  H341     1.0000 0.94450  0.90450  0.03960  Biso   1.000  H
  C411     1.0000 0.98980  0.96870  0.01800  Biso   1.000  C
  H342     1.0000 0.98750  0.02200  0.03420  Biso   1.000  H
  C412     1.0000 0.01880  0.96050  0.99100  Biso   1.000  C
  H343     1.0000 0.03630  0.00820  0.98880  Biso   1.000  H
  C413     1.0000 0.02210  0.88250  0.96730  Biso   1.000  C
  H344     1.0000 0.04190  0.87700  0.94890  Biso   1.000  H
  C414     1.0000 0.99660  0.81280  0.97060  Biso   1.000  C
  H345     1.0000 0.99890  0.75950  0.95440  Biso   1.000  H
  C415     1.0000 0.03500  0.32800  0.92800  Biso   1.000  C
  H346     1.0000 0.04600  0.38280  0.91810  Biso   1.000  H
  H347     1.0000 0.00840  0.34030  0.93540  Biso   1.000  H
  C416     1.0000 0.06300  0.29000  0.97100  Biso   1.000  C
  H348     1.0000 0.09000  0.31100  0.97120  Biso   1.000  H
  H349     1.0000 0.05430  0.31320  0.99910  Biso   1.000  H
  C417     1.0000 0.06340  0.19000  0.97400  Biso   1.000  C
  H350     1.0000 0.03680  0.16960  0.97720  Biso   1.000  H
  H351     1.0000 0.08230  0.17290  0.00220  Biso   1.000  H
  C418     1.0000 0.07500  0.14300  0.93300  Biso   1.000  C
  H352     1.0000 0.05660  0.09420  0.92240  Biso   1.000  H
  H353     1.0000 0.10230  0.11900  0.94140  Biso   1.000  H
  C419     1.0000 0.07300  0.21300  0.89400  Biso   1.000  C
  H354     1.0000 0.07620  0.18440  0.86440  Biso   1.000  H
  H355     1.0000 0.09460  0.25720  0.90220  Biso   1.000  H
  C420     1.0000 0.03200  0.25600  0.89000  Biso   1.000  C
  H356     1.0000 0.02340  0.28380  0.85880  Biso   1.000  H
  H357     1.0000 0.01150  0.21150  0.89360  Biso   1.000  H
  Br7      1.0000 0.20429  0.51000  0.31714  Biso   1.000  Br
  Br8      1.0000 0.29872  0.99645  0.18077  Biso   1.000  Br
  C421     1.0000 0.23390  0.73940  0.25720  Biso   1.000  C
  H358     1.0000 0.22120  0.79510  0.26530  Biso   1.000  H
  C422     1.0000 0.23810  0.67700  0.29770  Biso   1.000  C
  H359     1.0000 0.26560  0.67590  0.31560  Biso   1.000  H
  H360     1.0000 0.21980  0.69370  0.31850  Biso   1.000  H
  C423     1.0000 0.26940  0.76100  0.24280  Biso   1.000  C
  H361     1.0000 0.28460  0.70760  0.23650  Biso   1.000  H
  O16      1.0000 0.29350  0.81970  0.28210  Biso   1.000  O
  C424     1.0000 0.30950  0.88920  0.26410  Biso   1.000  C
  H362     1.0000 0.33440  0.86960  0.25410  Biso   1.000  H
  C425     1.0000 0.28040  0.91300  0.22320  Biso   1.000  C
  H363     1.0000 0.25790  0.94240  0.23450  Biso   1.000  H
  C426     1.0000 0.26440  0.83150  0.20070  Biso   1.000  C
  H364     1.0000 0.27970  0.81290  0.17710  Biso   1.000  H
  H365     1.0000 0.23620  0.83850  0.18600  Biso   1.000  H
  C427     1.0000 0.32000  0.95500  0.30090  Biso   1.000  C
  H366     1.0000 0.32260  0.01250  0.28600  Biso   1.000  H
  H367     1.0000 0.34660  0.93940  0.31870  Biso   1.000  H
  C428     1.0000 0.29250  0.96700  0.33490  Biso   1.000  C
  H368     1.0000 0.27630  0.91440  0.33530  Biso   1.000  H
  H369     1.0000 0.27530  0.01820  0.32560  Biso   1.000  H
  H370     1.0000 0.30830  0.97760  0.36580  Biso   1.000  H
  O17      1.0000 0.20560  0.70140  0.22240  Biso   1.000  O
  C429     1.0000 0.19190  0.61800  0.24420  Biso   1.000  C
  H371     1.0000 0.17050  0.63310  0.26160  Biso   1.000  H
  C430     1.0000 0.22570  0.59030  0.27540  Biso   1.000  C
  H372     1.0000 0.24630  0.56260  0.26020  Biso   1.000  H
  C431     1.0000 0.17510  0.55570  0.20410  Biso   1.000  C
  H373     1.0000 0.17540  0.49480  0.21620  Biso   1.000  H
  H374     1.0000 0.14700  0.57180  0.19240  Biso   1.000  H
  C432     1.0000 0.19370  0.55600  0.16980  Biso   1.000  C
  H375     1.0000 0.22180  0.55770  0.17870  Biso   1.000  H
  C433     1.0000 0.18100  0.55600  0.12520  Biso   1.000  C
  H376     1.0000 0.20130  0.55540  0.10730  Biso   1.000  H
  C434     1.0000 0.13590  0.55500  0.09530  Biso   1.000  C
  C435     1.0000 0.11500  0.57300  0.05180  Biso   1.000  C
  H377     1.0000 0.12540  0.58860  0.02540  Biso   1.000  H
  N121     1.0000 0.08140  0.56600  0.05360  Biso   1.000  N
  N122     1.0000 0.07290  0.53500  0.09250  Biso   1.000  N
  N123     1.0000 0.10750  0.53000  0.12010  Biso   1.000  N
  C436     1.0000 0.04680  0.57200  0.01590  Biso   1.000  C
  H378     1.0000 0.04950  0.62520  0.99730  Biso   1.000  H
  H379     1.0000 0.02260  0.57890  0.02920  Biso   1.000  H
  C437     1.0000 0.04230  0.49100  0.98430  Biso   1.000  C
  O18      1.0000 0.06860  0.43800  0.99110  Biso   1.000  O
  N124     1.0000 0.00670  0.48700  0.95520  Biso   1.000  N
  H380     1.0000 0.98900  0.52590  0.96030  Biso   1.000  H
  C438     1.0000 0.99400  0.42750  0.91670  Biso   1.000  C
  C439     1.0000 0.01470  0.35090  0.91080  Biso   1.000  C
  H381     1.0000 0.03940  0.33910  0.93050  Biso   1.000  H
  C440     1.0000 0.99920  0.29170  0.87610  Biso   1.000  C
  H382     1.0000 0.01330  0.23940  0.87200  Biso   1.000  H
  C441     1.0000 0.96300  0.30900  0.84730  Biso   1.000  C
  H383     1.0000 0.95240  0.26860  0.82350  Biso   1.000  H
  C442     1.0000 0.94230  0.38600  0.85320  Biso   1.000  C
  H384     1.0000 0.91760  0.39750  0.83350  Biso   1.000  H
  C443     1.0000 0.95780  0.44490  0.88790  Biso   1.000  C
  H385     1.0000 0.94370  0.49720  0.89200  Biso   1.000  H
  O19      1.0000 0.22890  0.67100  0.22110  Biso   1.000  O
  C444     1.0000 0.21000  0.58300  0.23180  Biso   1.000  C
  H386     1.0000 0.18240  0.59740  0.23570  Biso   1.000  H
  C445     1.0000 0.23300  0.58800  0.27500  Biso   1.000  C
  H387     1.0000 0.26010  0.56290  0.27480  Biso   1.000  H
  C446     1.0000 0.20550  0.53500  0.18600  Biso   1.000  C
  H388     1.0000 0.18950  0.57620  0.16360  Biso   1.000  H
  H389     1.0000 0.23260  0.53700  0.17850  Biso   1.000  H
  C447     1.0000 0.19260  0.45900  0.17100  Biso   1.000  C
  H390     1.0000 0.21100  0.41200  0.17810  Biso   1.000  H
  C448     1.0000 0.15800  0.43700  0.14800  Biso   1.000  C
  H391     1.0000 0.14370  0.39140  0.15920  Biso   1.000  H
  C449     1.0000 0.13860  0.48700  0.09950  Biso   1.000  C
  C450     1.0000 0.14020  0.56200  0.07400  Biso   1.000  C
  H392     1.0000 0.15700  0.61180  0.08160  Biso   1.000  H
  N125     1.0000 0.11660  0.55100  0.04060  Biso   1.000  N
  N126     1.0000 0.10370  0.47000  0.03060  Biso   1.000  N
  N127     1.0000 0.12150  0.42600  0.06650  Biso   1.000  N
  C451     1.0000 0.09870  0.61800  0.00730  Biso   1.000  C
  H393     1.0000 0.08780  0.58710  0.97800  Biso   1.000  H
  H394     1.0000 0.12010  0.65720  0.00130  Biso   1.000  H
  C452     1.0000 0.06570  0.67500  0.02070  Biso   1.000  C
  O20      1.0000 0.04580  0.64040  0.04430  Biso   1.000  O
  N128     1.0000 0.06300  0.75520  0.00320  Biso   1.000  N
  H395     1.0000 0.08290  0.77120  0.99000  Biso   1.000  H
  C453     1.0000 0.03240  0.82100  0.00250  Biso   1.000  C
  C454     1.0000 0.03580  0.89890  0.97880  Biso   1.000  C
  H396     1.0000 0.05550  0.90450  0.96040  Biso   1.000  H
  C455     1.0000 0.01020  0.96870  0.98200  Biso   1.000  C
  H397     1.0000 0.01250  0.02200  0.96580  Biso   1.000  H
  C456     1.0000 0.98120  0.96050  0.00900  Biso   1.000  C
  H398     1.0000 0.96370  0.00820  0.01120  Biso   1.000  H
  C457     1.0000 0.97790  0.88250  0.03270  Biso   1.000  C
  H399     1.0000 0.95810  0.87700  0.05110  Biso   1.000  H
  C458     1.0000 0.00340  0.81280  0.02940  Biso   1.000  C
  H400     1.0000 0.00110  0.75950  0.04560  Biso   1.000  H
  C459     1.0000 0.96500  0.32800  0.07200  Biso   1.000  C
  H401     1.0000 0.95400  0.38280  0.08190  Biso   1.000  H
  H402     1.0000 0.99160  0.34030  0.06460  Biso   1.000  H
  C460     1.0000 0.93700  0.29000  0.02900  Biso   1.000  C
  H403     1.0000 0.91000  0.31100  0.02880  Biso   1.000  H
  H404     1.0000 0.94570  0.31320  0.00090  Biso   1.000  H
  C461     1.0000 0.93660  0.19000  0.02600  Biso   1.000  C
  H405     1.0000 0.96320  0.16960  0.02280  Biso   1.000  H
  H406     1.0000 0.91770  0.17290  0.99780  Biso   1.000  H
  C462     1.0000 0.92500  0.14300  0.06700  Biso   1.000  C
  H407     1.0000 0.94340  0.09420  0.07760  Biso   1.000  H
  H408     1.0000 0.89770  0.11900  0.05860  Biso   1.000  H
  C463     1.0000 0.92700  0.21300  0.10600  Biso   1.000  C
  H409     1.0000 0.92380  0.18440  0.13560  Biso   1.000  H
  H410     1.0000 0.90540  0.25720  0.09780  Biso   1.000  H
  C464     1.0000 0.96800  0.25600  0.11000  Biso   1.000  C
  H411     1.0000 0.97660  0.28380  0.14120  Biso   1.000  H
  H412     1.0000 0.98850  0.21150  0.10640  Biso   1.000  H
