data_image0
_cell_length_a       34.6788
_cell_length_b       15.0282
_cell_length_c       31.1707
_cell_angle_alpha    90
_cell_angle_beta     101.973
_cell_angle_gamma    90

_symmetry_space_group_name_H-M    "P 1"
_symmetry_int_tables_number       1

loop_
  _symmetry_equiv_pos_as_xyz
  'x, y, z'

loop_
  _atom_site_label
  _atom_site_occupancy
  _atom_site_fract_x
  _atom_site_fract_y
  _atom_site_fract_z
  _atom_site_thermal_displace_type
  _atom_site_B_iso_or_equiv
  _atom_site_type_symbol
  Zn1      1.0000 0.37357  0.90641  0.69371  Biso   1.000  Zn
  Zn2      1.0000 0.58301  0.61187  0.84442  Biso   1.000  Zn
  Zn3      1.0000 0.08206  0.87503  0.34502  Biso   1.000  Zn
  Zn4      1.0000 0.17702  0.34923  0.02532  Biso   1.000  Zn
  Zn5      1.0000 0.37367  0.07842  0.19489  Biso   1.000  Zn
  N1       1.0000 0.64100  0.15440  0.57030  Biso   1.000  N
  C1       1.0000 0.60640  0.12280  0.56510  Biso   1.000  C
  H1       1.0000 0.59630  0.09050  0.53900  Biso   1.000  H
  C2       1.0000 0.58290  0.13270  0.59480  Biso   1.000  C
  H2       1.0000 0.55810  0.10310  0.59040  Biso   1.000  H
  C3       1.0000 0.59460  0.18380  0.63020  Biso   1.000  C
  C4       1.0000 0.63100  0.22310  0.63460  Biso   1.000  C
  H3       1.0000 0.64090  0.26030  0.65910  Biso   1.000  H
  C5       1.0000 0.65200  0.20840  0.60460  Biso   1.000  C
  H4       1.0000 0.67650  0.23840  0.60760  Biso   1.000  H
  N2       1.0000 0.42150  0.98870  0.69500  Biso   1.000  N
  C6       1.0000 0.43780  0.03760  0.73020  Biso   1.000  C
  H5       1.0000 0.42670  0.03400  0.75550  Biso   1.000  H
  C7       1.0000 0.46930  0.09210  0.73140  Biso   1.000  C
  H6       1.0000 0.48050  0.12470  0.75710  Biso   1.000  H
  C8       1.0000 0.48460  0.09830  0.69360  Biso   1.000  C
  C9       1.0000 0.46700  0.05110  0.65760  Biso   1.000  C
  H7       1.0000 0.47600  0.05810  0.63100  Biso   1.000  H
  C10      1.0000 0.43710  0.99500  0.65910  Biso   1.000  C
  H8       1.0000 0.42690  0.95860  0.63440  Biso   1.000  H
  N3       1.0000 0.57020  0.51150  0.79900  Biso   1.000  N
  C11      1.0000 0.59650  0.48690  0.77550  Biso   1.000  C
  H9       1.0000 0.61940  0.52260  0.77740  Biso   1.000  H
  C12      1.0000 0.59270  0.41350  0.74860  Biso   1.000  C
  H10      1.0000 0.61240  0.39880  0.73280  Biso   1.000  H
  C13      1.0000 0.55980  0.36250  0.74550  Biso   1.000  C
  C14      1.0000 0.53200  0.38530  0.76980  Biso   1.000  C
  H11      1.0000 0.50900  0.35010  0.76840  Biso   1.000  H
  C15      1.0000 0.53830  0.45900  0.79580  Biso   1.000  C
  H12      1.0000 0.51920  0.47410  0.81250  Biso   1.000  H
  C16      1.0000 0.56960  0.19910  0.66190  Biso   1.000  C
  N4       1.0000 0.53930  0.14300  0.66210  Biso   1.000  N
  C17      1.0000 0.51840  0.15910  0.69190  Biso   1.000  C
  N5       1.0000 0.52440  0.22560  0.72110  Biso   1.000  N
  C18      1.0000 0.55450  0.28000  0.71690  Biso   1.000  C
  N6       1.0000 0.57790  0.27140  0.68940  Biso   1.000  N
  N7       1.0000 0.33010  0.96880  0.64850  Biso   1.000  N
  C19      1.0000 0.32180  0.05300  0.65470  Biso   1.000  C
  H13      1.0000 0.33580  0.08260  0.68010  Biso   1.000  H
  C20      1.0000 0.29320  0.10020  0.62540  Biso   1.000  C
  H14      1.0000 0.28830  0.16130  0.63010  Biso   1.000  H
  C21      1.0000 0.27180  0.05450  0.58840  Biso   1.000  C
  C22      1.0000 0.28070  0.96560  0.58310  Biso   1.000  C
  H15      1.0000 0.26630  0.93230  0.55910  Biso   1.000  H
  C23      1.0000 0.31040  0.92650  0.61300  Biso   1.000  C
  H16      1.0000 0.31730  0.86660  0.60830  Biso   1.000  H
  N8       1.0000 0.12180  0.94500  0.39290  Biso   1.000  N
  C24      1.0000 0.11740  0.03080  0.39680  Biso   1.000  C
  H17      1.0000 0.09830  0.06020  0.37530  Biso   1.000  H
  C25      1.0000 0.13910  0.08090  0.43030  Biso   1.000  C
  H18      1.0000 0.13450  0.14300  0.43210  Biso   1.000  H
  C26      1.0000 0.16760  0.03840  0.46130  Biso   1.000  C
  C27      1.0000 0.17270  0.94860  0.45520  Biso   1.000  C
  H19      1.0000 0.19250  0.91650  0.47470  Biso   1.000  H
  C28      1.0000 0.14930  0.90670  0.42130  Biso   1.000  C
  H20      1.0000 0.15330  0.84480  0.41800  Biso   1.000  H
  N9       1.0000 0.18600  0.50380  0.52670  Biso   1.000  N
  C29      1.0000 0.21560  0.46950  0.55450  Biso   1.000  C
  H21      1.0000 0.23250  0.50820  0.57400  Biso   1.000  H
  C30      1.0000 0.22370  0.37610  0.55710  Biso   1.000  C
  H22      1.0000 0.24660  0.35410  0.57630  Biso   1.000  H
  C31      1.0000 0.19860  0.32020  0.53190  Biso   1.000  C
  C32      1.0000 0.16760  0.35570  0.50200  Biso   1.000  C
  H23      1.0000 0.14950  0.31820  0.48320  Biso   1.000  H
  C33      1.0000 0.16340  0.44840  0.50000  Biso   1.000  C
  H24      1.0000 0.14300  0.47270  0.47810  Biso   1.000  H
  C34      1.0000 0.24070  0.10000  0.55660  Biso   1.000  C
  N10      1.0000 0.21970  0.05120  0.52420  Biso   1.000  N
  C35      1.0000 0.19140  0.09010  0.49680  Biso   1.000  C
  N11      1.0000 0.18260  0.17590  0.49980  Biso   1.000  N
  C36      1.0000 0.20570  0.22110  0.53170  Biso   1.000  C
  N12      1.0000 0.23380  0.18630  0.56180  Biso   1.000  N
  N13      1.0000 0.06990  0.97910  0.29930  Biso   1.000  N
  C37      1.0000 0.09590  0.99800  0.27580  Biso   1.000  C
  H25      1.0000 0.11840  0.96080  0.27850  Biso   1.000  H
  C38      1.0000 0.09210  0.07110  0.24670  Biso   1.000  C
  H26      1.0000 0.11100  0.08260  0.22920  Biso   1.000  H
  C39      1.0000 0.05870  0.12590  0.24500  Biso   1.000  C
  C40      1.0000 0.03090  0.10430  0.26970  Biso   1.000  C
  H27      1.0000 0.00800  0.13970  0.26850  Biso   1.000  H
  C41      1.0000 0.03780  0.02910  0.29620  Biso   1.000  C
  H28      1.0000 0.01890  0.01280  0.31290  Biso   1.000  H
  N14      1.0000 0.14410  0.32990  0.07160  Biso   1.000  N
  C42      1.0000 0.11240  0.38240  0.06970  Biso   1.000  C
  H29      1.0000 0.10770  0.43030  0.04940  Biso   1.000  H
  C43      1.0000 0.08550  0.36620  0.09850  Biso   1.000  C
  H30      1.0000 0.06190  0.39980  0.09550  Biso   1.000  H
  C44      1.0000 0.09460  0.30030  0.13100  Biso   1.000  C
  C45      1.0000 0.13050  0.25750  0.13630  Biso   1.000  C
  H31      1.0000 0.13890  0.21790  0.16020  Biso   1.000  H
  C46      1.0000 0.15580  0.27420  0.10460  Biso   1.000  C
  H32      1.0000 0.18050  0.24480  0.10780  Biso   1.000  H
  N15      1.0000 0.92120  0.49740  0.19520  Biso   1.000  N
  C47      1.0000 0.93450  0.48710  0.15940  Biso   1.000  C
  H33      1.0000 0.91990  0.51270  0.13310  Biso   1.000  H
  C48      1.0000 0.97070  0.43900  0.15710  Biso   1.000  C
  H34      1.0000 0.98270  0.44170  0.13240  Biso   1.000  H
  C49      1.0000 0.98630  0.38770  0.19390  Biso   1.000  C
  C50      1.0000 0.97040  0.39470  0.23050  Biso   1.000  C
  H35      1.0000 0.98110  0.36040  0.25580  Biso   1.000  H
  C51      1.0000 0.93760  0.45330  0.23110  Biso   1.000  C
  H36      1.0000 0.92780  0.46020  0.25720  Biso   1.000  H
  C52      1.0000 0.05320  0.20560  0.21630  Biso   1.000  C
  N16      1.0000 0.07610  0.21520  0.18810  Biso   1.000  N
  C53      1.0000 0.06910  0.28490  0.16290  Biso   1.000  C
  N17      1.0000 0.04060  0.34410  0.16180  Biso   1.000  N
  C54      1.0000 0.01910  0.32940  0.19300  Biso   1.000  C
  N18      1.0000 0.02520  0.26300  0.22200  Biso   1.000  N
  N19      1.0000 0.18830  0.48620  0.03090  Biso   1.000  N
  C55      1.0000 0.16480  0.53940  0.00280  Biso   1.000  C
  H37      1.0000 0.14370  0.51450  0.98190  Biso   1.000  H
  C56      1.0000 0.17070  0.62890  0.00350  Biso   1.000  C
  H38      1.0000 0.15410  0.66460  0.98220  Biso   1.000  H
  C57      1.0000 0.19930  0.66920  0.03340  Biso   1.000  C
  C58      1.0000 0.22280  0.61330  0.06480  Biso   1.000  C
  H39      1.0000 0.24170  0.63670  0.08870  Biso   1.000  H
  C59      1.0000 0.21680  0.52200  0.05900  Biso   1.000  C
  H40      1.0000 0.23500  0.48330  0.07690  Biso   1.000  H
  N20      1.0000 0.33070  0.01830  0.14910  Biso   1.000  N
  C60      1.0000 0.30980  0.06270  0.11450  Biso   1.000  C
  H41      1.0000 0.31540  0.12370  0.11060  Biso   1.000  H
  C61      1.0000 0.28000  0.02060  0.08410  Biso   1.000  C
  H42      1.0000 0.26590  0.05300  0.05960  Biso   1.000  H
  C62      1.0000 0.27080  0.93310  0.08940  Biso   1.000  C
  C63      1.0000 0.29230  0.88860  0.12510  Biso   1.000  C
  H43      1.0000 0.28720  0.82760  0.12980  Biso   1.000  H
  C64      1.0000 0.32140  0.93410  0.15430  Biso   1.000  C
  H44      1.0000 0.33530  0.90310  0.17920  Biso   1.000  H
  N21      1.0000 0.12240  0.04290  0.89130  Biso   1.000  N
  C65      1.0000 0.11610  0.95500  0.89720  Biso   1.000  C
  H45      1.0000 0.09470  0.92610  0.87830  Biso   1.000  H
  C66      1.0000 0.13990  0.90630  0.93000  Biso   1.000  C
  H46      1.0000 0.13680  0.84360  0.93150  Biso   1.000  H
  C67      1.0000 0.16760  0.94830  0.95980  Biso   1.000  C
  C68      1.0000 0.17490  0.03730  0.95570  Biso   1.000  C
  H47      1.0000 0.19480  0.06710  0.97630  Biso   1.000  H
  C69      1.0000 0.15160  0.08330  0.91930  Biso   1.000  C
  H48      1.0000 0.15700  0.14420  0.91480  Biso   1.000  H
  C70      1.0000 0.20530  0.76590  0.03300  Biso   1.000  C
  N22      1.0000 0.23480  0.80100  0.06290  Biso   1.000  N
  C71      1.0000 0.24010  0.88940  0.05740  Biso   1.000  C
  N23      1.0000 0.22070  0.94040  0.02490  Biso   1.000  N
  C72      1.0000 0.19090  0.89560  0.99930  Biso   1.000  C
  N24      1.0000 0.18130  0.81110  0.00160  Biso   1.000  N
  Zn6      1.0000 0.67032  0.13740  0.51918  Biso   1.000  Zn
  I1       1.0000 0.62347  0.15380  0.44507  Biso   1.000  I
  I2       1.0000 0.72977  0.23970  0.53865  Biso   1.000  I
  I3       1.0000 0.38670  0.75550  0.64960  Biso   1.000  I
  I4       1.0000 0.35730  0.90800  0.75910  Biso   1.000  I
  I5       1.0000 0.52190  0.63260  0.87977  Biso   1.000  I
  I6       1.0000 0.61604  0.73290  0.81280  Biso   1.000  I
  I7       1.0000 0.02304  0.84660  0.38380  Biso   1.000  I
  I8       1.0000 0.11464  0.75340  0.30950  Biso   1.000  I
  I9       1.0000 0.12850  0.32650  0.94740  Biso   1.000  I
  I10      1.0000 0.23640  0.26220  0.04760  Biso   1.000  I
  I11      1.0000 0.39130  0.22820  0.16090  Biso   1.000  I
  I12      1.0000 0.35430  0.06850  0.26780  Biso   1.000  I
  Zn7      1.0000 0.68130  0.13900  0.52940  Biso   1.000  Zn
  I13      1.0000 0.63930  0.16700  0.45260  Biso   1.000  I
  I14      1.0000 0.74390  0.21940  0.55900  Biso   1.000  I
  I15      1.0000 0.38923  0.76130  0.66200  Biso   1.000  I
  I16      1.0000 0.35327  0.92220  0.76900  Biso   1.000  I
  I17      1.0000 0.52990  0.65260  0.87280  Biso   1.000  I
  I18      1.0000 0.62970  0.72030  0.80790  Biso   1.000  I
  I19      1.0000 0.02250  0.85090  0.37240  Biso   1.000  I
  I20      1.0000 0.12190  0.76120  0.31000  Biso   1.000  I
  I21      1.0000 0.14430  0.31880  0.95580  Biso   1.000  I
  I22      1.0000 0.24860  0.27170  0.06580  Biso   1.000  I
  I23      1.0000 0.38300  0.22450  0.16330  Biso   1.000  I
  I24      1.0000 0.35530  0.04740  0.26960  Biso   1.000  I
  Zn8      1.0000 0.87357  0.40641  0.69371  Biso   1.000  Zn
  Zn9      1.0000 0.08301  0.11187  0.84442  Biso   1.000  Zn
  Zn10     1.0000 0.58206  0.37503  0.34502  Biso   1.000  Zn
  Zn11     1.0000 0.67702  0.84923  0.02532  Biso   1.000  Zn
  Zn12     1.0000 0.87367  0.57842  0.19489  Biso   1.000  Zn
  N25      1.0000 0.14100  0.65440  0.57030  Biso   1.000  N
  C73      1.0000 0.10640  0.62280  0.56510  Biso   1.000  C
  H49      1.0000 0.09630  0.59050  0.53900  Biso   1.000  H
  C74      1.0000 0.08290  0.63270  0.59480  Biso   1.000  C
  H50      1.0000 0.05810  0.60310  0.59040  Biso   1.000  H
  C75      1.0000 0.09460  0.68380  0.63020  Biso   1.000  C
  C76      1.0000 0.13100  0.72310  0.63460  Biso   1.000  C
  H51      1.0000 0.14090  0.76030  0.65910  Biso   1.000  H
  C77      1.0000 0.15200  0.70840  0.60460  Biso   1.000  C
  H52      1.0000 0.17650  0.73840  0.60760  Biso   1.000  H
  N26      1.0000 0.92150  0.48870  0.69500  Biso   1.000  N
  C78      1.0000 0.93780  0.53760  0.73020  Biso   1.000  C
  H53      1.0000 0.92670  0.53400  0.75550  Biso   1.000  H
  C79      1.0000 0.96930  0.59210  0.73140  Biso   1.000  C
  H54      1.0000 0.98050  0.62470  0.75710  Biso   1.000  H
  C80      1.0000 0.98460  0.59830  0.69360  Biso   1.000  C
  C81      1.0000 0.96700  0.55110  0.65760  Biso   1.000  C
  H55      1.0000 0.97600  0.55810  0.63100  Biso   1.000  H
  C82      1.0000 0.93710  0.49500  0.65910  Biso   1.000  C
  H56      1.0000 0.92690  0.45860  0.63440  Biso   1.000  H
  N27      1.0000 0.07020  0.01150  0.79900  Biso   1.000  N
  C83      1.0000 0.09650  0.98690  0.77550  Biso   1.000  C
  H57      1.0000 0.11940  0.02260  0.77740  Biso   1.000  H
  C84      1.0000 0.09270  0.91350  0.74860  Biso   1.000  C
  H58      1.0000 0.11240  0.89880  0.73280  Biso   1.000  H
  C85      1.0000 0.05980  0.86250  0.74550  Biso   1.000  C
  C86      1.0000 0.03200  0.88530  0.76980  Biso   1.000  C
  H59      1.0000 0.00900  0.85010  0.76840  Biso   1.000  H
  C87      1.0000 0.03830  0.95900  0.79580  Biso   1.000  C
  H60      1.0000 0.01920  0.97410  0.81250  Biso   1.000  H
  C88      1.0000 0.06960  0.69910  0.66190  Biso   1.000  C
  N28      1.0000 0.03930  0.64300  0.66210  Biso   1.000  N
  C89      1.0000 0.01840  0.65910  0.69190  Biso   1.000  C
  N29      1.0000 0.02440  0.72560  0.72110  Biso   1.000  N
  C90      1.0000 0.05450  0.78000  0.71690  Biso   1.000  C
  N30      1.0000 0.07790  0.77140  0.68940  Biso   1.000  N
  N31      1.0000 0.83010  0.46880  0.64850  Biso   1.000  N
  C91      1.0000 0.82180  0.55300  0.65470  Biso   1.000  C
  H61      1.0000 0.83580  0.58260  0.68010  Biso   1.000  H
  C92      1.0000 0.79320  0.60020  0.62540  Biso   1.000  C
  H62      1.0000 0.78830  0.66130  0.63010  Biso   1.000  H
  C93      1.0000 0.77180  0.55450  0.58840  Biso   1.000  C
  C94      1.0000 0.78070  0.46560  0.58310  Biso   1.000  C
  H63      1.0000 0.76630  0.43230  0.55910  Biso   1.000  H
  C95      1.0000 0.81040  0.42650  0.61300  Biso   1.000  C
  H64      1.0000 0.81730  0.36660  0.60830  Biso   1.000  H
  N32      1.0000 0.62180  0.44500  0.39290  Biso   1.000  N
  C96      1.0000 0.61740  0.53080  0.39680  Biso   1.000  C
  H65      1.0000 0.59830  0.56020  0.37530  Biso   1.000  H
  C97      1.0000 0.63910  0.58090  0.43030  Biso   1.000  C
  H66      1.0000 0.63450  0.64300  0.43210  Biso   1.000  H
  C98      1.0000 0.66760  0.53840  0.46130  Biso   1.000  C
  C99      1.0000 0.67270  0.44860  0.45520  Biso   1.000  C
  H67      1.0000 0.69250  0.41650  0.47470  Biso   1.000  H
  C100     1.0000 0.64930  0.40670  0.42130  Biso   1.000  C
  H68      1.0000 0.65330  0.34480  0.41800  Biso   1.000  H
  N33      1.0000 0.68600  0.00380  0.52670  Biso   1.000  N
  C101     1.0000 0.71560  0.96950  0.55450  Biso   1.000  C
  H69      1.0000 0.73250  0.00820  0.57400  Biso   1.000  H
  C102     1.0000 0.72370  0.87610  0.55710  Biso   1.000  C
  H70      1.0000 0.74660  0.85410  0.57630  Biso   1.000  H
  C103     1.0000 0.69860  0.82020  0.53190  Biso   1.000  C
  C104     1.0000 0.66760  0.85570  0.50200  Biso   1.000  C
  H71      1.0000 0.64950  0.81820  0.48320  Biso   1.000  H
  C105     1.0000 0.66340  0.94840  0.50000  Biso   1.000  C
  H72      1.0000 0.64300  0.97270  0.47810  Biso   1.000  H
  C106     1.0000 0.74070  0.60000  0.55660  Biso   1.000  C
  N34      1.0000 0.71970  0.55120  0.52420  Biso   1.000  N
  C107     1.0000 0.69140  0.59010  0.49680  Biso   1.000  C
  N35      1.0000 0.68260  0.67590  0.49980  Biso   1.000  N
  C108     1.0000 0.70570  0.72110  0.53170  Biso   1.000  C
  N36      1.0000 0.73380  0.68630  0.56180  Biso   1.000  N
  N37      1.0000 0.56990  0.47910  0.29930  Biso   1.000  N
  C109     1.0000 0.59590  0.49800  0.27580  Biso   1.000  C
  H73      1.0000 0.61840  0.46080  0.27850  Biso   1.000  H
  C110     1.0000 0.59210  0.57110  0.24670  Biso   1.000  C
  H74      1.0000 0.61100  0.58260  0.22920  Biso   1.000  H
  C111     1.0000 0.55870  0.62590  0.24500  Biso   1.000  C
  C112     1.0000 0.53090  0.60430  0.26970  Biso   1.000  C
  H75      1.0000 0.50800  0.63970  0.26850  Biso   1.000  H
  C113     1.0000 0.53780  0.52910  0.29620  Biso   1.000  C
  H76      1.0000 0.51890  0.51280  0.31290  Biso   1.000  H
  N38      1.0000 0.64410  0.82990  0.07160  Biso   1.000  N
  C114     1.0000 0.61240  0.88240  0.06970  Biso   1.000  C
  H77      1.0000 0.60770  0.93030  0.04940  Biso   1.000  H
  C115     1.0000 0.58550  0.86620  0.09850  Biso   1.000  C
  H78      1.0000 0.56190  0.89980  0.09550  Biso   1.000  H
  C116     1.0000 0.59460  0.80030  0.13100  Biso   1.000  C
  C117     1.0000 0.63050  0.75750  0.13630  Biso   1.000  C
  H79      1.0000 0.63890  0.71790  0.16020  Biso   1.000  H
  C118     1.0000 0.65580  0.77420  0.10460  Biso   1.000  C
  H80      1.0000 0.68050  0.74480  0.10780  Biso   1.000  H
  N39      1.0000 0.42120  0.99740  0.19520  Biso   1.000  N
  C119     1.0000 0.43450  0.98710  0.15940  Biso   1.000  C
  H81      1.0000 0.41990  0.01270  0.13310  Biso   1.000  H
  C120     1.0000 0.47070  0.93900  0.15710  Biso   1.000  C
  H82      1.0000 0.48270  0.94170  0.13240  Biso   1.000  H
  C121     1.0000 0.48630  0.88770  0.19390  Biso   1.000  C
  C122     1.0000 0.47040  0.89470  0.23050  Biso   1.000  C
  H83      1.0000 0.48110  0.86040  0.25580  Biso   1.000  H
  C123     1.0000 0.43760  0.95330  0.23110  Biso   1.000  C
  H84      1.0000 0.42780  0.96020  0.25720  Biso   1.000  H
  C124     1.0000 0.55320  0.70560  0.21630  Biso   1.000  C
  N40      1.0000 0.57610  0.71520  0.18810  Biso   1.000  N
  C125     1.0000 0.56910  0.78490  0.16290  Biso   1.000  C
  N41      1.0000 0.54060  0.84410  0.16180  Biso   1.000  N
  C126     1.0000 0.51910  0.82940  0.19300  Biso   1.000  C
  N42      1.0000 0.52520  0.76300  0.22200  Biso   1.000  N
  N43      1.0000 0.68830  0.98620  0.03090  Biso   1.000  N
  C127     1.0000 0.66480  0.03940  0.00280  Biso   1.000  C
  H85      1.0000 0.64370  0.01450  0.98190  Biso   1.000  H
  C128     1.0000 0.67070  0.12890  0.00350  Biso   1.000  C
  H86      1.0000 0.65410  0.16460  0.98220  Biso   1.000  H
  C129     1.0000 0.69930  0.16920  0.03340  Biso   1.000  C
  C130     1.0000 0.72280  0.11330  0.06480  Biso   1.000  C
  H87      1.0000 0.74170  0.13670  0.08870  Biso   1.000  H
  C131     1.0000 0.71680  0.02200  0.05900  Biso   1.000  C
  H88      1.0000 0.73500  0.98330  0.07690  Biso   1.000  H
  N44      1.0000 0.83070  0.51830  0.14910  Biso   1.000  N
  C132     1.0000 0.80980  0.56270  0.11450  Biso   1.000  C
  H89      1.0000 0.81540  0.62370  0.11060  Biso   1.000  H
  C133     1.0000 0.78000  0.52060  0.08410  Biso   1.000  C
  H90      1.0000 0.76590  0.55300  0.05960  Biso   1.000  H
  C134     1.0000 0.77080  0.43310  0.08940  Biso   1.000  C
  C135     1.0000 0.79230  0.38860  0.12510  Biso   1.000  C
  H91      1.0000 0.78720  0.32760  0.12980  Biso   1.000  H
  C136     1.0000 0.82140  0.43410  0.15430  Biso   1.000  C
  H92      1.0000 0.83530  0.40310  0.17920  Biso   1.000  H
  N45      1.0000 0.62240  0.54290  0.89130  Biso   1.000  N
  C137     1.0000 0.61610  0.45500  0.89720  Biso   1.000  C
  H93      1.0000 0.59470  0.42610  0.87830  Biso   1.000  H
  C138     1.0000 0.63990  0.40630  0.93000  Biso   1.000  C
  H94      1.0000 0.63680  0.34360  0.93150  Biso   1.000  H
  C139     1.0000 0.66760  0.44830  0.95980  Biso   1.000  C
  C140     1.0000 0.67490  0.53730  0.95570  Biso   1.000  C
  H95      1.0000 0.69480  0.56710  0.97630  Biso   1.000  H
  C141     1.0000 0.65160  0.58330  0.91930  Biso   1.000  C
  H96      1.0000 0.65700  0.64420  0.91480  Biso   1.000  H
  C142     1.0000 0.70530  0.26590  0.03300  Biso   1.000  C
  N46      1.0000 0.73480  0.30100  0.06290  Biso   1.000  N
  C143     1.0000 0.74010  0.38940  0.05740  Biso   1.000  C
  N47      1.0000 0.72070  0.44040  0.02490  Biso   1.000  N
  C144     1.0000 0.69090  0.39560  0.99930  Biso   1.000  C
  N48      1.0000 0.68130  0.31110  0.00160  Biso   1.000  N
  Zn13     1.0000 0.17032  0.63740  0.51918  Biso   1.000  Zn
  I25      1.0000 0.12347  0.65380  0.44507  Biso   1.000  I
  I26      1.0000 0.22977  0.73970  0.53865  Biso   1.000  I
  I27      1.0000 0.88670  0.25550  0.64960  Biso   1.000  I
  I28      1.0000 0.85730  0.40800  0.75910  Biso   1.000  I
  I29      1.0000 0.02190  0.13260  0.87977  Biso   1.000  I
  I30      1.0000 0.11604  0.23290  0.81280  Biso   1.000  I
  I31      1.0000 0.52304  0.34660  0.38380  Biso   1.000  I
  I32      1.0000 0.61464  0.25340  0.30950  Biso   1.000  I
  I33      1.0000 0.62850  0.82650  0.94740  Biso   1.000  I
  I34      1.0000 0.73640  0.76220  0.04760  Biso   1.000  I
  I35      1.0000 0.89130  0.72820  0.16090  Biso   1.000  I
  I36      1.0000 0.85430  0.56850  0.26780  Biso   1.000  I
  Zn14     1.0000 0.18130  0.63900  0.52940  Biso   1.000  Zn
  I37      1.0000 0.13930  0.66700  0.45260  Biso   1.000  I
  I38      1.0000 0.24390  0.71940  0.55900  Biso   1.000  I
  I39      1.0000 0.88923  0.26130  0.66200  Biso   1.000  I
  I40      1.0000 0.85327  0.42220  0.76900  Biso   1.000  I
  I41      1.0000 0.02990  0.15260  0.87280  Biso   1.000  I
  I42      1.0000 0.12970  0.22030  0.80790  Biso   1.000  I
  I43      1.0000 0.52250  0.35090  0.37240  Biso   1.000  I
  I44      1.0000 0.62190  0.26120  0.31000  Biso   1.000  I
  I45      1.0000 0.64430  0.81880  0.95580  Biso   1.000  I
  I46      1.0000 0.74860  0.77170  0.06580  Biso   1.000  I
  I47      1.0000 0.88300  0.72450  0.16330  Biso   1.000  I
  I48      1.0000 0.85530  0.54740  0.26960  Biso   1.000  I
  Zn15     1.0000 0.62643  0.90641  0.30629  Biso   1.000  Zn
  Zn16     1.0000 0.41699  0.61187  0.15558  Biso   1.000  Zn
  Zn17     1.0000 0.91794  0.87503  0.65498  Biso   1.000  Zn
  Zn18     1.0000 0.82298  0.34923  0.97468  Biso   1.000  Zn
  Zn19     1.0000 0.62633  0.07842  0.80511  Biso   1.000  Zn
  N49      1.0000 0.35900  0.15440  0.42970  Biso   1.000  N
  C145     1.0000 0.39360  0.12280  0.43490  Biso   1.000  C
  H97      1.0000 0.40370  0.09050  0.46100  Biso   1.000  H
  C146     1.0000 0.41710  0.13270  0.40520  Biso   1.000  C
  H98      1.0000 0.44190  0.10310  0.40960  Biso   1.000  H
  C147     1.0000 0.40540  0.18380  0.36980  Biso   1.000  C
  C148     1.0000 0.36900  0.22310  0.36540  Biso   1.000  C
  H99      1.0000 0.35910  0.26030  0.34090  Biso   1.000  H
  C149     1.0000 0.34800  0.20840  0.39540  Biso   1.000  C
  H100     1.0000 0.32350  0.23840  0.39240  Biso   1.000  H
  N50      1.0000 0.57850  0.98870  0.30500  Biso   1.000  N
  C150     1.0000 0.56220  0.03760  0.26980  Biso   1.000  C
  H101     1.0000 0.57330  0.03400  0.24450  Biso   1.000  H
  C151     1.0000 0.53070  0.09210  0.26860  Biso   1.000  C
  H102     1.0000 0.51950  0.12470  0.24290  Biso   1.000  H
  C152     1.0000 0.51540  0.09830  0.30640  Biso   1.000  C
  C153     1.0000 0.53300  0.05110  0.34240  Biso   1.000  C
  H103     1.0000 0.52400  0.05810  0.36900  Biso   1.000  H
  C154     1.0000 0.56290  0.99500  0.34090  Biso   1.000  C
  H104     1.0000 0.57310  0.95860  0.36560  Biso   1.000  H
  N51      1.0000 0.42980  0.51150  0.20100  Biso   1.000  N
  C155     1.0000 0.40350  0.48690  0.22450  Biso   1.000  C
  H105     1.0000 0.38060  0.52260  0.22260  Biso   1.000  H
  C156     1.0000 0.40730  0.41350  0.25140  Biso   1.000  C
  H106     1.0000 0.38760  0.39880  0.26720  Biso   1.000  H
  C157     1.0000 0.44020  0.36250  0.25450  Biso   1.000  C
  C158     1.0000 0.46800  0.38530  0.23020  Biso   1.000  C
  H107     1.0000 0.49100  0.35010  0.23160  Biso   1.000  H
  C159     1.0000 0.46170  0.45900  0.20420  Biso   1.000  C
  H108     1.0000 0.48080  0.47410  0.18750  Biso   1.000  H
  C160     1.0000 0.43040  0.19910  0.33810  Biso   1.000  C
  N52      1.0000 0.46070  0.14300  0.33790  Biso   1.000  N
  C161     1.0000 0.48160  0.15910  0.30810  Biso   1.000  C
  N53      1.0000 0.47560  0.22560  0.27890  Biso   1.000  N
  C162     1.0000 0.44550  0.28000  0.28310  Biso   1.000  C
  N54      1.0000 0.42210  0.27140  0.31060  Biso   1.000  N
  N55      1.0000 0.66990  0.96880  0.35150  Biso   1.000  N
  C163     1.0000 0.67820  0.05300  0.34530  Biso   1.000  C
  H109     1.0000 0.66420  0.08260  0.31990  Biso   1.000  H
  C164     1.0000 0.70680  0.10020  0.37460  Biso   1.000  C
  H110     1.0000 0.71170  0.16130  0.36990  Biso   1.000  H
  C165     1.0000 0.72820  0.05450  0.41160  Biso   1.000  C
  C166     1.0000 0.71930  0.96560  0.41690  Biso   1.000  C
  H111     1.0000 0.73370  0.93230  0.44090  Biso   1.000  H
  C167     1.0000 0.68960  0.92650  0.38700  Biso   1.000  C
  H112     1.0000 0.68270  0.86660  0.39170  Biso   1.000  H
  N56      1.0000 0.87820  0.94500  0.60710  Biso   1.000  N
  C168     1.0000 0.88260  0.03080  0.60320  Biso   1.000  C
  H113     1.0000 0.90170  0.06020  0.62470  Biso   1.000  H
  C169     1.0000 0.86090  0.08090  0.56970  Biso   1.000  C
  H114     1.0000 0.86550  0.14300  0.56790  Biso   1.000  H
  C170     1.0000 0.83240  0.03840  0.53870  Biso   1.000  C
  C171     1.0000 0.82730  0.94860  0.54480  Biso   1.000  C
  H115     1.0000 0.80750  0.91650  0.52530  Biso   1.000  H
  C172     1.0000 0.85070  0.90670  0.57870  Biso   1.000  C
  H116     1.0000 0.84670  0.84480  0.58200  Biso   1.000  H
  N57      1.0000 0.81400  0.50380  0.47330  Biso   1.000  N
  C173     1.0000 0.78440  0.46950  0.44550  Biso   1.000  C
  H117     1.0000 0.76750  0.50820  0.42600  Biso   1.000  H
  C174     1.0000 0.77630  0.37610  0.44290  Biso   1.000  C
  H118     1.0000 0.75340  0.35410  0.42370  Biso   1.000  H
  C175     1.0000 0.80140  0.32020  0.46810  Biso   1.000  C
  C176     1.0000 0.83240  0.35570  0.49800  Biso   1.000  C
  H119     1.0000 0.85050  0.31820  0.51680  Biso   1.000  H
  C177     1.0000 0.83660  0.44840  0.50000  Biso   1.000  C
  H120     1.0000 0.85700  0.47270  0.52190  Biso   1.000  H
  C178     1.0000 0.75930  0.10000  0.44340  Biso   1.000  C
  N58      1.0000 0.78030  0.05120  0.47580  Biso   1.000  N
  C179     1.0000 0.80860  0.09010  0.50320  Biso   1.000  C
  N59      1.0000 0.81740  0.17590  0.50020  Biso   1.000  N
  C180     1.0000 0.79430  0.22110  0.46830  Biso   1.000  C
  N60      1.0000 0.76620  0.18630  0.43820  Biso   1.000  N
  N61      1.0000 0.93010  0.97910  0.70070  Biso   1.000  N
  C181     1.0000 0.90410  0.99800  0.72420  Biso   1.000  C
  H121     1.0000 0.88160  0.96080  0.72150  Biso   1.000  H
  C182     1.0000 0.90790  0.07110  0.75330  Biso   1.000  C
  H122     1.0000 0.88900  0.08260  0.77080  Biso   1.000  H
  C183     1.0000 0.94130  0.12590  0.75500  Biso   1.000  C
  C184     1.0000 0.96910  0.10430  0.73030  Biso   1.000  C
  H123     1.0000 0.99200  0.13970  0.73150  Biso   1.000  H
  C185     1.0000 0.96220  0.02910  0.70380  Biso   1.000  C
  H124     1.0000 0.98110  0.01280  0.68710  Biso   1.000  H
  N62      1.0000 0.85590  0.32990  0.92840  Biso   1.000  N
  C186     1.0000 0.88760  0.38240  0.93030  Biso   1.000  C
  H125     1.0000 0.89230  0.43030  0.95060  Biso   1.000  H
  C187     1.0000 0.91450  0.36620  0.90150  Biso   1.000  C
  H126     1.0000 0.93810  0.39980  0.90450  Biso   1.000  H
  C188     1.0000 0.90540  0.30030  0.86900  Biso   1.000  C
  C189     1.0000 0.86950  0.25750  0.86370  Biso   1.000  C
  H127     1.0000 0.86110  0.21790  0.83980  Biso   1.000  H
  C190     1.0000 0.84420  0.27420  0.89540  Biso   1.000  C
  H128     1.0000 0.81950  0.24480  0.89220  Biso   1.000  H
  N63      1.0000 0.07880  0.49740  0.80480  Biso   1.000  N
  C191     1.0000 0.06550  0.48710  0.84060  Biso   1.000  C
  H129     1.0000 0.08010  0.51270  0.86690  Biso   1.000  H
  C192     1.0000 0.02930  0.43900  0.84290  Biso   1.000  C
  H130     1.0000 0.01730  0.44170  0.86760  Biso   1.000  H
  C193     1.0000 0.01370  0.38770  0.80610  Biso   1.000  C
  C194     1.0000 0.02960  0.39470  0.76950  Biso   1.000  C
  H131     1.0000 0.01890  0.36040  0.74420  Biso   1.000  H
  C195     1.0000 0.06240  0.45330  0.76890  Biso   1.000  C
  H132     1.0000 0.07220  0.46020  0.74280  Biso   1.000  H
  C196     1.0000 0.94680  0.20560  0.78370  Biso   1.000  C
  N64      1.0000 0.92390  0.21520  0.81190  Biso   1.000  N
  C197     1.0000 0.93090  0.28490  0.83710  Biso   1.000  C
  N65      1.0000 0.95940  0.34410  0.83820  Biso   1.000  N
  C198     1.0000 0.98090  0.32940  0.80700  Biso   1.000  C
  N66      1.0000 0.97480  0.26300  0.77800  Biso   1.000  N
  N67      1.0000 0.81170  0.48620  0.96910  Biso   1.000  N
  C199     1.0000 0.83520  0.53940  0.99720  Biso   1.000  C
  H133     1.0000 0.85630  0.51450  0.01810  Biso   1.000  H
  C200     1.0000 0.82930  0.62890  0.99650  Biso   1.000  C
  H134     1.0000 0.84590  0.66460  0.01780  Biso   1.000  H
  C201     1.0000 0.80070  0.66920  0.96660  Biso   1.000  C
  C202     1.0000 0.77720  0.61330  0.93520  Biso   1.000  C
  H135     1.0000 0.75830  0.63670  0.91130  Biso   1.000  H
  C203     1.0000 0.78320  0.52200  0.94100  Biso   1.000  C
  H136     1.0000 0.76500  0.48330  0.92310  Biso   1.000  H
  N68      1.0000 0.66930  0.01830  0.85090  Biso   1.000  N
  C204     1.0000 0.69020  0.06270  0.88550  Biso   1.000  C
  H137     1.0000 0.68460  0.12370  0.88940  Biso   1.000  H
  C205     1.0000 0.72000  0.02060  0.91590  Biso   1.000  C
  H138     1.0000 0.73410  0.05300  0.94040  Biso   1.000  H
  C206     1.0000 0.72920  0.93310  0.91060  Biso   1.000  C
  C207     1.0000 0.70770  0.88860  0.87490  Biso   1.000  C
  H139     1.0000 0.71280  0.82760  0.87020  Biso   1.000  H
  C208     1.0000 0.67860  0.93410  0.84570  Biso   1.000  C
  H140     1.0000 0.66470  0.90310  0.82080  Biso   1.000  H
  N69      1.0000 0.87760  0.04290  0.10870  Biso   1.000  N
  C209     1.0000 0.88390  0.95500  0.10280  Biso   1.000  C
  H141     1.0000 0.90530  0.92610  0.12170  Biso   1.000  H
  C210     1.0000 0.86010  0.90630  0.07000  Biso   1.000  C
  H142     1.0000 0.86320  0.84360  0.06850  Biso   1.000  H
  C211     1.0000 0.83240  0.94830  0.04020  Biso   1.000  C
  C212     1.0000 0.82510  0.03730  0.04430  Biso   1.000  C
  H143     1.0000 0.80520  0.06710  0.02370  Biso   1.000  H
  C213     1.0000 0.84840  0.08330  0.08070  Biso   1.000  C
  H144     1.0000 0.84300  0.14420  0.08520  Biso   1.000  H
  C214     1.0000 0.79470  0.76590  0.96700  Biso   1.000  C
  N70      1.0000 0.76520  0.80100  0.93710  Biso   1.000  N
  C215     1.0000 0.75990  0.88940  0.94260  Biso   1.000  C
  N71      1.0000 0.77930  0.94040  0.97510  Biso   1.000  N
  C216     1.0000 0.80910  0.89560  0.00070  Biso   1.000  C
  N72      1.0000 0.81870  0.81110  0.99840  Biso   1.000  N
  Zn20     1.0000 0.32968  0.13740  0.48082  Biso   1.000  Zn
  I49      1.0000 0.37653  0.15380  0.55493  Biso   1.000  I
  I50      1.0000 0.27023  0.23970  0.46135  Biso   1.000  I
  I51      1.0000 0.61330  0.75550  0.35040  Biso   1.000  I
  I52      1.0000 0.64270  0.90800  0.24090  Biso   1.000  I
  I53      1.0000 0.47810  0.63260  0.12023  Biso   1.000  I
  I54      1.0000 0.38396  0.73290  0.18720  Biso   1.000  I
  I55      1.0000 0.97696  0.84660  0.61620  Biso   1.000  I
  I56      1.0000 0.88536  0.75340  0.69050  Biso   1.000  I
  I57      1.0000 0.87150  0.32650  0.05260  Biso   1.000  I
  I58      1.0000 0.76360  0.26220  0.95240  Biso   1.000  I
  I59      1.0000 0.60870  0.22820  0.83910  Biso   1.000  I
  I60      1.0000 0.64570  0.06850  0.73220  Biso   1.000  I
  Zn21     1.0000 0.31870  0.13900  0.47060  Biso   1.000  Zn
  I61      1.0000 0.36070  0.16700  0.54740  Biso   1.000  I
  I62      1.0000 0.25610  0.21940  0.44100  Biso   1.000  I
  I63      1.0000 0.61077  0.76130  0.33800  Biso   1.000  I
  I64      1.0000 0.64673  0.92220  0.23100  Biso   1.000  I
  I65      1.0000 0.47010  0.65260  0.12720  Biso   1.000  I
  I66      1.0000 0.37030  0.72030  0.19210  Biso   1.000  I
  I67      1.0000 0.97750  0.85090  0.62760  Biso   1.000  I
  I68      1.0000 0.87810  0.76120  0.69000  Biso   1.000  I
  I69      1.0000 0.85570  0.31880  0.04420  Biso   1.000  I
  I70      1.0000 0.75140  0.27170  0.93420  Biso   1.000  I
  I71      1.0000 0.61700  0.22450  0.83670  Biso   1.000  I
  I72      1.0000 0.64470  0.04740  0.73040  Biso   1.000  I
  Zn22     1.0000 0.12643  0.40641  0.30629  Biso   1.000  Zn
  Zn23     1.0000 0.91699  0.11187  0.15558  Biso   1.000  Zn
  Zn24     1.0000 0.41794  0.37503  0.65498  Biso   1.000  Zn
  Zn25     1.0000 0.32298  0.84923  0.97468  Biso   1.000  Zn
  Zn26     1.0000 0.12633  0.57842  0.80511  Biso   1.000  Zn
  N73      1.0000 0.85900  0.65440  0.42970  Biso   1.000  N
  C217     1.0000 0.89360  0.62280  0.43490  Biso   1.000  C
  H145     1.0000 0.90370  0.59050  0.46100  Biso   1.000  H
  C218     1.0000 0.91710  0.63270  0.40520  Biso   1.000  C
  H146     1.0000 0.94190  0.60310  0.40960  Biso   1.000  H
  C219     1.0000 0.90540  0.68380  0.36980  Biso   1.000  C
  C220     1.0000 0.86900  0.72310  0.36540  Biso   1.000  C
  H147     1.0000 0.85910  0.76030  0.34090  Biso   1.000  H
  C221     1.0000 0.84800  0.70840  0.39540  Biso   1.000  C
  H148     1.0000 0.82350  0.73840  0.39240  Biso   1.000  H
  N74      1.0000 0.07850  0.48870  0.30500  Biso   1.000  N
  C222     1.0000 0.06220  0.53760  0.26980  Biso   1.000  C
  H149     1.0000 0.07330  0.53400  0.24450  Biso   1.000  H
  C223     1.0000 0.03070  0.59210  0.26860  Biso   1.000  C
  H150     1.0000 0.01950  0.62470  0.24290  Biso   1.000  H
  C224     1.0000 0.01540  0.59830  0.30640  Biso   1.000  C
  C225     1.0000 0.03300  0.55110  0.34240  Biso   1.000  C
  H151     1.0000 0.02400  0.55810  0.36900  Biso   1.000  H
  C226     1.0000 0.06290  0.49500  0.34090  Biso   1.000  C
  H152     1.0000 0.07310  0.45860  0.36560  Biso   1.000  H
  N75      1.0000 0.92980  0.01150  0.20100  Biso   1.000  N
  C227     1.0000 0.90350  0.98690  0.22450  Biso   1.000  C
  H153     1.0000 0.88060  0.02260  0.22260  Biso   1.000  H
  C228     1.0000 0.90730  0.91350  0.25140  Biso   1.000  C
  H154     1.0000 0.88760  0.89880  0.26720  Biso   1.000  H
  C229     1.0000 0.94020  0.86250  0.25450  Biso   1.000  C
  C230     1.0000 0.96800  0.88530  0.23020  Biso   1.000  C
  H155     1.0000 0.99100  0.85010  0.23160  Biso   1.000  H
  C231     1.0000 0.96170  0.95900  0.20420  Biso   1.000  C
  H156     1.0000 0.98080  0.97410  0.18750  Biso   1.000  H
  C232     1.0000 0.93040  0.69910  0.33810  Biso   1.000  C
  N76      1.0000 0.96070  0.64300  0.33790  Biso   1.000  N
  C233     1.0000 0.98160  0.65910  0.30810  Biso   1.000  C
  N77      1.0000 0.97560  0.72560  0.27890  Biso   1.000  N
  C234     1.0000 0.94550  0.78000  0.28310  Biso   1.000  C
  N78      1.0000 0.92210  0.77140  0.31060  Biso   1.000  N
  N79      1.0000 0.16990  0.46880  0.35150  Biso   1.000  N
  C235     1.0000 0.17820  0.55300  0.34530  Biso   1.000  C
  H157     1.0000 0.16420  0.58260  0.31990  Biso   1.000  H
  C236     1.0000 0.20680  0.60020  0.37460  Biso   1.000  C
  H158     1.0000 0.21170  0.66130  0.36990  Biso   1.000  H
  C237     1.0000 0.22820  0.55450  0.41160  Biso   1.000  C
  C238     1.0000 0.21930  0.46560  0.41690  Biso   1.000  C
  H159     1.0000 0.23370  0.43230  0.44090  Biso   1.000  H
  C239     1.0000 0.18960  0.42650  0.38700  Biso   1.000  C
  H160     1.0000 0.18270  0.36660  0.39170  Biso   1.000  H
  N80      1.0000 0.37820  0.44500  0.60710  Biso   1.000  N
  C240     1.0000 0.38260  0.53080  0.60320  Biso   1.000  C
  H161     1.0000 0.40170  0.56020  0.62470  Biso   1.000  H
  C241     1.0000 0.36090  0.58090  0.56970  Biso   1.000  C
  H162     1.0000 0.36550  0.64300  0.56790  Biso   1.000  H
  C242     1.0000 0.33240  0.53840  0.53870  Biso   1.000  C
  C243     1.0000 0.32730  0.44860  0.54480  Biso   1.000  C
  H163     1.0000 0.30750  0.41650  0.52530  Biso   1.000  H
  C244     1.0000 0.35070  0.40670  0.57870  Biso   1.000  C
  H164     1.0000 0.34670  0.34480  0.58200  Biso   1.000  H
  N81      1.0000 0.31400  0.00380  0.47330  Biso   1.000  N
  C245     1.0000 0.28440  0.96950  0.44550  Biso   1.000  C
  H165     1.0000 0.26750  0.00820  0.42600  Biso   1.000  H
  C246     1.0000 0.27630  0.87610  0.44290  Biso   1.000  C
  H166     1.0000 0.25340  0.85410  0.42370  Biso   1.000  H
  C247     1.0000 0.30140  0.82020  0.46810  Biso   1.000  C
  C248     1.0000 0.33240  0.85570  0.49800  Biso   1.000  C
  H167     1.0000 0.35050  0.81820  0.51680  Biso   1.000  H
  C249     1.0000 0.33660  0.94840  0.50000  Biso   1.000  C
  H168     1.0000 0.35700  0.97270  0.52190  Biso   1.000  H
  C250     1.0000 0.25930  0.60000  0.44340  Biso   1.000  C
  N82      1.0000 0.28030  0.55120  0.47580  Biso   1.000  N
  C251     1.0000 0.30860  0.59010  0.50320  Biso   1.000  C
  N83      1.0000 0.31740  0.67590  0.50020  Biso   1.000  N
  C252     1.0000 0.29430  0.72110  0.46830  Biso   1.000  C
  N84      1.0000 0.26620  0.68630  0.43820  Biso   1.000  N
  N85      1.0000 0.43010  0.47910  0.70070  Biso   1.000  N
  C253     1.0000 0.40410  0.49800  0.72420  Biso   1.000  C
  H169     1.0000 0.38160  0.46080  0.72150  Biso   1.000  H
  C254     1.0000 0.40790  0.57110  0.75330  Biso   1.000  C
  H170     1.0000 0.38900  0.58260  0.77080  Biso   1.000  H
  C255     1.0000 0.44130  0.62590  0.75500  Biso   1.000  C
  C256     1.0000 0.46910  0.60430  0.73030  Biso   1.000  C
  H171     1.0000 0.49200  0.63970  0.73150  Biso   1.000  H
  C257     1.0000 0.46220  0.52910  0.70380  Biso   1.000  C
  H172     1.0000 0.48110  0.51280  0.68710  Biso   1.000  H
  N86      1.0000 0.35590  0.82990  0.92840  Biso   1.000  N
  C258     1.0000 0.38760  0.88240  0.93030  Biso   1.000  C
  H173     1.0000 0.39230  0.93030  0.95060  Biso   1.000  H
  C259     1.0000 0.41450  0.86620  0.90150  Biso   1.000  C
  H174     1.0000 0.43810  0.89980  0.90450  Biso   1.000  H
  C260     1.0000 0.40540  0.80030  0.86900  Biso   1.000  C
  C261     1.0000 0.36950  0.75750  0.86370  Biso   1.000  C
  H175     1.0000 0.36110  0.71790  0.83980  Biso   1.000  H
  C262     1.0000 0.34420  0.77420  0.89540  Biso   1.000  C
  H176     1.0000 0.31950  0.74480  0.89220  Biso   1.000  H
  N87      1.0000 0.57880  0.99740  0.80480  Biso   1.000  N
  C263     1.0000 0.56550  0.98710  0.84060  Biso   1.000  C
  H177     1.0000 0.58010  0.01270  0.86690  Biso   1.000  H
  C264     1.0000 0.52930  0.93900  0.84290  Biso   1.000  C
  H178     1.0000 0.51730  0.94170  0.86760  Biso   1.000  H
  C265     1.0000 0.51370  0.88770  0.80610  Biso   1.000  C
  C266     1.0000 0.52960  0.89470  0.76950  Biso   1.000  C
  H179     1.0000 0.51890  0.86040  0.74420  Biso   1.000  H
  C267     1.0000 0.56240  0.95330  0.76890  Biso   1.000  C
  H180     1.0000 0.57220  0.96020  0.74280  Biso   1.000  H
  C268     1.0000 0.44680  0.70560  0.78370  Biso   1.000  C
  N88      1.0000 0.42390  0.71520  0.81190  Biso   1.000  N
  C269     1.0000 0.43090  0.78490  0.83710  Biso   1.000  C
  N89      1.0000 0.45940  0.84410  0.83820  Biso   1.000  N
  C270     1.0000 0.48090  0.82940  0.80700  Biso   1.000  C
  N90      1.0000 0.47480  0.76300  0.77800  Biso   1.000  N
  N91      1.0000 0.31170  0.98620  0.96910  Biso   1.000  N
  C271     1.0000 0.33520  0.03940  0.99720  Biso   1.000  C
  H181     1.0000 0.35630  0.01450  0.01810  Biso   1.000  H
  C272     1.0000 0.32930  0.12890  0.99650  Biso   1.000  C
  H182     1.0000 0.34590  0.16460  0.01780  Biso   1.000  H
  C273     1.0000 0.30070  0.16920  0.96660  Biso   1.000  C
  C274     1.0000 0.27720  0.11330  0.93520  Biso   1.000  C
  H183     1.0000 0.25830  0.13670  0.91130  Biso   1.000  H
  C275     1.0000 0.28320  0.02200  0.94100  Biso   1.000  C
  H184     1.0000 0.26500  0.98330  0.92310  Biso   1.000  H
  N92      1.0000 0.16930  0.51830  0.85090  Biso   1.000  N
  C276     1.0000 0.19020  0.56270  0.88550  Biso   1.000  C
  H185     1.0000 0.18460  0.62370  0.88940  Biso   1.000  H
  C277     1.0000 0.22000  0.52060  0.91590  Biso   1.000  C
  H186     1.0000 0.23410  0.55300  0.94040  Biso   1.000  H
  C278     1.0000 0.22920  0.43310  0.91060  Biso   1.000  C
  C279     1.0000 0.20770  0.38860  0.87490  Biso   1.000  C
  H187     1.0000 0.21280  0.32760  0.87020  Biso   1.000  H
  C280     1.0000 0.17860  0.43410  0.84570  Biso   1.000  C
  H188     1.0000 0.16470  0.40310  0.82080  Biso   1.000  H
  N93      1.0000 0.37760  0.54290  0.10870  Biso   1.000  N
  C281     1.0000 0.38390  0.45500  0.10280  Biso   1.000  C
  H189     1.0000 0.40530  0.42610  0.12170  Biso   1.000  H
  C282     1.0000 0.36010  0.40630  0.07000  Biso   1.000  C
  H190     1.0000 0.36320  0.34360  0.06850  Biso   1.000  H
  C283     1.0000 0.33240  0.44830  0.04020  Biso   1.000  C
  C284     1.0000 0.32510  0.53730  0.04430  Biso   1.000  C
  H191     1.0000 0.30520  0.56710  0.02370  Biso   1.000  H
  C285     1.0000 0.34840  0.58330  0.08070  Biso   1.000  C
  H192     1.0000 0.34300  0.64420  0.08520  Biso   1.000  H
  C286     1.0000 0.29470  0.26590  0.96700  Biso   1.000  C
  N94      1.0000 0.26520  0.30100  0.93710  Biso   1.000  N
  C287     1.0000 0.25990  0.38940  0.94260  Biso   1.000  C
  N95      1.0000 0.27930  0.44040  0.97510  Biso   1.000  N
  C288     1.0000 0.30910  0.39560  0.00070  Biso   1.000  C
  N96      1.0000 0.31870  0.31110  0.99840  Biso   1.000  N
  Zn27     1.0000 0.82968  0.63740  0.48082  Biso   1.000  Zn
  I73      1.0000 0.87653  0.65380  0.55493  Biso   1.000  I
  I74      1.0000 0.77023  0.73970  0.46135  Biso   1.000  I
  I75      1.0000 0.11330  0.25550  0.35040  Biso   1.000  I
  I76      1.0000 0.14270  0.40800  0.24090  Biso   1.000  I
  I77      1.0000 0.97810  0.13260  0.12023  Biso   1.000  I
  I78      1.0000 0.88396  0.23290  0.18720  Biso   1.000  I
  I79      1.0000 0.47696  0.34660  0.61620  Biso   1.000  I
  I80      1.0000 0.38536  0.25340  0.69050  Biso   1.000  I
  I81      1.0000 0.37150  0.82650  0.05260  Biso   1.000  I
  I82      1.0000 0.26360  0.76220  0.95240  Biso   1.000  I
  I83      1.0000 0.10870  0.72820  0.83910  Biso   1.000  I
  I84      1.0000 0.14570  0.56850  0.73220  Biso   1.000  I
  Zn28     1.0000 0.81870  0.63900  0.47060  Biso   1.000  Zn
  I85      1.0000 0.86070  0.66700  0.54740  Biso   1.000  I
  I86      1.0000 0.75610  0.71940  0.44100  Biso   1.000  I
  I87      1.0000 0.11077  0.26130  0.33800  Biso   1.000  I
  I88      1.0000 0.14673  0.42220  0.23100  Biso   1.000  I
  I89      1.0000 0.97010  0.15260  0.12720  Biso   1.000  I
  I90      1.0000 0.87030  0.22030  0.19210  Biso   1.000  I
  I91      1.0000 0.47750  0.35090  0.62760  Biso   1.000  I
  I92      1.0000 0.37810  0.26120  0.69000  Biso   1.000  I
  I93      1.0000 0.35570  0.81880  0.04420  Biso   1.000  I
  I94      1.0000 0.25140  0.77170  0.93420  Biso   1.000  I
  I95      1.0000 0.11700  0.72450  0.83670  Biso   1.000  I
  I96      1.0000 0.14470  0.54740  0.73040  Biso   1.000  I
