data_image0
_cell_length_a       15.483
_cell_length_b       23.434
_cell_length_c       32.448
_cell_angle_alpha    90
_cell_angle_beta     90
_cell_angle_gamma    90

_symmetry_space_group_name_H-M    "P 1"
_symmetry_int_tables_number       1

loop_
  _symmetry_equiv_pos_as_xyz
  'x, y, z'

loop_
  _atom_site_label
  _atom_site_occupancy
  _atom_site_fract_x
  _atom_site_fract_y
  _atom_site_fract_z
  _atom_site_thermal_displace_type
  _atom_site_B_iso_or_equiv
  _atom_site_type_symbol
  Ni1      1.0000 0.61182  0.00996  0.89886  Biso   1.000  Ni
  O1       1.0000 0.58150  0.93510  0.92895  Biso   1.000  O
  N1       1.0000 0.72570  0.01440  0.93210  Biso   1.000  N
  C1       1.0000 0.78170  0.96970  0.93380  Biso   1.000  C
  H1       1.0000 0.76710  0.93690  0.91930  Biso   1.000  H
  C2       1.0000 0.85860  0.96900  0.95550  Biso   1.000  C
  H2       1.0000 0.89200  0.93600  0.95660  Biso   1.000  H
  N2       1.0000 0.89200  0.16430  0.11760  Biso   1.000  N
  O2       1.0000 0.44300  0.94350  0.94549  Biso   1.000  O
  C3       1.0000 0.88580  0.01950  0.97610  Biso   1.000  C
  O3       1.0000 0.42960  0.78540  0.10514  Biso   1.000  O
  C4       1.0000 0.82780  0.06490  0.97430  Biso   1.000  C
  H3       1.0000 0.84110  0.09860  0.98800  Biso   1.000  H
  O4       1.0000 0.32950  0.82300  0.06460  Biso   1.000  O
  H4       1.0000 0.52100  0.97500  0.85300  Biso   1.000  H
  C5       1.0000 0.75190  0.06130  0.95300  Biso   1.000  C
  H5       1.0000 0.71590  0.09310  0.95290  Biso   1.000  H
  C6       1.0000 0.96470  0.02390  0.00100  Biso   1.000  C
  H6       1.0000 0.99200  0.06100  0.99610  Biso   1.000  H
  C7       1.0000 0.95400  0.01410  0.04840  Biso   1.000  C
  H7       1.0000 0.91020  0.98460  0.05320  Biso   1.000  H
  C8       1.0000 0.93380  0.06540  0.07410  Biso   1.000  C
  C9       1.0000 0.99000  0.11240  0.07590  Biso   1.000  C
  H8       1.0000 0.04280  0.11130  0.06220  Biso   1.000  H
  C10      1.0000 0.96720  0.15860  0.09740  Biso   1.000  C
  H9       1.0000 0.00610  0.18880  0.09850  Biso   1.000  H
  C11      1.0000 0.83730  0.12030  0.11580  Biso   1.000  C
  H10      1.0000 0.78470  0.12300  0.12950  Biso   1.000  H
  C12      1.0000 0.85680  0.07000  0.09390  Biso   1.000  C
  H11      1.0000 0.81720  0.04020  0.09300  Biso   1.000  H
  C13      1.0000 0.53120  0.88870  0.98910  Biso   1.000  C
  C14      1.0000 0.61770  0.86210  0.99470  Biso   1.000  C
  H12      1.0000 0.66030  0.86420  0.97460  Biso   1.000  H
  C15      1.0000 0.63110  0.83380  0.03190  Biso   1.000  C
  H13      1.0000 0.68730  0.82590  0.04030  Biso   1.000  H
  C16      1.0000 0.56470  0.81760  0.05570  Biso   1.000  C
  H14      1.0000 0.57570  0.79400  0.07810  Biso   1.000  H
  C17      1.0000 0.47790  0.83520  0.04800  Biso   1.000  C
  C18      1.0000 0.46450  0.86940  0.01300  Biso   1.000  C
  H15      1.0000 0.40830  0.87930  0.00590  Biso   1.000  H
  C19      1.0000 0.51800  0.92520  0.95210  Biso   1.000  C
  C20      1.0000 0.40710  0.81260  0.07430  Biso   1.000  C
  C21      1.0000 0.13420  0.13490  0.75460  Biso   1.000  C
  C22      1.0000 0.11900  0.12170  0.79730  Biso   1.000  C
  C23      1.0000 0.18630  0.09740  0.81860  Biso   1.000  C
  H16      1.0000 0.08770  0.14100  0.73700  Biso   1.000  H
  H17      1.0000 0.06600  0.12920  0.80980  Biso   1.000  H
  H18      1.0000 0.17910  0.08840  0.84630  Biso   1.000  H
  Ni2      1.0000 0.61182  0.50996  0.39886  Biso   1.000  Ni
  O5       1.0000 0.58150  0.43510  0.42895  Biso   1.000  O
  N3       1.0000 0.72570  0.51440  0.43210  Biso   1.000  N
  C24      1.0000 0.78170  0.46970  0.43380  Biso   1.000  C
  H19      1.0000 0.76710  0.43690  0.41930  Biso   1.000  H
  C25      1.0000 0.85860  0.46900  0.45550  Biso   1.000  C
  H20      1.0000 0.89200  0.43600  0.45660  Biso   1.000  H
  N4       1.0000 0.89200  0.66430  0.61760  Biso   1.000  N
  O6       1.0000 0.44300  0.44350  0.44549  Biso   1.000  O
  C26      1.0000 0.88580  0.51950  0.47610  Biso   1.000  C
  O7       1.0000 0.42960  0.28540  0.60514  Biso   1.000  O
  C27      1.0000 0.82780  0.56490  0.47430  Biso   1.000  C
  H21      1.0000 0.84110  0.59860  0.48800  Biso   1.000  H
  O8       1.0000 0.32950  0.32300  0.56460  Biso   1.000  O
  H22      1.0000 0.52100  0.47500  0.35300  Biso   1.000  H
  C28      1.0000 0.75190  0.56130  0.45300  Biso   1.000  C
  H23      1.0000 0.71590  0.59310  0.45290  Biso   1.000  H
  C29      1.0000 0.96470  0.52390  0.50100  Biso   1.000  C
  H24      1.0000 0.99200  0.56100  0.49610  Biso   1.000  H
  C30      1.0000 0.95400  0.51410  0.54840  Biso   1.000  C
  H25      1.0000 0.91020  0.48460  0.55320  Biso   1.000  H
  C31      1.0000 0.93380  0.56540  0.57410  Biso   1.000  C
  C32      1.0000 0.99000  0.61240  0.57590  Biso   1.000  C
  H26      1.0000 0.04280  0.61130  0.56220  Biso   1.000  H
  C33      1.0000 0.96720  0.65860  0.59740  Biso   1.000  C
  H27      1.0000 0.00610  0.68880  0.59850  Biso   1.000  H
  C34      1.0000 0.83730  0.62030  0.61580  Biso   1.000  C
  H28      1.0000 0.78470  0.62300  0.62950  Biso   1.000  H
  C35      1.0000 0.85680  0.57000  0.59390  Biso   1.000  C
  H29      1.0000 0.81720  0.54020  0.59300  Biso   1.000  H
  C36      1.0000 0.53120  0.38870  0.48910  Biso   1.000  C
  C37      1.0000 0.61770  0.36210  0.49470  Biso   1.000  C
  H30      1.0000 0.66030  0.36420  0.47460  Biso   1.000  H
  C38      1.0000 0.63110  0.33380  0.53190  Biso   1.000  C
  H31      1.0000 0.68730  0.32590  0.54030  Biso   1.000  H
  C39      1.0000 0.56470  0.31760  0.55570  Biso   1.000  C
  H32      1.0000 0.57570  0.29400  0.57810  Biso   1.000  H
  C40      1.0000 0.47790  0.33520  0.54800  Biso   1.000  C
  C41      1.0000 0.46450  0.36940  0.51300  Biso   1.000  C
  H33      1.0000 0.40830  0.37930  0.50590  Biso   1.000  H
  C42      1.0000 0.51800  0.42520  0.45210  Biso   1.000  C
  C43      1.0000 0.40710  0.31260  0.57430  Biso   1.000  C
  C44      1.0000 0.13420  0.63490  0.25460  Biso   1.000  C
  C45      1.0000 0.11900  0.62170  0.29730  Biso   1.000  C
  C46      1.0000 0.18630  0.59740  0.31860  Biso   1.000  C
  H34      1.0000 0.08770  0.64100  0.23700  Biso   1.000  H
  H35      1.0000 0.06600  0.62920  0.30980  Biso   1.000  H
  H36      1.0000 0.17910  0.58840  0.34630  Biso   1.000  H
  Ni3      1.0000 0.11182  0.00996  0.39886  Biso   1.000  Ni
  O9       1.0000 0.08150  0.93510  0.42895  Biso   1.000  O
  N5       1.0000 0.22570  0.01440  0.43210  Biso   1.000  N
  C47      1.0000 0.28170  0.96970  0.43380  Biso   1.000  C
  H37      1.0000 0.26710  0.93690  0.41930  Biso   1.000  H
  C48      1.0000 0.35860  0.96900  0.45550  Biso   1.000  C
  H38      1.0000 0.39200  0.93600  0.45660  Biso   1.000  H
  N6       1.0000 0.39200  0.16430  0.61760  Biso   1.000  N
  O10      1.0000 0.94300  0.94350  0.44549  Biso   1.000  O
  C49      1.0000 0.38580  0.01950  0.47610  Biso   1.000  C
  O11      1.0000 0.92960  0.78540  0.60514  Biso   1.000  O
  C50      1.0000 0.32780  0.06490  0.47430  Biso   1.000  C
  H39      1.0000 0.34110  0.09860  0.48800  Biso   1.000  H
  O12      1.0000 0.82950  0.82300  0.56460  Biso   1.000  O
  H40      1.0000 0.02100  0.97500  0.35300  Biso   1.000  H
  C51      1.0000 0.25190  0.06130  0.45300  Biso   1.000  C
  H41      1.0000 0.21590  0.09310  0.45290  Biso   1.000  H
  C52      1.0000 0.46470  0.02390  0.50100  Biso   1.000  C
  H42      1.0000 0.49200  0.06100  0.49610  Biso   1.000  H
  C53      1.0000 0.45400  0.01410  0.54840  Biso   1.000  C
  H43      1.0000 0.41020  0.98460  0.55320  Biso   1.000  H
  C54      1.0000 0.43380  0.06540  0.57410  Biso   1.000  C
  C55      1.0000 0.49000  0.11240  0.57590  Biso   1.000  C
  H44      1.0000 0.54280  0.11130  0.56220  Biso   1.000  H
  C56      1.0000 0.46720  0.15860  0.59740  Biso   1.000  C
  H45      1.0000 0.50610  0.18880  0.59850  Biso   1.000  H
  C57      1.0000 0.33730  0.12030  0.61580  Biso   1.000  C
  H46      1.0000 0.28470  0.12300  0.62950  Biso   1.000  H
  C58      1.0000 0.35680  0.07000  0.59390  Biso   1.000  C
  H47      1.0000 0.31720  0.04020  0.59300  Biso   1.000  H
  C59      1.0000 0.03120  0.88870  0.48910  Biso   1.000  C
  C60      1.0000 0.11770  0.86210  0.49470  Biso   1.000  C
  H48      1.0000 0.16030  0.86420  0.47460  Biso   1.000  H
  C61      1.0000 0.13110  0.83380  0.53190  Biso   1.000  C
  H49      1.0000 0.18730  0.82590  0.54030  Biso   1.000  H
  C62      1.0000 0.06470  0.81760  0.55570  Biso   1.000  C
  H50      1.0000 0.07570  0.79400  0.57810  Biso   1.000  H
  C63      1.0000 0.97790  0.83520  0.54800  Biso   1.000  C
  C64      1.0000 0.96450  0.86940  0.51300  Biso   1.000  C
  H51      1.0000 0.90830  0.87930  0.50590  Biso   1.000  H
  C65      1.0000 0.01800  0.92520  0.45210  Biso   1.000  C
  C66      1.0000 0.90710  0.81260  0.57430  Biso   1.000  C
  C67      1.0000 0.63420  0.13490  0.25460  Biso   1.000  C
  C68      1.0000 0.61900  0.12170  0.29730  Biso   1.000  C
  C69      1.0000 0.68630  0.09740  0.31860  Biso   1.000  C
  H52      1.0000 0.58770  0.14100  0.23700  Biso   1.000  H
  H53      1.0000 0.56600  0.12920  0.30980  Biso   1.000  H
  H54      1.0000 0.67910  0.08840  0.34630  Biso   1.000  H
  Ni4      1.0000 0.11182  0.50996  0.89886  Biso   1.000  Ni
  O13      1.0000 0.08150  0.43510  0.92895  Biso   1.000  O
  N7       1.0000 0.22570  0.51440  0.93210  Biso   1.000  N
  C70      1.0000 0.28170  0.46970  0.93380  Biso   1.000  C
  H55      1.0000 0.26710  0.43690  0.91930  Biso   1.000  H
  C71      1.0000 0.35860  0.46900  0.95550  Biso   1.000  C
  H56      1.0000 0.39200  0.43600  0.95660  Biso   1.000  H
  N8       1.0000 0.39200  0.66430  0.11760  Biso   1.000  N
  O14      1.0000 0.94300  0.44350  0.94549  Biso   1.000  O
  C72      1.0000 0.38580  0.51950  0.97610  Biso   1.000  C
  O15      1.0000 0.92960  0.28540  0.10514  Biso   1.000  O
  C73      1.0000 0.32780  0.56490  0.97430  Biso   1.000  C
  H57      1.0000 0.34110  0.59860  0.98800  Biso   1.000  H
  O16      1.0000 0.82950  0.32300  0.06460  Biso   1.000  O
  H58      1.0000 0.02100  0.47500  0.85300  Biso   1.000  H
  C74      1.0000 0.25190  0.56130  0.95300  Biso   1.000  C
  H59      1.0000 0.21590  0.59310  0.95290  Biso   1.000  H
  C75      1.0000 0.46470  0.52390  0.00100  Biso   1.000  C
  H60      1.0000 0.49200  0.56100  0.99610  Biso   1.000  H
  C76      1.0000 0.45400  0.51410  0.04840  Biso   1.000  C
  H61      1.0000 0.41020  0.48460  0.05320  Biso   1.000  H
  C77      1.0000 0.43380  0.56540  0.07410  Biso   1.000  C
  C78      1.0000 0.49000  0.61240  0.07590  Biso   1.000  C
  H62      1.0000 0.54280  0.61130  0.06220  Biso   1.000  H
  C79      1.0000 0.46720  0.65860  0.09740  Biso   1.000  C
  H63      1.0000 0.50610  0.68880  0.09850  Biso   1.000  H
  C80      1.0000 0.33730  0.62030  0.11580  Biso   1.000  C
  H64      1.0000 0.28470  0.62300  0.12950  Biso   1.000  H
  C81      1.0000 0.35680  0.57000  0.09390  Biso   1.000  C
  H65      1.0000 0.31720  0.54020  0.09300  Biso   1.000  H
  C82      1.0000 0.03120  0.38870  0.98910  Biso   1.000  C
  C83      1.0000 0.11770  0.36210  0.99470  Biso   1.000  C
  H66      1.0000 0.16030  0.36420  0.97460  Biso   1.000  H
  C84      1.0000 0.13110  0.33380  0.03190  Biso   1.000  C
  H67      1.0000 0.18730  0.32590  0.04030  Biso   1.000  H
  C85      1.0000 0.06470  0.31760  0.05570  Biso   1.000  C
  H68      1.0000 0.07570  0.29400  0.07810  Biso   1.000  H
  C86      1.0000 0.97790  0.33520  0.04800  Biso   1.000  C
  C87      1.0000 0.96450  0.36940  0.01300  Biso   1.000  C
  H69      1.0000 0.90830  0.37930  0.00590  Biso   1.000  H
  C88      1.0000 0.01800  0.42520  0.95210  Biso   1.000  C
  C89      1.0000 0.90710  0.31260  0.07430  Biso   1.000  C
  C90      1.0000 0.63420  0.63490  0.75460  Biso   1.000  C
  C91      1.0000 0.61900  0.62170  0.79730  Biso   1.000  C
  C92      1.0000 0.68630  0.59740  0.81860  Biso   1.000  C
  H70      1.0000 0.58770  0.64100  0.73700  Biso   1.000  H
  H71      1.0000 0.56600  0.62920  0.80980  Biso   1.000  H
  H72      1.0000 0.67910  0.58840  0.84630  Biso   1.000  H
  Ni5      1.0000 0.38818  0.99004  0.89886  Biso   1.000  Ni
  O17      1.0000 0.41850  0.06490  0.92895  Biso   1.000  O
  N9       1.0000 0.27430  0.98560  0.93210  Biso   1.000  N
  C93      1.0000 0.21830  0.03030  0.93380  Biso   1.000  C
  H73      1.0000 0.23290  0.06310  0.91930  Biso   1.000  H
  C94      1.0000 0.14140  0.03100  0.95550  Biso   1.000  C
  H74      1.0000 0.10800  0.06400  0.95660  Biso   1.000  H
  N10      1.0000 0.10800  0.83570  0.11760  Biso   1.000  N
  O18      1.0000 0.55700  0.05650  0.94549  Biso   1.000  O
  C95      1.0000 0.11420  0.98050  0.97610  Biso   1.000  C
  O19      1.0000 0.57040  0.21460  0.10514  Biso   1.000  O
  C96      1.0000 0.17220  0.93510  0.97430  Biso   1.000  C
  H75      1.0000 0.15890  0.90140  0.98800  Biso   1.000  H
  O20      1.0000 0.67050  0.17700  0.06460  Biso   1.000  O
  H76      1.0000 0.47900  0.02500  0.85300  Biso   1.000  H
  C97      1.0000 0.24810  0.93870  0.95300  Biso   1.000  C
  H77      1.0000 0.28410  0.90690  0.95290  Biso   1.000  H
  C98      1.0000 0.03530  0.97610  0.00100  Biso   1.000  C
  H78      1.0000 0.00800  0.93900  0.99610  Biso   1.000  H
  C99      1.0000 0.04600  0.98590  0.04840  Biso   1.000  C
  H79      1.0000 0.08980  0.01540  0.05320  Biso   1.000  H
  C100     1.0000 0.06620  0.93460  0.07410  Biso   1.000  C
  C101     1.0000 0.01000  0.88760  0.07590  Biso   1.000  C
  H80      1.0000 0.95720  0.88870  0.06220  Biso   1.000  H
  C102     1.0000 0.03280  0.84140  0.09740  Biso   1.000  C
  H81      1.0000 0.99390  0.81120  0.09850  Biso   1.000  H
  C103     1.0000 0.16270  0.87970  0.11580  Biso   1.000  C
  H82      1.0000 0.21530  0.87700  0.12950  Biso   1.000  H
  C104     1.0000 0.14320  0.93000  0.09390  Biso   1.000  C
  H83      1.0000 0.18280  0.95980  0.09300  Biso   1.000  H
  C105     1.0000 0.46880  0.11130  0.98910  Biso   1.000  C
  C106     1.0000 0.38230  0.13790  0.99470  Biso   1.000  C
  H84      1.0000 0.33970  0.13580  0.97460  Biso   1.000  H
  C107     1.0000 0.36890  0.16620  0.03190  Biso   1.000  C
  H85      1.0000 0.31270  0.17410  0.04030  Biso   1.000  H
  C108     1.0000 0.43530  0.18240  0.05570  Biso   1.000  C
  H86      1.0000 0.42430  0.20600  0.07810  Biso   1.000  H
  C109     1.0000 0.52210  0.16480  0.04800  Biso   1.000  C
  C110     1.0000 0.53550  0.13060  0.01300  Biso   1.000  C
  H87      1.0000 0.59170  0.12070  0.00590  Biso   1.000  H
  C111     1.0000 0.48200  0.07480  0.95210  Biso   1.000  C
  C112     1.0000 0.59290  0.18740  0.07430  Biso   1.000  C
  C113     1.0000 0.86580  0.86510  0.75460  Biso   1.000  C
  C114     1.0000 0.88100  0.87830  0.79730  Biso   1.000  C
  C115     1.0000 0.81370  0.90260  0.81860  Biso   1.000  C
  H88      1.0000 0.91230  0.85900  0.73700  Biso   1.000  H
  H89      1.0000 0.93400  0.87080  0.80980  Biso   1.000  H
  H90      1.0000 0.82090  0.91160  0.84630  Biso   1.000  H
  Ni6      1.0000 0.38818  0.49004  0.39886  Biso   1.000  Ni
  O21      1.0000 0.41850  0.56490  0.42895  Biso   1.000  O
  N11      1.0000 0.27430  0.48560  0.43210  Biso   1.000  N
  C116     1.0000 0.21830  0.53030  0.43380  Biso   1.000  C
  H91      1.0000 0.23290  0.56310  0.41930  Biso   1.000  H
  C117     1.0000 0.14140  0.53100  0.45550  Biso   1.000  C
  H92      1.0000 0.10800  0.56400  0.45660  Biso   1.000  H
  N12      1.0000 0.10800  0.33570  0.61760  Biso   1.000  N
  O22      1.0000 0.55700  0.55650  0.44549  Biso   1.000  O
  C118     1.0000 0.11420  0.48050  0.47610  Biso   1.000  C
  O23      1.0000 0.57040  0.71460  0.60514  Biso   1.000  O
  C119     1.0000 0.17220  0.43510  0.47430  Biso   1.000  C
  H93      1.0000 0.15890  0.40140  0.48800  Biso   1.000  H
  O24      1.0000 0.67050  0.67700  0.56460  Biso   1.000  O
  H94      1.0000 0.47900  0.52500  0.35300  Biso   1.000  H
  C120     1.0000 0.24810  0.43870  0.45300  Biso   1.000  C
  H95      1.0000 0.28410  0.40690  0.45290  Biso   1.000  H
  C121     1.0000 0.03530  0.47610  0.50100  Biso   1.000  C
  H96      1.0000 0.00800  0.43900  0.49610  Biso   1.000  H
  C122     1.0000 0.04600  0.48590  0.54840  Biso   1.000  C
  H97      1.0000 0.08980  0.51540  0.55320  Biso   1.000  H
  C123     1.0000 0.06620  0.43460  0.57410  Biso   1.000  C
  C124     1.0000 0.01000  0.38760  0.57590  Biso   1.000  C
  H98      1.0000 0.95720  0.38870  0.56220  Biso   1.000  H
  C125     1.0000 0.03280  0.34140  0.59740  Biso   1.000  C
  H99      1.0000 0.99390  0.31120  0.59850  Biso   1.000  H
  C126     1.0000 0.16270  0.37970  0.61580  Biso   1.000  C
  H100     1.0000 0.21530  0.37700  0.62950  Biso   1.000  H
  C127     1.0000 0.14320  0.43000  0.59390  Biso   1.000  C
  H101     1.0000 0.18280  0.45980  0.59300  Biso   1.000  H
  C128     1.0000 0.46880  0.61130  0.48910  Biso   1.000  C
  C129     1.0000 0.38230  0.63790  0.49470  Biso   1.000  C
  H102     1.0000 0.33970  0.63580  0.47460  Biso   1.000  H
  C130     1.0000 0.36890  0.66620  0.53190  Biso   1.000  C
  H103     1.0000 0.31270  0.67410  0.54030  Biso   1.000  H
  C131     1.0000 0.43530  0.68240  0.55570  Biso   1.000  C
  H104     1.0000 0.42430  0.70600  0.57810  Biso   1.000  H
  C132     1.0000 0.52210  0.66480  0.54800  Biso   1.000  C
  C133     1.0000 0.53550  0.63060  0.51300  Biso   1.000  C
  H105     1.0000 0.59170  0.62070  0.50590  Biso   1.000  H
  C134     1.0000 0.48200  0.57480  0.45210  Biso   1.000  C
  C135     1.0000 0.59290  0.68740  0.57430  Biso   1.000  C
  C136     1.0000 0.86580  0.36510  0.25460  Biso   1.000  C
  C137     1.0000 0.88100  0.37830  0.29730  Biso   1.000  C
  C138     1.0000 0.81370  0.40260  0.31860  Biso   1.000  C
  H106     1.0000 0.91230  0.35900  0.23700  Biso   1.000  H
  H107     1.0000 0.93400  0.37080  0.30980  Biso   1.000  H
  H108     1.0000 0.82090  0.41160  0.34630  Biso   1.000  H
  Ni7      1.0000 0.88818  0.99004  0.39886  Biso   1.000  Ni
  O25      1.0000 0.91850  0.06490  0.42895  Biso   1.000  O
  N13      1.0000 0.77430  0.98560  0.43210  Biso   1.000  N
  C139     1.0000 0.71830  0.03030  0.43380  Biso   1.000  C
  H109     1.0000 0.73290  0.06310  0.41930  Biso   1.000  H
  C140     1.0000 0.64140  0.03100  0.45550  Biso   1.000  C
  H110     1.0000 0.60800  0.06400  0.45660  Biso   1.000  H
  N14      1.0000 0.60800  0.83570  0.61760  Biso   1.000  N
  O26      1.0000 0.05700  0.05650  0.44549  Biso   1.000  O
  C141     1.0000 0.61420  0.98050  0.47610  Biso   1.000  C
  O27      1.0000 0.07040  0.21460  0.60514  Biso   1.000  O
  C142     1.0000 0.67220  0.93510  0.47430  Biso   1.000  C
  H111     1.0000 0.65890  0.90140  0.48800  Biso   1.000  H
  O28      1.0000 0.17050  0.17700  0.56460  Biso   1.000  O
  H112     1.0000 0.97900  0.02500  0.35300  Biso   1.000  H
  C143     1.0000 0.74810  0.93870  0.45300  Biso   1.000  C
  H113     1.0000 0.78410  0.90690  0.45290  Biso   1.000  H
  C144     1.0000 0.53530  0.97610  0.50100  Biso   1.000  C
  H114     1.0000 0.50800  0.93900  0.49610  Biso   1.000  H
  C145     1.0000 0.54600  0.98590  0.54840  Biso   1.000  C
  H115     1.0000 0.58980  0.01540  0.55320  Biso   1.000  H
  C146     1.0000 0.56620  0.93460  0.57410  Biso   1.000  C
  C147     1.0000 0.51000  0.88760  0.57590  Biso   1.000  C
  H116     1.0000 0.45720  0.88870  0.56220  Biso   1.000  H
  C148     1.0000 0.53280  0.84140  0.59740  Biso   1.000  C
  H117     1.0000 0.49390  0.81120  0.59850  Biso   1.000  H
  C149     1.0000 0.66270  0.87970  0.61580  Biso   1.000  C
  H118     1.0000 0.71530  0.87700  0.62950  Biso   1.000  H
  C150     1.0000 0.64320  0.93000  0.59390  Biso   1.000  C
  H119     1.0000 0.68280  0.95980  0.59300  Biso   1.000  H
  C151     1.0000 0.96880  0.11130  0.48910  Biso   1.000  C
  C152     1.0000 0.88230  0.13790  0.49470  Biso   1.000  C
  H120     1.0000 0.83970  0.13580  0.47460  Biso   1.000  H
  C153     1.0000 0.86890  0.16620  0.53190  Biso   1.000  C
  H121     1.0000 0.81270  0.17410  0.54030  Biso   1.000  H
  C154     1.0000 0.93530  0.18240  0.55570  Biso   1.000  C
  H122     1.0000 0.92430  0.20600  0.57810  Biso   1.000  H
  C155     1.0000 0.02210  0.16480  0.54800  Biso   1.000  C
  C156     1.0000 0.03550  0.13060  0.51300  Biso   1.000  C
  H123     1.0000 0.09170  0.12070  0.50590  Biso   1.000  H
  C157     1.0000 0.98200  0.07480  0.45210  Biso   1.000  C
  C158     1.0000 0.09290  0.18740  0.57430  Biso   1.000  C
  C159     1.0000 0.36580  0.86510  0.25460  Biso   1.000  C
  C160     1.0000 0.38100  0.87830  0.29730  Biso   1.000  C
  C161     1.0000 0.31370  0.90260  0.31860  Biso   1.000  C
  H124     1.0000 0.41230  0.85900  0.23700  Biso   1.000  H
  H125     1.0000 0.43400  0.87080  0.30980  Biso   1.000  H
  H126     1.0000 0.32090  0.91160  0.34630  Biso   1.000  H
  Ni8      1.0000 0.88818  0.49004  0.89886  Biso   1.000  Ni
  O29      1.0000 0.91850  0.56490  0.92895  Biso   1.000  O
  N15      1.0000 0.77430  0.48560  0.93210  Biso   1.000  N
  C162     1.0000 0.71830  0.53030  0.93380  Biso   1.000  C
  H127     1.0000 0.73290  0.56310  0.91930  Biso   1.000  H
  C163     1.0000 0.64140  0.53100  0.95550  Biso   1.000  C
  H128     1.0000 0.60800  0.56400  0.95660  Biso   1.000  H
  N16      1.0000 0.60800  0.33570  0.11760  Biso   1.000  N
  O30      1.0000 0.05700  0.55650  0.94549  Biso   1.000  O
  C164     1.0000 0.61420  0.48050  0.97610  Biso   1.000  C
  O31      1.0000 0.07040  0.71460  0.10514  Biso   1.000  O
  C165     1.0000 0.67220  0.43510  0.97430  Biso   1.000  C
  H129     1.0000 0.65890  0.40140  0.98800  Biso   1.000  H
  O32      1.0000 0.17050  0.67700  0.06460  Biso   1.000  O
  H130     1.0000 0.97900  0.52500  0.85300  Biso   1.000  H
  C166     1.0000 0.74810  0.43870  0.95300  Biso   1.000  C
  H131     1.0000 0.78410  0.40690  0.95290  Biso   1.000  H
  C167     1.0000 0.53530  0.47610  0.00100  Biso   1.000  C
  H132     1.0000 0.50800  0.43900  0.99610  Biso   1.000  H
  C168     1.0000 0.54600  0.48590  0.04840  Biso   1.000  C
  H133     1.0000 0.58980  0.51540  0.05320  Biso   1.000  H
  C169     1.0000 0.56620  0.43460  0.07410  Biso   1.000  C
  C170     1.0000 0.51000  0.38760  0.07590  Biso   1.000  C
  H134     1.0000 0.45720  0.38870  0.06220  Biso   1.000  H
  C171     1.0000 0.53280  0.34140  0.09740  Biso   1.000  C
  H135     1.0000 0.49390  0.31120  0.09850  Biso   1.000  H
  C172     1.0000 0.66270  0.37970  0.11580  Biso   1.000  C
  H136     1.0000 0.71530  0.37700  0.12950  Biso   1.000  H
  C173     1.0000 0.64320  0.43000  0.09390  Biso   1.000  C
  H137     1.0000 0.68280  0.45980  0.09300  Biso   1.000  H
  C174     1.0000 0.96880  0.61130  0.98910  Biso   1.000  C
  C175     1.0000 0.88230  0.63790  0.99470  Biso   1.000  C
  H138     1.0000 0.83970  0.63580  0.97460  Biso   1.000  H
  C176     1.0000 0.86890  0.66620  0.03190  Biso   1.000  C
  H139     1.0000 0.81270  0.67410  0.04030  Biso   1.000  H
  C177     1.0000 0.93530  0.68240  0.05570  Biso   1.000  C
  H140     1.0000 0.92430  0.70600  0.07810  Biso   1.000  H
  C178     1.0000 0.02210  0.66480  0.04800  Biso   1.000  C
  C179     1.0000 0.03550  0.63060  0.01300  Biso   1.000  C
  H141     1.0000 0.09170  0.62070  0.00590  Biso   1.000  H
  C180     1.0000 0.98200  0.57480  0.95210  Biso   1.000  C
  C181     1.0000 0.09290  0.68740  0.07430  Biso   1.000  C
  C182     1.0000 0.36580  0.36510  0.75460  Biso   1.000  C
  C183     1.0000 0.38100  0.37830  0.79730  Biso   1.000  C
  C184     1.0000 0.31370  0.40260  0.81860  Biso   1.000  C
  H142     1.0000 0.41230  0.35900  0.73700  Biso   1.000  H
  H143     1.0000 0.43400  0.37080  0.80980  Biso   1.000  H
  H144     1.0000 0.32090  0.41160  0.84630  Biso   1.000  H
  Ni9      1.0000 0.86182  0.24004  0.14886  Biso   1.000  Ni
  O33      1.0000 0.83150  0.31490  0.17895  Biso   1.000  O
  N17      1.0000 0.97570  0.23560  0.18210  Biso   1.000  N
  C185     1.0000 0.03170  0.28030  0.18380  Biso   1.000  C
  H145     1.0000 0.01710  0.31310  0.16930  Biso   1.000  H
  C186     1.0000 0.10860  0.28100  0.20550  Biso   1.000  C
  H146     1.0000 0.14200  0.31400  0.20660  Biso   1.000  H
  N18      1.0000 0.14200  0.08570  0.36760  Biso   1.000  N
  O34      1.0000 0.69300  0.30650  0.19549  Biso   1.000  O
  C187     1.0000 0.13580  0.23050  0.22610  Biso   1.000  C
  O35      1.0000 0.67960  0.46460  0.35514  Biso   1.000  O
  C188     1.0000 0.07780  0.18510  0.22430  Biso   1.000  C
  H147     1.0000 0.09110  0.15140  0.23800  Biso   1.000  H
  O36      1.0000 0.57950  0.42700  0.31460  Biso   1.000  O
  H148     1.0000 0.77100  0.27500  0.10300  Biso   1.000  H
  C189     1.0000 0.00190  0.18870  0.20300  Biso   1.000  C
  H149     1.0000 0.96590  0.15690  0.20290  Biso   1.000  H
  C190     1.0000 0.21470  0.22610  0.25100  Biso   1.000  C
  H150     1.0000 0.24200  0.18900  0.24610  Biso   1.000  H
  C191     1.0000 0.20400  0.23590  0.29840  Biso   1.000  C
  H151     1.0000 0.16020  0.26540  0.30320  Biso   1.000  H
  C192     1.0000 0.18380  0.18460  0.32410  Biso   1.000  C
  C193     1.0000 0.24000  0.13760  0.32590  Biso   1.000  C
  H152     1.0000 0.29280  0.13870  0.31220  Biso   1.000  H
  C194     1.0000 0.21720  0.09140  0.34740  Biso   1.000  C
  H153     1.0000 0.25610  0.06120  0.34850  Biso   1.000  H
  C195     1.0000 0.08730  0.12970  0.36580  Biso   1.000  C
  H154     1.0000 0.03470  0.12700  0.37950  Biso   1.000  H
  C196     1.0000 0.10680  0.18000  0.34390  Biso   1.000  C
  H155     1.0000 0.06720  0.20980  0.34300  Biso   1.000  H
  C197     1.0000 0.78120  0.36130  0.23910  Biso   1.000  C
  C198     1.0000 0.86770  0.38790  0.24470  Biso   1.000  C
  H156     1.0000 0.91030  0.38580  0.22460  Biso   1.000  H
  C199     1.0000 0.88110  0.41620  0.28190  Biso   1.000  C
  H157     1.0000 0.93730  0.42410  0.29030  Biso   1.000  H
  C200     1.0000 0.81470  0.43240  0.30570  Biso   1.000  C
  H158     1.0000 0.82570  0.45600  0.32810  Biso   1.000  H
  C201     1.0000 0.72790  0.41480  0.29800  Biso   1.000  C
  C202     1.0000 0.71450  0.38060  0.26300  Biso   1.000  C
  H159     1.0000 0.65830  0.37070  0.25590  Biso   1.000  H
  C203     1.0000 0.76800  0.32480  0.20210  Biso   1.000  C
  C204     1.0000 0.65710  0.43740  0.32430  Biso   1.000  C
  C205     1.0000 0.38420  0.11510  0.00460  Biso   1.000  C
  C206     1.0000 0.36900  0.12830  0.04730  Biso   1.000  C
  C207     1.0000 0.43630  0.15260  0.06860  Biso   1.000  C
  H160     1.0000 0.33770  0.10900  0.98700  Biso   1.000  H
  H161     1.0000 0.31600  0.12080  0.05980  Biso   1.000  H
  H162     1.0000 0.42910  0.16160  0.09630  Biso   1.000  H
  Ni10     1.0000 0.86182  0.74004  0.64886  Biso   1.000  Ni
  O37      1.0000 0.83150  0.81490  0.67895  Biso   1.000  O
  N19      1.0000 0.97570  0.73560  0.68210  Biso   1.000  N
  C208     1.0000 0.03170  0.78030  0.68380  Biso   1.000  C
  H163     1.0000 0.01710  0.81310  0.66930  Biso   1.000  H
  C209     1.0000 0.10860  0.78100  0.70550  Biso   1.000  C
  H164     1.0000 0.14200  0.81400  0.70660  Biso   1.000  H
  N20      1.0000 0.14200  0.58570  0.86760  Biso   1.000  N
  O38      1.0000 0.69300  0.80650  0.69549  Biso   1.000  O
  C210     1.0000 0.13580  0.73050  0.72610  Biso   1.000  C
  O39      1.0000 0.67960  0.96460  0.85514  Biso   1.000  O
  C211     1.0000 0.07780  0.68510  0.72430  Biso   1.000  C
  H165     1.0000 0.09110  0.65140  0.73800  Biso   1.000  H
  O40      1.0000 0.57950  0.92700  0.81460  Biso   1.000  O
  H166     1.0000 0.77100  0.77500  0.60300  Biso   1.000  H
  C212     1.0000 0.00190  0.68870  0.70300  Biso   1.000  C
  H167     1.0000 0.96590  0.65690  0.70290  Biso   1.000  H
  C213     1.0000 0.21470  0.72610  0.75100  Biso   1.000  C
  H168     1.0000 0.24200  0.68900  0.74610  Biso   1.000  H
  C214     1.0000 0.20400  0.73590  0.79840  Biso   1.000  C
  H169     1.0000 0.16020  0.76540  0.80320  Biso   1.000  H
  C215     1.0000 0.18380  0.68460  0.82410  Biso   1.000  C
  C216     1.0000 0.24000  0.63760  0.82590  Biso   1.000  C
  H170     1.0000 0.29280  0.63870  0.81220  Biso   1.000  H
  C217     1.0000 0.21720  0.59140  0.84740  Biso   1.000  C
  H171     1.0000 0.25610  0.56120  0.84850  Biso   1.000  H
  C218     1.0000 0.08730  0.62970  0.86580  Biso   1.000  C
  H172     1.0000 0.03470  0.62700  0.87950  Biso   1.000  H
  C219     1.0000 0.10680  0.68000  0.84390  Biso   1.000  C
  H173     1.0000 0.06720  0.70980  0.84300  Biso   1.000  H
  C220     1.0000 0.78120  0.86130  0.73910  Biso   1.000  C
  C221     1.0000 0.86770  0.88790  0.74470  Biso   1.000  C
  H174     1.0000 0.91030  0.88580  0.72460  Biso   1.000  H
  C222     1.0000 0.88110  0.91620  0.78190  Biso   1.000  C
  H175     1.0000 0.93730  0.92410  0.79030  Biso   1.000  H
  C223     1.0000 0.81470  0.93240  0.80570  Biso   1.000  C
  H176     1.0000 0.82570  0.95600  0.82810  Biso   1.000  H
  C224     1.0000 0.72790  0.91480  0.79800  Biso   1.000  C
  C225     1.0000 0.71450  0.88060  0.76300  Biso   1.000  C
  H177     1.0000 0.65830  0.87070  0.75590  Biso   1.000  H
  C226     1.0000 0.76800  0.82480  0.70210  Biso   1.000  C
  C227     1.0000 0.65710  0.93740  0.82430  Biso   1.000  C
  C228     1.0000 0.38420  0.61510  0.50460  Biso   1.000  C
  C229     1.0000 0.36900  0.62830  0.54730  Biso   1.000  C
  C230     1.0000 0.43630  0.65260  0.56860  Biso   1.000  C
  H178     1.0000 0.33770  0.60900  0.48700  Biso   1.000  H
  H179     1.0000 0.31600  0.62080  0.55980  Biso   1.000  H
  H180     1.0000 0.42910  0.66160  0.59630  Biso   1.000  H
  Ni11     1.0000 0.36182  0.24004  0.64886  Biso   1.000  Ni
  O41      1.0000 0.33150  0.31490  0.67895  Biso   1.000  O
  N21      1.0000 0.47570  0.23560  0.68210  Biso   1.000  N
  C231     1.0000 0.53170  0.28030  0.68380  Biso   1.000  C
  H181     1.0000 0.51710  0.31310  0.66930  Biso   1.000  H
  C232     1.0000 0.60860  0.28100  0.70550  Biso   1.000  C
  H182     1.0000 0.64200  0.31400  0.70660  Biso   1.000  H
  N22      1.0000 0.64200  0.08570  0.86760  Biso   1.000  N
  O42      1.0000 0.19300  0.30650  0.69549  Biso   1.000  O
  C233     1.0000 0.63580  0.23050  0.72610  Biso   1.000  C
  O43      1.0000 0.17960  0.46460  0.85514  Biso   1.000  O
  C234     1.0000 0.57780  0.18510  0.72430  Biso   1.000  C
  H183     1.0000 0.59110  0.15140  0.73800  Biso   1.000  H
  O44      1.0000 0.07950  0.42700  0.81460  Biso   1.000  O
  H184     1.0000 0.27100  0.27500  0.60300  Biso   1.000  H
  C235     1.0000 0.50190  0.18870  0.70300  Biso   1.000  C
  H185     1.0000 0.46590  0.15690  0.70290  Biso   1.000  H
  C236     1.0000 0.71470  0.22610  0.75100  Biso   1.000  C
  H186     1.0000 0.74200  0.18900  0.74610  Biso   1.000  H
  C237     1.0000 0.70400  0.23590  0.79840  Biso   1.000  C
  H187     1.0000 0.66020  0.26540  0.80320  Biso   1.000  H
  C238     1.0000 0.68380  0.18460  0.82410  Biso   1.000  C
  C239     1.0000 0.74000  0.13760  0.82590  Biso   1.000  C
  H188     1.0000 0.79280  0.13870  0.81220  Biso   1.000  H
  C240     1.0000 0.71720  0.09140  0.84740  Biso   1.000  C
  H189     1.0000 0.75610  0.06120  0.84850  Biso   1.000  H
  C241     1.0000 0.58730  0.12970  0.86580  Biso   1.000  C
  H190     1.0000 0.53470  0.12700  0.87950  Biso   1.000  H
  C242     1.0000 0.60680  0.18000  0.84390  Biso   1.000  C
  H191     1.0000 0.56720  0.20980  0.84300  Biso   1.000  H
  C243     1.0000 0.28120  0.36130  0.73910  Biso   1.000  C
  C244     1.0000 0.36770  0.38790  0.74470  Biso   1.000  C
  H192     1.0000 0.41030  0.38580  0.72460  Biso   1.000  H
  C245     1.0000 0.38110  0.41620  0.78190  Biso   1.000  C
  H193     1.0000 0.43730  0.42410  0.79030  Biso   1.000  H
  C246     1.0000 0.31470  0.43240  0.80570  Biso   1.000  C
  H194     1.0000 0.32570  0.45600  0.82810  Biso   1.000  H
  C247     1.0000 0.22790  0.41480  0.79800  Biso   1.000  C
  C248     1.0000 0.21450  0.38060  0.76300  Biso   1.000  C
  H195     1.0000 0.15830  0.37070  0.75590  Biso   1.000  H
  C249     1.0000 0.26800  0.32480  0.70210  Biso   1.000  C
  C250     1.0000 0.15710  0.43740  0.82430  Biso   1.000  C
  C251     1.0000 0.88420  0.11510  0.50460  Biso   1.000  C
  C252     1.0000 0.86900  0.12830  0.54730  Biso   1.000  C
  C253     1.0000 0.93630  0.15260  0.56860  Biso   1.000  C
  H196     1.0000 0.83770  0.10900  0.48700  Biso   1.000  H
  H197     1.0000 0.81600  0.12080  0.55980  Biso   1.000  H
  H198     1.0000 0.92910  0.16160  0.59630  Biso   1.000  H
  Ni12     1.0000 0.36182  0.74004  0.14886  Biso   1.000  Ni
  O45      1.0000 0.33150  0.81490  0.17895  Biso   1.000  O
  N23      1.0000 0.47570  0.73560  0.18210  Biso   1.000  N
  C254     1.0000 0.53170  0.78030  0.18380  Biso   1.000  C
  H199     1.0000 0.51710  0.81310  0.16930  Biso   1.000  H
  C255     1.0000 0.60860  0.78100  0.20550  Biso   1.000  C
  H200     1.0000 0.64200  0.81400  0.20660  Biso   1.000  H
  N24      1.0000 0.64200  0.58570  0.36760  Biso   1.000  N
  O46      1.0000 0.19300  0.80650  0.19549  Biso   1.000  O
  C256     1.0000 0.63580  0.73050  0.22610  Biso   1.000  C
  O47      1.0000 0.17960  0.96460  0.35514  Biso   1.000  O
  C257     1.0000 0.57780  0.68510  0.22430  Biso   1.000  C
  H201     1.0000 0.59110  0.65140  0.23800  Biso   1.000  H
  O48      1.0000 0.07950  0.92700  0.31460  Biso   1.000  O
  H202     1.0000 0.27100  0.77500  0.10300  Biso   1.000  H
  C258     1.0000 0.50190  0.68870  0.20300  Biso   1.000  C
  H203     1.0000 0.46590  0.65690  0.20290  Biso   1.000  H
  C259     1.0000 0.71470  0.72610  0.25100  Biso   1.000  C
  H204     1.0000 0.74200  0.68900  0.24610  Biso   1.000  H
  C260     1.0000 0.70400  0.73590  0.29840  Biso   1.000  C
  H205     1.0000 0.66020  0.76540  0.30320  Biso   1.000  H
  C261     1.0000 0.68380  0.68460  0.32410  Biso   1.000  C
  C262     1.0000 0.74000  0.63760  0.32590  Biso   1.000  C
  H206     1.0000 0.79280  0.63870  0.31220  Biso   1.000  H
  C263     1.0000 0.71720  0.59140  0.34740  Biso   1.000  C
  H207     1.0000 0.75610  0.56120  0.34850  Biso   1.000  H
  C264     1.0000 0.58730  0.62970  0.36580  Biso   1.000  C
  H208     1.0000 0.53470  0.62700  0.37950  Biso   1.000  H
  C265     1.0000 0.60680  0.68000  0.34390  Biso   1.000  C
  H209     1.0000 0.56720  0.70980  0.34300  Biso   1.000  H
  C266     1.0000 0.28120  0.86130  0.23910  Biso   1.000  C
  C267     1.0000 0.36770  0.88790  0.24470  Biso   1.000  C
  H210     1.0000 0.41030  0.88580  0.22460  Biso   1.000  H
  C268     1.0000 0.38110  0.91620  0.28190  Biso   1.000  C
  H211     1.0000 0.43730  0.92410  0.29030  Biso   1.000  H
  C269     1.0000 0.31470  0.93240  0.30570  Biso   1.000  C
  H212     1.0000 0.32570  0.95600  0.32810  Biso   1.000  H
  C270     1.0000 0.22790  0.91480  0.29800  Biso   1.000  C
  C271     1.0000 0.21450  0.88060  0.26300  Biso   1.000  C
  H213     1.0000 0.15830  0.87070  0.25590  Biso   1.000  H
  C272     1.0000 0.26800  0.82480  0.20210  Biso   1.000  C
  C273     1.0000 0.15710  0.93740  0.32430  Biso   1.000  C
  C274     1.0000 0.88420  0.61510  0.00460  Biso   1.000  C
  C275     1.0000 0.86900  0.62830  0.04730  Biso   1.000  C
  C276     1.0000 0.93630  0.65260  0.06860  Biso   1.000  C
  H214     1.0000 0.83770  0.60900  0.98700  Biso   1.000  H
  H215     1.0000 0.81600  0.62080  0.05980  Biso   1.000  H
  H216     1.0000 0.92910  0.66160  0.09630  Biso   1.000  H
  Ni13     1.0000 0.63818  0.25996  0.14886  Biso   1.000  Ni
  O49      1.0000 0.66850  0.18510  0.17895  Biso   1.000  O
  N25      1.0000 0.52430  0.26440  0.18210  Biso   1.000  N
  C277     1.0000 0.46830  0.21970  0.18380  Biso   1.000  C
  H217     1.0000 0.48290  0.18690  0.16930  Biso   1.000  H
  C278     1.0000 0.39140  0.21900  0.20550  Biso   1.000  C
  H218     1.0000 0.35800  0.18600  0.20660  Biso   1.000  H
  N26      1.0000 0.35800  0.41430  0.36760  Biso   1.000  N
  O50      1.0000 0.80700  0.19350  0.19549  Biso   1.000  O
  C279     1.0000 0.36420  0.26950  0.22610  Biso   1.000  C
  O51      1.0000 0.82040  0.03540  0.35514  Biso   1.000  O
  C280     1.0000 0.42220  0.31490  0.22430  Biso   1.000  C
  H219     1.0000 0.40890  0.34860  0.23800  Biso   1.000  H
  O52      1.0000 0.92050  0.07300  0.31460  Biso   1.000  O
  H220     1.0000 0.72900  0.22500  0.10300  Biso   1.000  H
  C281     1.0000 0.49810  0.31130  0.20300  Biso   1.000  C
  H221     1.0000 0.53410  0.34310  0.20290  Biso   1.000  H
  C282     1.0000 0.28530  0.27390  0.25100  Biso   1.000  C
  H222     1.0000 0.25800  0.31100  0.24610  Biso   1.000  H
  C283     1.0000 0.29600  0.26410  0.29840  Biso   1.000  C
  H223     1.0000 0.33980  0.23460  0.30320  Biso   1.000  H
  C284     1.0000 0.31620  0.31540  0.32410  Biso   1.000  C
  C285     1.0000 0.26000  0.36240  0.32590  Biso   1.000  C
  H224     1.0000 0.20720  0.36130  0.31220  Biso   1.000  H
  C286     1.0000 0.28280  0.40860  0.34740  Biso   1.000  C
  H225     1.0000 0.24390  0.43880  0.34850  Biso   1.000  H
  C287     1.0000 0.41270  0.37030  0.36580  Biso   1.000  C
  H226     1.0000 0.46530  0.37300  0.37950  Biso   1.000  H
  C288     1.0000 0.39320  0.32000  0.34390  Biso   1.000  C
  H227     1.0000 0.43280  0.29020  0.34300  Biso   1.000  H
  C289     1.0000 0.71880  0.13870  0.23910  Biso   1.000  C
  C290     1.0000 0.63230  0.11210  0.24470  Biso   1.000  C
  H228     1.0000 0.58970  0.11420  0.22460  Biso   1.000  H
  C291     1.0000 0.61890  0.08380  0.28190  Biso   1.000  C
  H229     1.0000 0.56270  0.07590  0.29030  Biso   1.000  H
  C292     1.0000 0.68530  0.06760  0.30570  Biso   1.000  C
  H230     1.0000 0.67430  0.04400  0.32810  Biso   1.000  H
  C293     1.0000 0.77210  0.08520  0.29800  Biso   1.000  C
  C294     1.0000 0.78550  0.11940  0.26300  Biso   1.000  C
  H231     1.0000 0.84170  0.12930  0.25590  Biso   1.000  H
  C295     1.0000 0.73200  0.17520  0.20210  Biso   1.000  C
  C296     1.0000 0.84290  0.06260  0.32430  Biso   1.000  C
  C297     1.0000 0.11580  0.38490  0.00460  Biso   1.000  C
  C298     1.0000 0.13100  0.37170  0.04730  Biso   1.000  C
  C299     1.0000 0.06370  0.34740  0.06860  Biso   1.000  C
  H232     1.0000 0.16230  0.39100  0.98700  Biso   1.000  H
  H233     1.0000 0.18400  0.37920  0.05980  Biso   1.000  H
  H234     1.0000 0.07090  0.33840  0.09630  Biso   1.000  H
  Ni14     1.0000 0.63818  0.75996  0.64886  Biso   1.000  Ni
  O53      1.0000 0.66850  0.68510  0.67895  Biso   1.000  O
  N27      1.0000 0.52430  0.76440  0.68210  Biso   1.000  N
  C300     1.0000 0.46830  0.71970  0.68380  Biso   1.000  C
  H235     1.0000 0.48290  0.68690  0.66930  Biso   1.000  H
  C301     1.0000 0.39140  0.71900  0.70550  Biso   1.000  C
  H236     1.0000 0.35800  0.68600  0.70660  Biso   1.000  H
  N28      1.0000 0.35800  0.91430  0.86760  Biso   1.000  N
  O54      1.0000 0.80700  0.69350  0.69549  Biso   1.000  O
  C302     1.0000 0.36420  0.76950  0.72610  Biso   1.000  C
  O55      1.0000 0.82040  0.53540  0.85514  Biso   1.000  O
  C303     1.0000 0.42220  0.81490  0.72430  Biso   1.000  C
  H237     1.0000 0.40890  0.84860  0.73800  Biso   1.000  H
  O56      1.0000 0.92050  0.57300  0.81460  Biso   1.000  O
  H238     1.0000 0.72900  0.72500  0.60300  Biso   1.000  H
  C304     1.0000 0.49810  0.81130  0.70300  Biso   1.000  C
  H239     1.0000 0.53410  0.84310  0.70290  Biso   1.000  H
  C305     1.0000 0.28530  0.77390  0.75100  Biso   1.000  C
  H240     1.0000 0.25800  0.81100  0.74610  Biso   1.000  H
  C306     1.0000 0.29600  0.76410  0.79840  Biso   1.000  C
  H241     1.0000 0.33980  0.73460  0.80320  Biso   1.000  H
  C307     1.0000 0.31620  0.81540  0.82410  Biso   1.000  C
  C308     1.0000 0.26000  0.86240  0.82590  Biso   1.000  C
  H242     1.0000 0.20720  0.86130  0.81220  Biso   1.000  H
  C309     1.0000 0.28280  0.90860  0.84740  Biso   1.000  C
  H243     1.0000 0.24390  0.93880  0.84850  Biso   1.000  H
  C310     1.0000 0.41270  0.87030  0.86580  Biso   1.000  C
  H244     1.0000 0.46530  0.87300  0.87950  Biso   1.000  H
  C311     1.0000 0.39320  0.82000  0.84390  Biso   1.000  C
  H245     1.0000 0.43280  0.79020  0.84300  Biso   1.000  H
  C312     1.0000 0.71880  0.63870  0.73910  Biso   1.000  C
  C313     1.0000 0.63230  0.61210  0.74470  Biso   1.000  C
  H246     1.0000 0.58970  0.61420  0.72460  Biso   1.000  H
  C314     1.0000 0.61890  0.58380  0.78190  Biso   1.000  C
  H247     1.0000 0.56270  0.57590  0.79030  Biso   1.000  H
  C315     1.0000 0.68530  0.56760  0.80570  Biso   1.000  C
  H248     1.0000 0.67430  0.54400  0.82810  Biso   1.000  H
  C316     1.0000 0.77210  0.58520  0.79800  Biso   1.000  C
  C317     1.0000 0.78550  0.61940  0.76300  Biso   1.000  C
  H249     1.0000 0.84170  0.62930  0.75590  Biso   1.000  H
  C318     1.0000 0.73200  0.67520  0.70210  Biso   1.000  C
  C319     1.0000 0.84290  0.56260  0.82430  Biso   1.000  C
  C320     1.0000 0.11580  0.88490  0.50460  Biso   1.000  C
  C321     1.0000 0.13100  0.87170  0.54730  Biso   1.000  C
  C322     1.0000 0.06370  0.84740  0.56860  Biso   1.000  C
  H250     1.0000 0.16230  0.89100  0.48700  Biso   1.000  H
  H251     1.0000 0.18400  0.87920  0.55980  Biso   1.000  H
  H252     1.0000 0.07090  0.83840  0.59630  Biso   1.000  H
  Ni15     1.0000 0.13818  0.25996  0.64886  Biso   1.000  Ni
  O57      1.0000 0.16850  0.18510  0.67895  Biso   1.000  O
  N29      1.0000 0.02430  0.26440  0.68210  Biso   1.000  N
  C323     1.0000 0.96830  0.21970  0.68380  Biso   1.000  C
  H253     1.0000 0.98290  0.18690  0.66930  Biso   1.000  H
  C324     1.0000 0.89140  0.21900  0.70550  Biso   1.000  C
  H254     1.0000 0.85800  0.18600  0.70660  Biso   1.000  H
  N30      1.0000 0.85800  0.41430  0.86760  Biso   1.000  N
  O58      1.0000 0.30700  0.19350  0.69549  Biso   1.000  O
  C325     1.0000 0.86420  0.26950  0.72610  Biso   1.000  C
  O59      1.0000 0.32040  0.03540  0.85514  Biso   1.000  O
  C326     1.0000 0.92220  0.31490  0.72430  Biso   1.000  C
  H255     1.0000 0.90890  0.34860  0.73800  Biso   1.000  H
  O60      1.0000 0.42050  0.07300  0.81460  Biso   1.000  O
  H256     1.0000 0.22900  0.22500  0.60300  Biso   1.000  H
  C327     1.0000 0.99810  0.31130  0.70300  Biso   1.000  C
  H257     1.0000 0.03410  0.34310  0.70290  Biso   1.000  H
  C328     1.0000 0.78530  0.27390  0.75100  Biso   1.000  C
  H258     1.0000 0.75800  0.31100  0.74610  Biso   1.000  H
  C329     1.0000 0.79600  0.26410  0.79840  Biso   1.000  C
  H259     1.0000 0.83980  0.23460  0.80320  Biso   1.000  H
  C330     1.0000 0.81620  0.31540  0.82410  Biso   1.000  C
  C331     1.0000 0.76000  0.36240  0.82590  Biso   1.000  C
  H260     1.0000 0.70720  0.36130  0.81220  Biso   1.000  H
  C332     1.0000 0.78280  0.40860  0.84740  Biso   1.000  C
  H261     1.0000 0.74390  0.43880  0.84850  Biso   1.000  H
  C333     1.0000 0.91270  0.37030  0.86580  Biso   1.000  C
  H262     1.0000 0.96530  0.37300  0.87950  Biso   1.000  H
  C334     1.0000 0.89320  0.32000  0.84390  Biso   1.000  C
  H263     1.0000 0.93280  0.29020  0.84300  Biso   1.000  H
  C335     1.0000 0.21880  0.13870  0.73910  Biso   1.000  C
  C336     1.0000 0.13230  0.11210  0.74470  Biso   1.000  C
  H264     1.0000 0.08970  0.11420  0.72460  Biso   1.000  H
  C337     1.0000 0.11890  0.08380  0.78190  Biso   1.000  C
  H265     1.0000 0.06270  0.07590  0.79030  Biso   1.000  H
  C338     1.0000 0.18530  0.06760  0.80570  Biso   1.000  C
  H266     1.0000 0.17430  0.04400  0.82810  Biso   1.000  H
  C339     1.0000 0.27210  0.08520  0.79800  Biso   1.000  C
  C340     1.0000 0.28550  0.11940  0.76300  Biso   1.000  C
  H267     1.0000 0.34170  0.12930  0.75590  Biso   1.000  H
  C341     1.0000 0.23200  0.17520  0.70210  Biso   1.000  C
  C342     1.0000 0.34290  0.06260  0.82430  Biso   1.000  C
  C343     1.0000 0.61580  0.38490  0.50460  Biso   1.000  C
  C344     1.0000 0.63100  0.37170  0.54730  Biso   1.000  C
  C345     1.0000 0.56370  0.34740  0.56860  Biso   1.000  C
  H268     1.0000 0.66230  0.39100  0.48700  Biso   1.000  H
  H269     1.0000 0.68400  0.37920  0.55980  Biso   1.000  H
  H270     1.0000 0.57090  0.33840  0.59630  Biso   1.000  H
  Ni16     1.0000 0.13818  0.75996  0.14886  Biso   1.000  Ni
  O61      1.0000 0.16850  0.68510  0.17895  Biso   1.000  O
  N31      1.0000 0.02430  0.76440  0.18210  Biso   1.000  N
  C346     1.0000 0.96830  0.71970  0.18380  Biso   1.000  C
  H271     1.0000 0.98290  0.68690  0.16930  Biso   1.000  H
  C347     1.0000 0.89140  0.71900  0.20550  Biso   1.000  C
  H272     1.0000 0.85800  0.68600  0.20660  Biso   1.000  H
  N32      1.0000 0.85800  0.91430  0.36760  Biso   1.000  N
  O62      1.0000 0.30700  0.69350  0.19549  Biso   1.000  O
  C348     1.0000 0.86420  0.76950  0.22610  Biso   1.000  C
  O63      1.0000 0.32040  0.53540  0.35514  Biso   1.000  O
  C349     1.0000 0.92220  0.81490  0.22430  Biso   1.000  C
  H273     1.0000 0.90890  0.84860  0.23800  Biso   1.000  H
  O64      1.0000 0.42050  0.57300  0.31460  Biso   1.000  O
  H274     1.0000 0.22900  0.72500  0.10300  Biso   1.000  H
  C350     1.0000 0.99810  0.81130  0.20300  Biso   1.000  C
  H275     1.0000 0.03410  0.84310  0.20290  Biso   1.000  H
  C351     1.0000 0.78530  0.77390  0.25100  Biso   1.000  C
  H276     1.0000 0.75800  0.81100  0.24610  Biso   1.000  H
  C352     1.0000 0.79600  0.76410  0.29840  Biso   1.000  C
  H277     1.0000 0.83980  0.73460  0.30320  Biso   1.000  H
  C353     1.0000 0.81620  0.81540  0.32410  Biso   1.000  C
  C354     1.0000 0.76000  0.86240  0.32590  Biso   1.000  C
  H278     1.0000 0.70720  0.86130  0.31220  Biso   1.000  H
  C355     1.0000 0.78280  0.90860  0.34740  Biso   1.000  C
  H279     1.0000 0.74390  0.93880  0.34850  Biso   1.000  H
  C356     1.0000 0.91270  0.87030  0.36580  Biso   1.000  C
  H280     1.0000 0.96530  0.87300  0.37950  Biso   1.000  H
  C357     1.0000 0.89320  0.82000  0.34390  Biso   1.000  C
  H281     1.0000 0.93280  0.79020  0.34300  Biso   1.000  H
  C358     1.0000 0.21880  0.63870  0.23910  Biso   1.000  C
  C359     1.0000 0.13230  0.61210  0.24470  Biso   1.000  C
  H282     1.0000 0.08970  0.61420  0.22460  Biso   1.000  H
  C360     1.0000 0.11890  0.58380  0.28190  Biso   1.000  C
  H283     1.0000 0.06270  0.57590  0.29030  Biso   1.000  H
  C361     1.0000 0.18530  0.56760  0.30570  Biso   1.000  C
  H284     1.0000 0.17430  0.54400  0.32810  Biso   1.000  H
  C362     1.0000 0.27210  0.58520  0.29800  Biso   1.000  C
  C363     1.0000 0.28550  0.61940  0.26300  Biso   1.000  C
  H285     1.0000 0.34170  0.62930  0.25590  Biso   1.000  H
  C364     1.0000 0.23200  0.67520  0.20210  Biso   1.000  C
  C365     1.0000 0.34290  0.56260  0.32430  Biso   1.000  C
  C366     1.0000 0.61580  0.88490  0.00460  Biso   1.000  C
  C367     1.0000 0.63100  0.87170  0.04730  Biso   1.000  C
  C368     1.0000 0.56370  0.84740  0.06860  Biso   1.000  C
  H286     1.0000 0.66230  0.89100  0.98700  Biso   1.000  H
  H287     1.0000 0.68400  0.87920  0.05980  Biso   1.000  H
  H288     1.0000 0.57090  0.83840  0.09630  Biso   1.000  H
  O65      1.0000 0.50000  0.00000  0.86270  Biso   1.000  O
  O66      1.0000 0.50000  0.50000  0.36270  Biso   1.000  O
  O67      1.0000 0.00000  0.00000  0.36270  Biso   1.000  O
  O68      1.0000 0.00000  0.50000  0.86270  Biso   1.000  O
  O69      1.0000 0.75000  0.25000  0.11270  Biso   1.000  O
  O70      1.0000 0.75000  0.75000  0.61270  Biso   1.000  O
  O71      1.0000 0.25000  0.25000  0.61270  Biso   1.000  O
  O72      1.0000 0.25000  0.75000  0.11270  Biso   1.000  O
