data_image0
_cell_length_a       32.1597
_cell_length_b       32.1597
_cell_length_c       32.1597
_cell_angle_alpha    90
_cell_angle_beta     90
_cell_angle_gamma    90

_symmetry_space_group_name_H-M    "P 1"
_symmetry_int_tables_number       1

loop_
  _symmetry_equiv_pos_as_xyz
  'x, y, z'

loop_
  _atom_site_label
  _atom_site_occupancy
  _atom_site_fract_x
  _atom_site_fract_y
  _atom_site_fract_z
  _atom_site_thermal_displace_type
  _atom_site_B_iso_or_equiv
  _atom_site_type_symbol
  O1       1.0000 0.83610  0.05090  0.90030  Biso   1.000  O
  C1       1.0000 0.83040  0.04120  0.01010  Biso   1.000  C
  H1       1.0000 0.82960  0.06960  0.01820  Biso   1.000  H
  C2       1.0000 0.68480  0.78770  0.63960  Biso   1.000  C
  H2       1.0000 0.68390  0.78580  0.61020  Biso   1.000  H
  C3       1.0000 0.70500  0.82150  0.65750  Biso   1.000  C
  H3       1.0000 0.72810  0.83630  0.63970  Biso   1.000  H
  C4       1.0000 0.70200  0.82620  0.70050  Biso   1.000  C
  C5       1.0000 0.68600  0.79700  0.72560  Biso   1.000  C
  H4       1.0000 0.69760  0.79680  0.75450  Biso   1.000  H
  C6       1.0000 0.66580  0.76320  0.70770  Biso   1.000  C
  H5       1.0000 0.65310  0.74630  0.72590  Biso   1.000  H
  C7       1.0000 0.74110  0.90050  0.78050  Biso   1.000  C
  H6       1.0000 0.74340  0.90230  0.80990  Biso   1.000  H
  C8       1.0000 0.72300  0.86580  0.76230  Biso   1.000  C
  H7       1.0000 0.71280  0.84380  0.77930  Biso   1.000  H
  C9       1.0000 0.73450  0.89520  0.69440  Biso   1.000  C
  H8       1.0000 0.73230  0.89340  0.66510  Biso   1.000  H
  C10      1.0000 0.75270  0.93000  0.71260  Biso   1.000  C
  H9       1.0000 0.76290  0.95190  0.69570  Biso   1.000  H
  C11      1.0000 0.81310  0.98550  0.75990  Biso   1.000  C
  H10      1.0000 0.82430  0.97450  0.73490  Biso   1.000  H
  C12      1.0000 0.83280  0.01770  0.78020  Biso   1.000  C
  H11      1.0000 0.85770  0.02920  0.76910  Biso   1.000  H
  O2       1.0000 0.78300  0.10320  0.85350  Biso   1.000  O
  O3       1.0000 0.61380  0.66640  0.70660  Biso   1.000  O
  O4       1.0000 0.33610  0.55090  0.40030  Biso   1.000  O
  C13      1.0000 0.33040  0.54120  0.51010  Biso   1.000  C
  H12      1.0000 0.32960  0.56960  0.51820  Biso   1.000  H
  C14      1.0000 0.18480  0.28770  0.13960  Biso   1.000  C
  H13      1.0000 0.18390  0.28580  0.11020  Biso   1.000  H
  C15      1.0000 0.20500  0.32150  0.15750  Biso   1.000  C
  H14      1.0000 0.22810  0.33630  0.13970  Biso   1.000  H
  C16      1.0000 0.20200  0.32620  0.20050  Biso   1.000  C
  C17      1.0000 0.18600  0.29700  0.22560  Biso   1.000  C
  H15      1.0000 0.19760  0.29680  0.25450  Biso   1.000  H
  C18      1.0000 0.16580  0.26320  0.20770  Biso   1.000  C
  H16      1.0000 0.15310  0.24630  0.22590  Biso   1.000  H
  C19      1.0000 0.24110  0.40050  0.28050  Biso   1.000  C
  H17      1.0000 0.24340  0.40230  0.30990  Biso   1.000  H
  C20      1.0000 0.22300  0.36580  0.26230  Biso   1.000  C
  H18      1.0000 0.21280  0.34380  0.27930  Biso   1.000  H
  C21      1.0000 0.23450  0.39520  0.19440  Biso   1.000  C
  H19      1.0000 0.23230  0.39340  0.16510  Biso   1.000  H
  C22      1.0000 0.25270  0.43000  0.21260  Biso   1.000  C
  H20      1.0000 0.26290  0.45190  0.19570  Biso   1.000  H
  C23      1.0000 0.31310  0.48550  0.25990  Biso   1.000  C
  H21      1.0000 0.32430  0.47450  0.23490  Biso   1.000  H
  C24      1.0000 0.33280  0.51770  0.28020  Biso   1.000  C
  H22      1.0000 0.35770  0.52920  0.26910  Biso   1.000  H
  O5       1.0000 0.28300  0.60320  0.35350  Biso   1.000  O
  O6       1.0000 0.11380  0.16640  0.20660  Biso   1.000  O
  O7       1.0000 0.16390  0.94910  0.90030  Biso   1.000  O
  C25      1.0000 0.16960  0.95880  0.01010  Biso   1.000  C
  H23      1.0000 0.17040  0.93040  0.01820  Biso   1.000  H
  C26      1.0000 0.31520  0.21230  0.63960  Biso   1.000  C
  H24      1.0000 0.31610  0.21420  0.61020  Biso   1.000  H
  C27      1.0000 0.29500  0.17850  0.65750  Biso   1.000  C
  H25      1.0000 0.27190  0.16370  0.63970  Biso   1.000  H
  C28      1.0000 0.29800  0.17380  0.70050  Biso   1.000  C
  C29      1.0000 0.31400  0.20300  0.72560  Biso   1.000  C
  H26      1.0000 0.30240  0.20320  0.75450  Biso   1.000  H
  C30      1.0000 0.33420  0.23680  0.70770  Biso   1.000  C
  H27      1.0000 0.34690  0.25370  0.72590  Biso   1.000  H
  C31      1.0000 0.25890  0.09950  0.78050  Biso   1.000  C
  H28      1.0000 0.25660  0.09770  0.80990  Biso   1.000  H
  C32      1.0000 0.27700  0.13420  0.76230  Biso   1.000  C
  H29      1.0000 0.28720  0.15620  0.77930  Biso   1.000  H
  C33      1.0000 0.26550  0.10480  0.69440  Biso   1.000  C
  H30      1.0000 0.26770  0.10660  0.66510  Biso   1.000  H
  C34      1.0000 0.24730  0.07000  0.71260  Biso   1.000  C
  H31      1.0000 0.23710  0.04810  0.69570  Biso   1.000  H
  C35      1.0000 0.18690  0.01450  0.75990  Biso   1.000  C
  H32      1.0000 0.17570  0.02550  0.73490  Biso   1.000  H
  C36      1.0000 0.16720  0.98230  0.78020  Biso   1.000  C
  H33      1.0000 0.14230  0.97080  0.76910  Biso   1.000  H
  O8       1.0000 0.21700  0.89680  0.85350  Biso   1.000  O
  O9       1.0000 0.38620  0.33360  0.70660  Biso   1.000  O
  O10      1.0000 0.66390  0.44910  0.40030  Biso   1.000  O
  C37      1.0000 0.66960  0.45880  0.51010  Biso   1.000  C
  H34      1.0000 0.67040  0.43040  0.51820  Biso   1.000  H
  C38      1.0000 0.81520  0.71230  0.13960  Biso   1.000  C
  H35      1.0000 0.81610  0.71420  0.11020  Biso   1.000  H
  C39      1.0000 0.79500  0.67850  0.15750  Biso   1.000  C
  H36      1.0000 0.77190  0.66370  0.13970  Biso   1.000  H
  C40      1.0000 0.79800  0.67380  0.20050  Biso   1.000  C
  C41      1.0000 0.81400  0.70300  0.22560  Biso   1.000  C
  H37      1.0000 0.80240  0.70320  0.25450  Biso   1.000  H
  C42      1.0000 0.83420  0.73680  0.20770  Biso   1.000  C
  H38      1.0000 0.84690  0.75370  0.22590  Biso   1.000  H
  C43      1.0000 0.75890  0.59950  0.28050  Biso   1.000  C
  H39      1.0000 0.75660  0.59770  0.30990  Biso   1.000  H
  C44      1.0000 0.77700  0.63420  0.26230  Biso   1.000  C
  H40      1.0000 0.78720  0.65620  0.27930  Biso   1.000  H
  C45      1.0000 0.76550  0.60480  0.19440  Biso   1.000  C
  H41      1.0000 0.76770  0.60660  0.16510  Biso   1.000  H
  C46      1.0000 0.74730  0.57000  0.21260  Biso   1.000  C
  H42      1.0000 0.73710  0.54810  0.19570  Biso   1.000  H
  C47      1.0000 0.68690  0.51450  0.25990  Biso   1.000  C
  H43      1.0000 0.67570  0.52550  0.23490  Biso   1.000  H
  C48      1.0000 0.66720  0.48230  0.28020  Biso   1.000  C
  H44      1.0000 0.64230  0.47080  0.26910  Biso   1.000  H
  O11      1.0000 0.71700  0.39680  0.35350  Biso   1.000  O
  O12      1.0000 0.88620  0.83360  0.20660  Biso   1.000  O
  O13      1.0000 0.16390  0.05090  0.09970  Biso   1.000  O
  C49      1.0000 0.16960  0.04120  0.98990  Biso   1.000  C
  H45      1.0000 0.17040  0.06960  0.98180  Biso   1.000  H
  C50      1.0000 0.31520  0.78770  0.36040  Biso   1.000  C
  H46      1.0000 0.31610  0.78580  0.38980  Biso   1.000  H
  C51      1.0000 0.29500  0.82150  0.34250  Biso   1.000  C
  H47      1.0000 0.27190  0.83630  0.36030  Biso   1.000  H
  C52      1.0000 0.29800  0.82620  0.29950  Biso   1.000  C
  C53      1.0000 0.31400  0.79700  0.27440  Biso   1.000  C
  H48      1.0000 0.30240  0.79680  0.24550  Biso   1.000  H
  C54      1.0000 0.33420  0.76320  0.29230  Biso   1.000  C
  H49      1.0000 0.34690  0.74630  0.27410  Biso   1.000  H
  C55      1.0000 0.25890  0.90050  0.21950  Biso   1.000  C
  H50      1.0000 0.25660  0.90230  0.19010  Biso   1.000  H
  C56      1.0000 0.27700  0.86580  0.23770  Biso   1.000  C
  H51      1.0000 0.28720  0.84380  0.22070  Biso   1.000  H
  C57      1.0000 0.26550  0.89520  0.30560  Biso   1.000  C
  H52      1.0000 0.26770  0.89340  0.33490  Biso   1.000  H
  C58      1.0000 0.24730  0.93000  0.28740  Biso   1.000  C
  H53      1.0000 0.23710  0.95190  0.30430  Biso   1.000  H
  C59      1.0000 0.18690  0.98550  0.24010  Biso   1.000  C
  H54      1.0000 0.17570  0.97450  0.26510  Biso   1.000  H
  C60      1.0000 0.16720  0.01770  0.21980  Biso   1.000  C
  H55      1.0000 0.14230  0.02920  0.23090  Biso   1.000  H
  O14      1.0000 0.21700  0.10320  0.14650  Biso   1.000  O
  O15      1.0000 0.38620  0.66640  0.29340  Biso   1.000  O
  O16      1.0000 0.66390  0.55090  0.59970  Biso   1.000  O
  C61      1.0000 0.66960  0.54120  0.48990  Biso   1.000  C
  H56      1.0000 0.67040  0.56960  0.48180  Biso   1.000  H
  C62      1.0000 0.81520  0.28770  0.86040  Biso   1.000  C
  H57      1.0000 0.81610  0.28580  0.88980  Biso   1.000  H
  C63      1.0000 0.79500  0.32150  0.84250  Biso   1.000  C
  H58      1.0000 0.77190  0.33630  0.86030  Biso   1.000  H
  C64      1.0000 0.79800  0.32620  0.79950  Biso   1.000  C
  C65      1.0000 0.81400  0.29700  0.77440  Biso   1.000  C
  H59      1.0000 0.80240  0.29680  0.74550  Biso   1.000  H
  C66      1.0000 0.83420  0.26320  0.79230  Biso   1.000  C
  H60      1.0000 0.84690  0.24630  0.77410  Biso   1.000  H
  C67      1.0000 0.75890  0.40050  0.71950  Biso   1.000  C
  H61      1.0000 0.75660  0.40230  0.69010  Biso   1.000  H
  C68      1.0000 0.77700  0.36580  0.73770  Biso   1.000  C
  H62      1.0000 0.78720  0.34380  0.72070  Biso   1.000  H
  C69      1.0000 0.76550  0.39520  0.80560  Biso   1.000  C
  H63      1.0000 0.76770  0.39340  0.83490  Biso   1.000  H
  C70      1.0000 0.74730  0.43000  0.78740  Biso   1.000  C
  H64      1.0000 0.73710  0.45190  0.80430  Biso   1.000  H
  C71      1.0000 0.68690  0.48550  0.74010  Biso   1.000  C
  H65      1.0000 0.67570  0.47450  0.76510  Biso   1.000  H
  C72      1.0000 0.66720  0.51770  0.71980  Biso   1.000  C
  H66      1.0000 0.64230  0.52920  0.73090  Biso   1.000  H
  O17      1.0000 0.71700  0.60320  0.64650  Biso   1.000  O
  O18      1.0000 0.88620  0.16640  0.79340  Biso   1.000  O
  O19      1.0000 0.83610  0.94910  0.09970  Biso   1.000  O
  C73      1.0000 0.83040  0.95880  0.98990  Biso   1.000  C
  H67      1.0000 0.82960  0.93040  0.98180  Biso   1.000  H
  C74      1.0000 0.68480  0.21230  0.36040  Biso   1.000  C
  H68      1.0000 0.68390  0.21420  0.38980  Biso   1.000  H
  C75      1.0000 0.70500  0.17850  0.34250  Biso   1.000  C
  H69      1.0000 0.72810  0.16370  0.36030  Biso   1.000  H
  C76      1.0000 0.70200  0.17380  0.29950  Biso   1.000  C
  C77      1.0000 0.68600  0.20300  0.27440  Biso   1.000  C
  H70      1.0000 0.69760  0.20320  0.24550  Biso   1.000  H
  C78      1.0000 0.66580  0.23680  0.29230  Biso   1.000  C
  H71      1.0000 0.65310  0.25370  0.27410  Biso   1.000  H
  C79      1.0000 0.74110  0.09950  0.21950  Biso   1.000  C
  H72      1.0000 0.74340  0.09770  0.19010  Biso   1.000  H
  C80      1.0000 0.72300  0.13420  0.23770  Biso   1.000  C
  H73      1.0000 0.71280  0.15620  0.22070  Biso   1.000  H
  C81      1.0000 0.73450  0.10480  0.30560  Biso   1.000  C
  H74      1.0000 0.73230  0.10660  0.33490  Biso   1.000  H
  C82      1.0000 0.75270  0.07000  0.28740  Biso   1.000  C
  H75      1.0000 0.76290  0.04810  0.30430  Biso   1.000  H
  C83      1.0000 0.81310  0.01450  0.24010  Biso   1.000  C
  H76      1.0000 0.82430  0.02550  0.26510  Biso   1.000  H
  C84      1.0000 0.83280  0.98230  0.21980  Biso   1.000  C
  H77      1.0000 0.85770  0.97080  0.23090  Biso   1.000  H
  O20      1.0000 0.78300  0.89680  0.14650  Biso   1.000  O
  O21      1.0000 0.61380  0.33360  0.29340  Biso   1.000  O
  O22      1.0000 0.33610  0.44910  0.59970  Biso   1.000  O
  C85      1.0000 0.33040  0.45880  0.48990  Biso   1.000  C
  H78      1.0000 0.32960  0.43040  0.48180  Biso   1.000  H
  C86      1.0000 0.18480  0.71230  0.86040  Biso   1.000  C
  H79      1.0000 0.18390  0.71420  0.88980  Biso   1.000  H
  C87      1.0000 0.20500  0.67850  0.84250  Biso   1.000  C
  H80      1.0000 0.22810  0.66370  0.86030  Biso   1.000  H
  C88      1.0000 0.20200  0.67380  0.79950  Biso   1.000  C
  C89      1.0000 0.18600  0.70300  0.77440  Biso   1.000  C
  H81      1.0000 0.19760  0.70320  0.74550  Biso   1.000  H
  C90      1.0000 0.16580  0.73680  0.79230  Biso   1.000  C
  H82      1.0000 0.15310  0.75370  0.77410  Biso   1.000  H
  C91      1.0000 0.24110  0.59950  0.71950  Biso   1.000  C
  H83      1.0000 0.24340  0.59770  0.69010  Biso   1.000  H
  C92      1.0000 0.22300  0.63420  0.73770  Biso   1.000  C
  H84      1.0000 0.21280  0.65620  0.72070  Biso   1.000  H
  C93      1.0000 0.23450  0.60480  0.80560  Biso   1.000  C
  H85      1.0000 0.23230  0.60660  0.83490  Biso   1.000  H
  C94      1.0000 0.25270  0.57000  0.78740  Biso   1.000  C
  H86      1.0000 0.26290  0.54810  0.80430  Biso   1.000  H
  C95      1.0000 0.31310  0.51450  0.74010  Biso   1.000  C
  H87      1.0000 0.32430  0.52550  0.76510  Biso   1.000  H
  C96      1.0000 0.33280  0.48230  0.71980  Biso   1.000  C
  H88      1.0000 0.35770  0.47080  0.73090  Biso   1.000  H
  O23      1.0000 0.28300  0.39680  0.64650  Biso   1.000  O
  O24      1.0000 0.11380  0.83360  0.79340  Biso   1.000  O
  O25      1.0000 0.90030  0.83610  0.05090  Biso   1.000  O
  C97      1.0000 0.01010  0.83040  0.04120  Biso   1.000  C
  H89      1.0000 0.01820  0.82960  0.06960  Biso   1.000  H
  C98      1.0000 0.63960  0.68480  0.78770  Biso   1.000  C
  H90      1.0000 0.61020  0.68390  0.78580  Biso   1.000  H
  C99      1.0000 0.65750  0.70500  0.82150  Biso   1.000  C
  H91      1.0000 0.63970  0.72810  0.83630  Biso   1.000  H
  C100     1.0000 0.70050  0.70200  0.82620  Biso   1.000  C
  C101     1.0000 0.72560  0.68600  0.79700  Biso   1.000  C
  H92      1.0000 0.75450  0.69760  0.79680  Biso   1.000  H
  C102     1.0000 0.70770  0.66580  0.76320  Biso   1.000  C
  H93      1.0000 0.72590  0.65310  0.74630  Biso   1.000  H
  C103     1.0000 0.78050  0.74110  0.90050  Biso   1.000  C
  H94      1.0000 0.80990  0.74340  0.90230  Biso   1.000  H
  C104     1.0000 0.76230  0.72300  0.86580  Biso   1.000  C
  H95      1.0000 0.77930  0.71280  0.84380  Biso   1.000  H
  C105     1.0000 0.69440  0.73450  0.89520  Biso   1.000  C
  H96      1.0000 0.66510  0.73230  0.89340  Biso   1.000  H
  C106     1.0000 0.71260  0.75270  0.93000  Biso   1.000  C
  H97      1.0000 0.69570  0.76290  0.95190  Biso   1.000  H
  C107     1.0000 0.75990  0.81310  0.98550  Biso   1.000  C
  H98      1.0000 0.73490  0.82430  0.97450  Biso   1.000  H
  C108     1.0000 0.78020  0.83280  0.01770  Biso   1.000  C
  H99      1.0000 0.76910  0.85770  0.02920  Biso   1.000  H
  O26      1.0000 0.85350  0.78300  0.10320  Biso   1.000  O
  O27      1.0000 0.70660  0.61380  0.66640  Biso   1.000  O
  O28      1.0000 0.40030  0.33610  0.55090  Biso   1.000  O
  C109     1.0000 0.51010  0.33040  0.54120  Biso   1.000  C
  H100     1.0000 0.51820  0.32960  0.56960  Biso   1.000  H
  C110     1.0000 0.13960  0.18480  0.28770  Biso   1.000  C
  H101     1.0000 0.11020  0.18390  0.28580  Biso   1.000  H
  C111     1.0000 0.15750  0.20500  0.32150  Biso   1.000  C
  H102     1.0000 0.13970  0.22810  0.33630  Biso   1.000  H
  C112     1.0000 0.20050  0.20200  0.32620  Biso   1.000  C
  C113     1.0000 0.22560  0.18600  0.29700  Biso   1.000  C
  H103     1.0000 0.25450  0.19760  0.29680  Biso   1.000  H
  C114     1.0000 0.20770  0.16580  0.26320  Biso   1.000  C
  H104     1.0000 0.22590  0.15310  0.24630  Biso   1.000  H
  C115     1.0000 0.28050  0.24110  0.40050  Biso   1.000  C
  H105     1.0000 0.30990  0.24340  0.40230  Biso   1.000  H
  C116     1.0000 0.26230  0.22300  0.36580  Biso   1.000  C
  H106     1.0000 0.27930  0.21280  0.34380  Biso   1.000  H
  C117     1.0000 0.19440  0.23450  0.39520  Biso   1.000  C
  H107     1.0000 0.16510  0.23230  0.39340  Biso   1.000  H
  C118     1.0000 0.21260  0.25270  0.43000  Biso   1.000  C
  H108     1.0000 0.19570  0.26290  0.45190  Biso   1.000  H
  C119     1.0000 0.25990  0.31310  0.48550  Biso   1.000  C
  H109     1.0000 0.23490  0.32430  0.47450  Biso   1.000  H
  C120     1.0000 0.28020  0.33280  0.51770  Biso   1.000  C
  H110     1.0000 0.26910  0.35770  0.52920  Biso   1.000  H
  O29      1.0000 0.35350  0.28300  0.60320  Biso   1.000  O
  O30      1.0000 0.20660  0.11380  0.16640  Biso   1.000  O
  O31      1.0000 0.90030  0.16390  0.94910  Biso   1.000  O
  C121     1.0000 0.01010  0.16960  0.95880  Biso   1.000  C
  H111     1.0000 0.01820  0.17040  0.93040  Biso   1.000  H
  C122     1.0000 0.63960  0.31520  0.21230  Biso   1.000  C
  H112     1.0000 0.61020  0.31610  0.21420  Biso   1.000  H
  C123     1.0000 0.65750  0.29500  0.17850  Biso   1.000  C
  H113     1.0000 0.63970  0.27190  0.16370  Biso   1.000  H
  C124     1.0000 0.70050  0.29800  0.17380  Biso   1.000  C
  C125     1.0000 0.72560  0.31400  0.20300  Biso   1.000  C
  H114     1.0000 0.75450  0.30240  0.20320  Biso   1.000  H
  C126     1.0000 0.70770  0.33420  0.23680  Biso   1.000  C
  H115     1.0000 0.72590  0.34690  0.25370  Biso   1.000  H
  C127     1.0000 0.78050  0.25890  0.09950  Biso   1.000  C
  H116     1.0000 0.80990  0.25660  0.09770  Biso   1.000  H
  C128     1.0000 0.76230  0.27700  0.13420  Biso   1.000  C
  H117     1.0000 0.77930  0.28720  0.15620  Biso   1.000  H
  C129     1.0000 0.69440  0.26550  0.10480  Biso   1.000  C
  H118     1.0000 0.66510  0.26770  0.10660  Biso   1.000  H
  C130     1.0000 0.71260  0.24730  0.07000  Biso   1.000  C
  H119     1.0000 0.69570  0.23710  0.04810  Biso   1.000  H
  C131     1.0000 0.75990  0.18690  0.01450  Biso   1.000  C
  H120     1.0000 0.73490  0.17570  0.02550  Biso   1.000  H
  C132     1.0000 0.78020  0.16720  0.98230  Biso   1.000  C
  H121     1.0000 0.76910  0.14230  0.97080  Biso   1.000  H
  O32      1.0000 0.85350  0.21700  0.89680  Biso   1.000  O
  O33      1.0000 0.70660  0.38620  0.33360  Biso   1.000  O
  O34      1.0000 0.40030  0.66390  0.44910  Biso   1.000  O
  C133     1.0000 0.51010  0.66960  0.45880  Biso   1.000  C
  H122     1.0000 0.51820  0.67040  0.43040  Biso   1.000  H
  C134     1.0000 0.13960  0.81520  0.71230  Biso   1.000  C
  H123     1.0000 0.11020  0.81610  0.71420  Biso   1.000  H
  C135     1.0000 0.15750  0.79500  0.67850  Biso   1.000  C
  H124     1.0000 0.13970  0.77190  0.66370  Biso   1.000  H
  C136     1.0000 0.20050  0.79800  0.67380  Biso   1.000  C
  C137     1.0000 0.22560  0.81400  0.70300  Biso   1.000  C
  H125     1.0000 0.25450  0.80240  0.70320  Biso   1.000  H
  C138     1.0000 0.20770  0.83420  0.73680  Biso   1.000  C
  H126     1.0000 0.22590  0.84690  0.75370  Biso   1.000  H
  C139     1.0000 0.28050  0.75890  0.59950  Biso   1.000  C
  H127     1.0000 0.30990  0.75660  0.59770  Biso   1.000  H
  C140     1.0000 0.26230  0.77700  0.63420  Biso   1.000  C
  H128     1.0000 0.27930  0.78720  0.65620  Biso   1.000  H
  C141     1.0000 0.19440  0.76550  0.60480  Biso   1.000  C
  H129     1.0000 0.16510  0.76770  0.60660  Biso   1.000  H
  C142     1.0000 0.21260  0.74730  0.57000  Biso   1.000  C
  H130     1.0000 0.19570  0.73710  0.54810  Biso   1.000  H
  C143     1.0000 0.25990  0.68690  0.51450  Biso   1.000  C
  H131     1.0000 0.23490  0.67570  0.52550  Biso   1.000  H
  C144     1.0000 0.28020  0.66720  0.48230  Biso   1.000  C
  H132     1.0000 0.26910  0.64230  0.47080  Biso   1.000  H
  O35      1.0000 0.35350  0.71700  0.39680  Biso   1.000  O
  O36      1.0000 0.20660  0.88620  0.83360  Biso   1.000  O
  O37      1.0000 0.09970  0.16390  0.05090  Biso   1.000  O
  C145     1.0000 0.98990  0.16960  0.04120  Biso   1.000  C
  H133     1.0000 0.98180  0.17040  0.06960  Biso   1.000  H
  C146     1.0000 0.36040  0.31520  0.78770  Biso   1.000  C
  H134     1.0000 0.38980  0.31610  0.78580  Biso   1.000  H
  C147     1.0000 0.34250  0.29500  0.82150  Biso   1.000  C
  H135     1.0000 0.36030  0.27190  0.83630  Biso   1.000  H
  C148     1.0000 0.29950  0.29800  0.82620  Biso   1.000  C
  C149     1.0000 0.27440  0.31400  0.79700  Biso   1.000  C
  H136     1.0000 0.24550  0.30240  0.79680  Biso   1.000  H
  C150     1.0000 0.29230  0.33420  0.76320  Biso   1.000  C
  H137     1.0000 0.27410  0.34690  0.74630  Biso   1.000  H
  C151     1.0000 0.21950  0.25890  0.90050  Biso   1.000  C
  H138     1.0000 0.19010  0.25660  0.90230  Biso   1.000  H
  C152     1.0000 0.23770  0.27700  0.86580  Biso   1.000  C
  H139     1.0000 0.22070  0.28720  0.84380  Biso   1.000  H
  C153     1.0000 0.30560  0.26550  0.89520  Biso   1.000  C
  H140     1.0000 0.33490  0.26770  0.89340  Biso   1.000  H
  C154     1.0000 0.28740  0.24730  0.93000  Biso   1.000  C
  H141     1.0000 0.30430  0.23710  0.95190  Biso   1.000  H
  C155     1.0000 0.24010  0.18690  0.98550  Biso   1.000  C
  H142     1.0000 0.26510  0.17570  0.97450  Biso   1.000  H
  C156     1.0000 0.21980  0.16720  0.01770  Biso   1.000  C
  H143     1.0000 0.23090  0.14230  0.02920  Biso   1.000  H
  O38      1.0000 0.14650  0.21700  0.10320  Biso   1.000  O
  O39      1.0000 0.29340  0.38620  0.66640  Biso   1.000  O
  O40      1.0000 0.59970  0.66390  0.55090  Biso   1.000  O
  C157     1.0000 0.48990  0.66960  0.54120  Biso   1.000  C
  H144     1.0000 0.48180  0.67040  0.56960  Biso   1.000  H
  C158     1.0000 0.86040  0.81520  0.28770  Biso   1.000  C
  H145     1.0000 0.88980  0.81610  0.28580  Biso   1.000  H
  C159     1.0000 0.84250  0.79500  0.32150  Biso   1.000  C
  H146     1.0000 0.86030  0.77190  0.33630  Biso   1.000  H
  C160     1.0000 0.79950  0.79800  0.32620  Biso   1.000  C
  C161     1.0000 0.77440  0.81400  0.29700  Biso   1.000  C
  H147     1.0000 0.74550  0.80240  0.29680  Biso   1.000  H
  C162     1.0000 0.79230  0.83420  0.26320  Biso   1.000  C
  H148     1.0000 0.77410  0.84690  0.24630  Biso   1.000  H
  C163     1.0000 0.71950  0.75890  0.40050  Biso   1.000  C
  H149     1.0000 0.69010  0.75660  0.40230  Biso   1.000  H
  C164     1.0000 0.73770  0.77700  0.36580  Biso   1.000  C
  H150     1.0000 0.72070  0.78720  0.34380  Biso   1.000  H
  C165     1.0000 0.80560  0.76550  0.39520  Biso   1.000  C
  H151     1.0000 0.83490  0.76770  0.39340  Biso   1.000  H
  C166     1.0000 0.78740  0.74730  0.43000  Biso   1.000  C
  H152     1.0000 0.80430  0.73710  0.45190  Biso   1.000  H
  C167     1.0000 0.74010  0.68690  0.48550  Biso   1.000  C
  H153     1.0000 0.76510  0.67570  0.47450  Biso   1.000  H
  C168     1.0000 0.71980  0.66720  0.51770  Biso   1.000  C
  H154     1.0000 0.73090  0.64230  0.52920  Biso   1.000  H
  O41      1.0000 0.64650  0.71700  0.60320  Biso   1.000  O
  O42      1.0000 0.79340  0.88620  0.16640  Biso   1.000  O
  O43      1.0000 0.09970  0.83610  0.94910  Biso   1.000  O
  C169     1.0000 0.98990  0.83040  0.95880  Biso   1.000  C
  H155     1.0000 0.98180  0.82960  0.93040  Biso   1.000  H
  C170     1.0000 0.36040  0.68480  0.21230  Biso   1.000  C
  H156     1.0000 0.38980  0.68390  0.21420  Biso   1.000  H
  C171     1.0000 0.34250  0.70500  0.17850  Biso   1.000  C
  H157     1.0000 0.36030  0.72810  0.16370  Biso   1.000  H
  C172     1.0000 0.29950  0.70200  0.17380  Biso   1.000  C
  C173     1.0000 0.27440  0.68600  0.20300  Biso   1.000  C
  H158     1.0000 0.24550  0.69760  0.20320  Biso   1.000  H
  C174     1.0000 0.29230  0.66580  0.23680  Biso   1.000  C
  H159     1.0000 0.27410  0.65310  0.25370  Biso   1.000  H
  C175     1.0000 0.21950  0.74110  0.09950  Biso   1.000  C
  H160     1.0000 0.19010  0.74340  0.09770  Biso   1.000  H
  C176     1.0000 0.23770  0.72300  0.13420  Biso   1.000  C
  H161     1.0000 0.22070  0.71280  0.15620  Biso   1.000  H
  C177     1.0000 0.30560  0.73450  0.10480  Biso   1.000  C
  H162     1.0000 0.33490  0.73230  0.10660  Biso   1.000  H
  C178     1.0000 0.28740  0.75270  0.07000  Biso   1.000  C
  H163     1.0000 0.30430  0.76290  0.04810  Biso   1.000  H
  C179     1.0000 0.24010  0.81310  0.01450  Biso   1.000  C
  H164     1.0000 0.26510  0.82430  0.02550  Biso   1.000  H
  C180     1.0000 0.21980  0.83280  0.98230  Biso   1.000  C
  H165     1.0000 0.23090  0.85770  0.97080  Biso   1.000  H
  O44      1.0000 0.14650  0.78300  0.89680  Biso   1.000  O
  O45      1.0000 0.29340  0.61380  0.33360  Biso   1.000  O
  O46      1.0000 0.59970  0.33610  0.44910  Biso   1.000  O
  C181     1.0000 0.48990  0.33040  0.45880  Biso   1.000  C
  H166     1.0000 0.48180  0.32960  0.43040  Biso   1.000  H
  C182     1.0000 0.86040  0.18480  0.71230  Biso   1.000  C
  H167     1.0000 0.88980  0.18390  0.71420  Biso   1.000  H
  C183     1.0000 0.84250  0.20500  0.67850  Biso   1.000  C
  H168     1.0000 0.86030  0.22810  0.66370  Biso   1.000  H
  C184     1.0000 0.79950  0.20200  0.67380  Biso   1.000  C
  C185     1.0000 0.77440  0.18600  0.70300  Biso   1.000  C
  H169     1.0000 0.74550  0.19760  0.70320  Biso   1.000  H
  C186     1.0000 0.79230  0.16580  0.73680  Biso   1.000  C
  H170     1.0000 0.77410  0.15310  0.75370  Biso   1.000  H
  C187     1.0000 0.71950  0.24110  0.59950  Biso   1.000  C
  H171     1.0000 0.69010  0.24340  0.59770  Biso   1.000  H
  C188     1.0000 0.73770  0.22300  0.63420  Biso   1.000  C
  H172     1.0000 0.72070  0.21280  0.65620  Biso   1.000  H
  C189     1.0000 0.80560  0.23450  0.60480  Biso   1.000  C
  H173     1.0000 0.83490  0.23230  0.60660  Biso   1.000  H
  C190     1.0000 0.78740  0.25270  0.57000  Biso   1.000  C
  H174     1.0000 0.80430  0.26290  0.54810  Biso   1.000  H
  C191     1.0000 0.74010  0.31310  0.51450  Biso   1.000  C
  H175     1.0000 0.76510  0.32430  0.52550  Biso   1.000  H
  C192     1.0000 0.71980  0.33280  0.48230  Biso   1.000  C
  H176     1.0000 0.73090  0.35770  0.47080  Biso   1.000  H
  O47      1.0000 0.64650  0.28300  0.39680  Biso   1.000  O
  O48      1.0000 0.79340  0.11380  0.83360  Biso   1.000  O
  O49      1.0000 0.05090  0.90030  0.83610  Biso   1.000  O
  C193     1.0000 0.04120  0.01010  0.83040  Biso   1.000  C
  H177     1.0000 0.06960  0.01820  0.82960  Biso   1.000  H
  C194     1.0000 0.78770  0.63960  0.68480  Biso   1.000  C
  H178     1.0000 0.78580  0.61020  0.68390  Biso   1.000  H
  C195     1.0000 0.82150  0.65750  0.70500  Biso   1.000  C
  H179     1.0000 0.83630  0.63970  0.72810  Biso   1.000  H
  C196     1.0000 0.82620  0.70050  0.70200  Biso   1.000  C
  C197     1.0000 0.79700  0.72560  0.68600  Biso   1.000  C
  H180     1.0000 0.79680  0.75450  0.69760  Biso   1.000  H
  C198     1.0000 0.76320  0.70770  0.66580  Biso   1.000  C
  H181     1.0000 0.74630  0.72590  0.65310  Biso   1.000  H
  C199     1.0000 0.90050  0.78050  0.74110  Biso   1.000  C
  H182     1.0000 0.90230  0.80990  0.74340  Biso   1.000  H
  C200     1.0000 0.86580  0.76230  0.72300  Biso   1.000  C
  H183     1.0000 0.84380  0.77930  0.71280  Biso   1.000  H
  C201     1.0000 0.89520  0.69440  0.73450  Biso   1.000  C
  H184     1.0000 0.89340  0.66510  0.73230  Biso   1.000  H
  C202     1.0000 0.93000  0.71260  0.75270  Biso   1.000  C
  H185     1.0000 0.95190  0.69570  0.76290  Biso   1.000  H
  C203     1.0000 0.98550  0.75990  0.81310  Biso   1.000  C
  H186     1.0000 0.97450  0.73490  0.82430  Biso   1.000  H
  C204     1.0000 0.01770  0.78020  0.83280  Biso   1.000  C
  H187     1.0000 0.02920  0.76910  0.85770  Biso   1.000  H
  O50      1.0000 0.10320  0.85350  0.78300  Biso   1.000  O
  O51      1.0000 0.66640  0.70660  0.61380  Biso   1.000  O
  O52      1.0000 0.55090  0.40030  0.33610  Biso   1.000  O
  C205     1.0000 0.54120  0.51010  0.33040  Biso   1.000  C
  H188     1.0000 0.56960  0.51820  0.32960  Biso   1.000  H
  C206     1.0000 0.28770  0.13960  0.18480  Biso   1.000  C
  H189     1.0000 0.28580  0.11020  0.18390  Biso   1.000  H
  C207     1.0000 0.32150  0.15750  0.20500  Biso   1.000  C
  H190     1.0000 0.33630  0.13970  0.22810  Biso   1.000  H
  C208     1.0000 0.32620  0.20050  0.20200  Biso   1.000  C
  C209     1.0000 0.29700  0.22560  0.18600  Biso   1.000  C
  H191     1.0000 0.29680  0.25450  0.19760  Biso   1.000  H
  C210     1.0000 0.26320  0.20770  0.16580  Biso   1.000  C
  H192     1.0000 0.24630  0.22590  0.15310  Biso   1.000  H
  C211     1.0000 0.40050  0.28050  0.24110  Biso   1.000  C
  H193     1.0000 0.40230  0.30990  0.24340  Biso   1.000  H
  C212     1.0000 0.36580  0.26230  0.22300  Biso   1.000  C
  H194     1.0000 0.34380  0.27930  0.21280  Biso   1.000  H
  C213     1.0000 0.39520  0.19440  0.23450  Biso   1.000  C
  H195     1.0000 0.39340  0.16510  0.23230  Biso   1.000  H
  C214     1.0000 0.43000  0.21260  0.25270  Biso   1.000  C
  H196     1.0000 0.45190  0.19570  0.26290  Biso   1.000  H
  C215     1.0000 0.48550  0.25990  0.31310  Biso   1.000  C
  H197     1.0000 0.47450  0.23490  0.32430  Biso   1.000  H
  C216     1.0000 0.51770  0.28020  0.33280  Biso   1.000  C
  H198     1.0000 0.52920  0.26910  0.35770  Biso   1.000  H
  O53      1.0000 0.60320  0.35350  0.28300  Biso   1.000  O
  O54      1.0000 0.16640  0.20660  0.11380  Biso   1.000  O
  O55      1.0000 0.94910  0.90030  0.16390  Biso   1.000  O
  C217     1.0000 0.95880  0.01010  0.16960  Biso   1.000  C
  H199     1.0000 0.93040  0.01820  0.17040  Biso   1.000  H
  C218     1.0000 0.21230  0.63960  0.31520  Biso   1.000  C
  H200     1.0000 0.21420  0.61020  0.31610  Biso   1.000  H
  C219     1.0000 0.17850  0.65750  0.29500  Biso   1.000  C
  H201     1.0000 0.16370  0.63970  0.27190  Biso   1.000  H
  C220     1.0000 0.17380  0.70050  0.29800  Biso   1.000  C
  C221     1.0000 0.20300  0.72560  0.31400  Biso   1.000  C
  H202     1.0000 0.20320  0.75450  0.30240  Biso   1.000  H
  C222     1.0000 0.23680  0.70770  0.33420  Biso   1.000  C
  H203     1.0000 0.25370  0.72590  0.34690  Biso   1.000  H
  C223     1.0000 0.09950  0.78050  0.25890  Biso   1.000  C
  H204     1.0000 0.09770  0.80990  0.25660  Biso   1.000  H
  C224     1.0000 0.13420  0.76230  0.27700  Biso   1.000  C
  H205     1.0000 0.15620  0.77930  0.28720  Biso   1.000  H
  C225     1.0000 0.10480  0.69440  0.26550  Biso   1.000  C
  H206     1.0000 0.10660  0.66510  0.26770  Biso   1.000  H
  C226     1.0000 0.07000  0.71260  0.24730  Biso   1.000  C
  H207     1.0000 0.04810  0.69570  0.23710  Biso   1.000  H
  C227     1.0000 0.01450  0.75990  0.18690  Biso   1.000  C
  H208     1.0000 0.02550  0.73490  0.17570  Biso   1.000  H
  C228     1.0000 0.98230  0.78020  0.16720  Biso   1.000  C
  H209     1.0000 0.97080  0.76910  0.14230  Biso   1.000  H
  O56      1.0000 0.89680  0.85350  0.21700  Biso   1.000  O
  O57      1.0000 0.33360  0.70660  0.38620  Biso   1.000  O
  O58      1.0000 0.44910  0.40030  0.66390  Biso   1.000  O
  C229     1.0000 0.45880  0.51010  0.66960  Biso   1.000  C
  H210     1.0000 0.43040  0.51820  0.67040  Biso   1.000  H
  C230     1.0000 0.71230  0.13960  0.81520  Biso   1.000  C
  H211     1.0000 0.71420  0.11020  0.81610  Biso   1.000  H
  C231     1.0000 0.67850  0.15750  0.79500  Biso   1.000  C
  H212     1.0000 0.66370  0.13970  0.77190  Biso   1.000  H
  C232     1.0000 0.67380  0.20050  0.79800  Biso   1.000  C
  C233     1.0000 0.70300  0.22560  0.81400  Biso   1.000  C
  H213     1.0000 0.70320  0.25450  0.80240  Biso   1.000  H
  C234     1.0000 0.73680  0.20770  0.83420  Biso   1.000  C
  H214     1.0000 0.75370  0.22590  0.84690  Biso   1.000  H
  C235     1.0000 0.59950  0.28050  0.75890  Biso   1.000  C
  H215     1.0000 0.59770  0.30990  0.75660  Biso   1.000  H
  C236     1.0000 0.63420  0.26230  0.77700  Biso   1.000  C
  H216     1.0000 0.65620  0.27930  0.78720  Biso   1.000  H
  C237     1.0000 0.60480  0.19440  0.76550  Biso   1.000  C
  H217     1.0000 0.60660  0.16510  0.76770  Biso   1.000  H
  C238     1.0000 0.57000  0.21260  0.74730  Biso   1.000  C
  H218     1.0000 0.54810  0.19570  0.73710  Biso   1.000  H
  C239     1.0000 0.51450  0.25990  0.68690  Biso   1.000  C
  H219     1.0000 0.52550  0.23490  0.67570  Biso   1.000  H
  C240     1.0000 0.48230  0.28020  0.66720  Biso   1.000  C
  H220     1.0000 0.47080  0.26910  0.64230  Biso   1.000  H
  O59      1.0000 0.39680  0.35350  0.71700  Biso   1.000  O
  O60      1.0000 0.83360  0.20660  0.88620  Biso   1.000  O
  O61      1.0000 0.05090  0.09970  0.16390  Biso   1.000  O
  C241     1.0000 0.04120  0.98990  0.16960  Biso   1.000  C
  H221     1.0000 0.06960  0.98180  0.17040  Biso   1.000  H
  C242     1.0000 0.78770  0.36040  0.31520  Biso   1.000  C
  H222     1.0000 0.78580  0.38980  0.31610  Biso   1.000  H
  C243     1.0000 0.82150  0.34250  0.29500  Biso   1.000  C
  H223     1.0000 0.83630  0.36030  0.27190  Biso   1.000  H
  C244     1.0000 0.82620  0.29950  0.29800  Biso   1.000  C
  C245     1.0000 0.79700  0.27440  0.31400  Biso   1.000  C
  H224     1.0000 0.79680  0.24550  0.30240  Biso   1.000  H
  C246     1.0000 0.76320  0.29230  0.33420  Biso   1.000  C
  H225     1.0000 0.74630  0.27410  0.34690  Biso   1.000  H
  C247     1.0000 0.90050  0.21950  0.25890  Biso   1.000  C
  H226     1.0000 0.90230  0.19010  0.25660  Biso   1.000  H
  C248     1.0000 0.86580  0.23770  0.27700  Biso   1.000  C
  H227     1.0000 0.84380  0.22070  0.28720  Biso   1.000  H
  C249     1.0000 0.89520  0.30560  0.26550  Biso   1.000  C
  H228     1.0000 0.89340  0.33490  0.26770  Biso   1.000  H
  C250     1.0000 0.93000  0.28740  0.24730  Biso   1.000  C
  H229     1.0000 0.95190  0.30430  0.23710  Biso   1.000  H
  C251     1.0000 0.98550  0.24010  0.18690  Biso   1.000  C
  H230     1.0000 0.97450  0.26510  0.17570  Biso   1.000  H
  C252     1.0000 0.01770  0.21980  0.16720  Biso   1.000  C
  H231     1.0000 0.02920  0.23090  0.14230  Biso   1.000  H
  O62      1.0000 0.10320  0.14650  0.21700  Biso   1.000  O
  O63      1.0000 0.66640  0.29340  0.38620  Biso   1.000  O
  O64      1.0000 0.55090  0.59970  0.66390  Biso   1.000  O
  C253     1.0000 0.54120  0.48990  0.66960  Biso   1.000  C
  H232     1.0000 0.56960  0.48180  0.67040  Biso   1.000  H
  C254     1.0000 0.28770  0.86040  0.81520  Biso   1.000  C
  H233     1.0000 0.28580  0.88980  0.81610  Biso   1.000  H
  C255     1.0000 0.32150  0.84250  0.79500  Biso   1.000  C
  H234     1.0000 0.33630  0.86030  0.77190  Biso   1.000  H
  C256     1.0000 0.32620  0.79950  0.79800  Biso   1.000  C
  C257     1.0000 0.29700  0.77440  0.81400  Biso   1.000  C
  H235     1.0000 0.29680  0.74550  0.80240  Biso   1.000  H
  C258     1.0000 0.26320  0.79230  0.83420  Biso   1.000  C
  H236     1.0000 0.24630  0.77410  0.84690  Biso   1.000  H
  C259     1.0000 0.40050  0.71950  0.75890  Biso   1.000  C
  H237     1.0000 0.40230  0.69010  0.75660  Biso   1.000  H
  C260     1.0000 0.36580  0.73770  0.77700  Biso   1.000  C
  H238     1.0000 0.34380  0.72070  0.78720  Biso   1.000  H
  C261     1.0000 0.39520  0.80560  0.76550  Biso   1.000  C
  H239     1.0000 0.39340  0.83490  0.76770  Biso   1.000  H
  C262     1.0000 0.43000  0.78740  0.74730  Biso   1.000  C
  H240     1.0000 0.45190  0.80430  0.73710  Biso   1.000  H
  C263     1.0000 0.48550  0.74010  0.68690  Biso   1.000  C
  H241     1.0000 0.47450  0.76510  0.67570  Biso   1.000  H
  C264     1.0000 0.51770  0.71980  0.66720  Biso   1.000  C
  H242     1.0000 0.52920  0.73090  0.64230  Biso   1.000  H
  O65      1.0000 0.60320  0.64650  0.71700  Biso   1.000  O
  O66      1.0000 0.16640  0.79340  0.88620  Biso   1.000  O
  O67      1.0000 0.94910  0.09970  0.83610  Biso   1.000  O
  C265     1.0000 0.95880  0.98990  0.83040  Biso   1.000  C
  H243     1.0000 0.93040  0.98180  0.82960  Biso   1.000  H
  C266     1.0000 0.21230  0.36040  0.68480  Biso   1.000  C
  H244     1.0000 0.21420  0.38980  0.68390  Biso   1.000  H
  C267     1.0000 0.17850  0.34250  0.70500  Biso   1.000  C
  H245     1.0000 0.16370  0.36030  0.72810  Biso   1.000  H
  C268     1.0000 0.17380  0.29950  0.70200  Biso   1.000  C
  C269     1.0000 0.20300  0.27440  0.68600  Biso   1.000  C
  H246     1.0000 0.20320  0.24550  0.69760  Biso   1.000  H
  C270     1.0000 0.23680  0.29230  0.66580  Biso   1.000  C
  H247     1.0000 0.25370  0.27410  0.65310  Biso   1.000  H
  C271     1.0000 0.09950  0.21950  0.74110  Biso   1.000  C
  H248     1.0000 0.09770  0.19010  0.74340  Biso   1.000  H
  C272     1.0000 0.13420  0.23770  0.72300  Biso   1.000  C
  H249     1.0000 0.15620  0.22070  0.71280  Biso   1.000  H
  C273     1.0000 0.10480  0.30560  0.73450  Biso   1.000  C
  H250     1.0000 0.10660  0.33490  0.73230  Biso   1.000  H
  C274     1.0000 0.07000  0.28740  0.75270  Biso   1.000  C
  H251     1.0000 0.04810  0.30430  0.76290  Biso   1.000  H
  C275     1.0000 0.01450  0.24010  0.81310  Biso   1.000  C
  H252     1.0000 0.02550  0.26510  0.82430  Biso   1.000  H
  C276     1.0000 0.98230  0.21980  0.83280  Biso   1.000  C
  H253     1.0000 0.97080  0.23090  0.85770  Biso   1.000  H
  O68      1.0000 0.89680  0.14650  0.78300  Biso   1.000  O
  O69      1.0000 0.33360  0.29340  0.61380  Biso   1.000  O
  O70      1.0000 0.44910  0.59970  0.33610  Biso   1.000  O
  C277     1.0000 0.45880  0.48990  0.33040  Biso   1.000  C
  H254     1.0000 0.43040  0.48180  0.32960  Biso   1.000  H
  C278     1.0000 0.71230  0.86040  0.18480  Biso   1.000  C
  H255     1.0000 0.71420  0.88980  0.18390  Biso   1.000  H
  C279     1.0000 0.67850  0.84250  0.20500  Biso   1.000  C
  H256     1.0000 0.66370  0.86030  0.22810  Biso   1.000  H
  C280     1.0000 0.67380  0.79950  0.20200  Biso   1.000  C
  C281     1.0000 0.70300  0.77440  0.18600  Biso   1.000  C
  H257     1.0000 0.70320  0.74550  0.19760  Biso   1.000  H
  C282     1.0000 0.73680  0.79230  0.16580  Biso   1.000  C
  H258     1.0000 0.75370  0.77410  0.15310  Biso   1.000  H
  C283     1.0000 0.59950  0.71950  0.24110  Biso   1.000  C
  H259     1.0000 0.59770  0.69010  0.24340  Biso   1.000  H
  C284     1.0000 0.63420  0.73770  0.22300  Biso   1.000  C
  H260     1.0000 0.65620  0.72070  0.21280  Biso   1.000  H
  C285     1.0000 0.60480  0.80560  0.23450  Biso   1.000  C
  H261     1.0000 0.60660  0.83490  0.23230  Biso   1.000  H
  C286     1.0000 0.57000  0.78740  0.25270  Biso   1.000  C
  H262     1.0000 0.54810  0.80430  0.26290  Biso   1.000  H
  C287     1.0000 0.51450  0.74010  0.31310  Biso   1.000  C
  H263     1.0000 0.52550  0.76510  0.32430  Biso   1.000  H
  C288     1.0000 0.48230  0.71980  0.33280  Biso   1.000  C
  H264     1.0000 0.47080  0.73090  0.35770  Biso   1.000  H
  O71      1.0000 0.39680  0.64650  0.28300  Biso   1.000  O
  O72      1.0000 0.83360  0.79340  0.11380  Biso   1.000  O
  O73      1.0000 0.05090  0.83610  0.90030  Biso   1.000  O
  C289     1.0000 0.04120  0.83040  0.01010  Biso   1.000  C
  H265     1.0000 0.06960  0.82960  0.01820  Biso   1.000  H
  C290     1.0000 0.78770  0.68480  0.63960  Biso   1.000  C
  H266     1.0000 0.78580  0.68390  0.61020  Biso   1.000  H
  C291     1.0000 0.82150  0.70500  0.65750  Biso   1.000  C
  H267     1.0000 0.83630  0.72810  0.63970  Biso   1.000  H
  C292     1.0000 0.82620  0.70200  0.70050  Biso   1.000  C
  C293     1.0000 0.79700  0.68600  0.72560  Biso   1.000  C
  H268     1.0000 0.79680  0.69760  0.75450  Biso   1.000  H
  C294     1.0000 0.76320  0.66580  0.70770  Biso   1.000  C
  H269     1.0000 0.74630  0.65310  0.72590  Biso   1.000  H
  C295     1.0000 0.90050  0.74110  0.78050  Biso   1.000  C
  H270     1.0000 0.90230  0.74340  0.80990  Biso   1.000  H
  C296     1.0000 0.86580  0.72300  0.76230  Biso   1.000  C
  H271     1.0000 0.84380  0.71280  0.77930  Biso   1.000  H
  C297     1.0000 0.89520  0.73450  0.69440  Biso   1.000  C
  H272     1.0000 0.89340  0.73230  0.66510  Biso   1.000  H
  C298     1.0000 0.93000  0.75270  0.71260  Biso   1.000  C
  H273     1.0000 0.95190  0.76290  0.69570  Biso   1.000  H
  C299     1.0000 0.98550  0.81310  0.75990  Biso   1.000  C
  H274     1.0000 0.97450  0.82430  0.73490  Biso   1.000  H
  C300     1.0000 0.01770  0.83280  0.78020  Biso   1.000  C
  H275     1.0000 0.02920  0.85770  0.76910  Biso   1.000  H
  O74      1.0000 0.10320  0.78300  0.85350  Biso   1.000  O
  O75      1.0000 0.66640  0.61380  0.70660  Biso   1.000  O
  O76      1.0000 0.55090  0.33610  0.40030  Biso   1.000  O
  C301     1.0000 0.54120  0.33040  0.51010  Biso   1.000  C
  H276     1.0000 0.56960  0.32960  0.51820  Biso   1.000  H
  C302     1.0000 0.28770  0.18480  0.13960  Biso   1.000  C
  H277     1.0000 0.28580  0.18390  0.11020  Biso   1.000  H
  C303     1.0000 0.32150  0.20500  0.15750  Biso   1.000  C
  H278     1.0000 0.33630  0.22810  0.13970  Biso   1.000  H
  C304     1.0000 0.32620  0.20200  0.20050  Biso   1.000  C
  C305     1.0000 0.29700  0.18600  0.22560  Biso   1.000  C
  H279     1.0000 0.29680  0.19760  0.25450  Biso   1.000  H
  C306     1.0000 0.26320  0.16580  0.20770  Biso   1.000  C
  H280     1.0000 0.24630  0.15310  0.22590  Biso   1.000  H
  C307     1.0000 0.40050  0.24110  0.28050  Biso   1.000  C
  H281     1.0000 0.40230  0.24340  0.30990  Biso   1.000  H
  C308     1.0000 0.36580  0.22300  0.26230  Biso   1.000  C
  H282     1.0000 0.34380  0.21280  0.27930  Biso   1.000  H
  C309     1.0000 0.39520  0.23450  0.19440  Biso   1.000  C
  H283     1.0000 0.39340  0.23230  0.16510  Biso   1.000  H
  C310     1.0000 0.43000  0.25270  0.21260  Biso   1.000  C
  H284     1.0000 0.45190  0.26290  0.19570  Biso   1.000  H
  C311     1.0000 0.48550  0.31310  0.25990  Biso   1.000  C
  H285     1.0000 0.47450  0.32430  0.23490  Biso   1.000  H
  C312     1.0000 0.51770  0.33280  0.28020  Biso   1.000  C
  H286     1.0000 0.52920  0.35770  0.26910  Biso   1.000  H
  O77      1.0000 0.60320  0.28300  0.35350  Biso   1.000  O
  O78      1.0000 0.16640  0.11380  0.20660  Biso   1.000  O
  O79      1.0000 0.94910  0.16390  0.90030  Biso   1.000  O
  C313     1.0000 0.95880  0.16960  0.01010  Biso   1.000  C
  H287     1.0000 0.93040  0.17040  0.01820  Biso   1.000  H
  C314     1.0000 0.21230  0.31520  0.63960  Biso   1.000  C
  H288     1.0000 0.21420  0.31610  0.61020  Biso   1.000  H
  C315     1.0000 0.17850  0.29500  0.65750  Biso   1.000  C
  H289     1.0000 0.16370  0.27190  0.63970  Biso   1.000  H
  C316     1.0000 0.17380  0.29800  0.70050  Biso   1.000  C
  C317     1.0000 0.20300  0.31400  0.72560  Biso   1.000  C
  H290     1.0000 0.20320  0.30240  0.75450  Biso   1.000  H
  C318     1.0000 0.23680  0.33420  0.70770  Biso   1.000  C
  H291     1.0000 0.25370  0.34690  0.72590  Biso   1.000  H
  C319     1.0000 0.09950  0.25890  0.78050  Biso   1.000  C
  H292     1.0000 0.09770  0.25660  0.80990  Biso   1.000  H
  C320     1.0000 0.13420  0.27700  0.76230  Biso   1.000  C
  H293     1.0000 0.15620  0.28720  0.77930  Biso   1.000  H
  C321     1.0000 0.10480  0.26550  0.69440  Biso   1.000  C
  H294     1.0000 0.10660  0.26770  0.66510  Biso   1.000  H
  C322     1.0000 0.07000  0.24730  0.71260  Biso   1.000  C
  H295     1.0000 0.04810  0.23710  0.69570  Biso   1.000  H
  C323     1.0000 0.01450  0.18690  0.75990  Biso   1.000  C
  H296     1.0000 0.02550  0.17570  0.73490  Biso   1.000  H
  C324     1.0000 0.98230  0.16720  0.78020  Biso   1.000  C
  H297     1.0000 0.97080  0.14230  0.76910  Biso   1.000  H
  O80      1.0000 0.89680  0.21700  0.85350  Biso   1.000  O
  O81      1.0000 0.33360  0.38620  0.70660  Biso   1.000  O
  O82      1.0000 0.44910  0.66390  0.40030  Biso   1.000  O
  C325     1.0000 0.45880  0.66960  0.51010  Biso   1.000  C
  H298     1.0000 0.43040  0.67040  0.51820  Biso   1.000  H
  C326     1.0000 0.71230  0.81520  0.13960  Biso   1.000  C
  H299     1.0000 0.71420  0.81610  0.11020  Biso   1.000  H
  C327     1.0000 0.67850  0.79500  0.15750  Biso   1.000  C
  H300     1.0000 0.66370  0.77190  0.13970  Biso   1.000  H
  C328     1.0000 0.67380  0.79800  0.20050  Biso   1.000  C
  C329     1.0000 0.70300  0.81400  0.22560  Biso   1.000  C
  H301     1.0000 0.70320  0.80240  0.25450  Biso   1.000  H
  C330     1.0000 0.73680  0.83420  0.20770  Biso   1.000  C
  H302     1.0000 0.75370  0.84690  0.22590  Biso   1.000  H
  C331     1.0000 0.59950  0.75890  0.28050  Biso   1.000  C
  H303     1.0000 0.59770  0.75660  0.30990  Biso   1.000  H
  C332     1.0000 0.63420  0.77700  0.26230  Biso   1.000  C
  H304     1.0000 0.65620  0.78720  0.27930  Biso   1.000  H
  C333     1.0000 0.60480  0.76550  0.19440  Biso   1.000  C
  H305     1.0000 0.60660  0.76770  0.16510  Biso   1.000  H
  C334     1.0000 0.57000  0.74730  0.21260  Biso   1.000  C
  H306     1.0000 0.54810  0.73710  0.19570  Biso   1.000  H
  C335     1.0000 0.51450  0.68690  0.25990  Biso   1.000  C
  H307     1.0000 0.52550  0.67570  0.23490  Biso   1.000  H
  C336     1.0000 0.48230  0.66720  0.28020  Biso   1.000  C
  H308     1.0000 0.47080  0.64230  0.26910  Biso   1.000  H
  O83      1.0000 0.39680  0.71700  0.35350  Biso   1.000  O
  O84      1.0000 0.83360  0.88620  0.20660  Biso   1.000  O
  O85      1.0000 0.05090  0.16390  0.09970  Biso   1.000  O
  C337     1.0000 0.04120  0.16960  0.98990  Biso   1.000  C
  H309     1.0000 0.06960  0.17040  0.98180  Biso   1.000  H
  C338     1.0000 0.78770  0.31520  0.36040  Biso   1.000  C
  H310     1.0000 0.78580  0.31610  0.38980  Biso   1.000  H
  C339     1.0000 0.82150  0.29500  0.34250  Biso   1.000  C
  H311     1.0000 0.83630  0.27190  0.36030  Biso   1.000  H
  C340     1.0000 0.82620  0.29800  0.29950  Biso   1.000  C
  C341     1.0000 0.79700  0.31400  0.27440  Biso   1.000  C
  H312     1.0000 0.79680  0.30240  0.24550  Biso   1.000  H
  C342     1.0000 0.76320  0.33420  0.29230  Biso   1.000  C
  H313     1.0000 0.74630  0.34690  0.27410  Biso   1.000  H
  C343     1.0000 0.90050  0.25890  0.21950  Biso   1.000  C
  H314     1.0000 0.90230  0.25660  0.19010  Biso   1.000  H
  C344     1.0000 0.86580  0.27700  0.23770  Biso   1.000  C
  H315     1.0000 0.84380  0.28720  0.22070  Biso   1.000  H
  C345     1.0000 0.89520  0.26550  0.30560  Biso   1.000  C
  H316     1.0000 0.89340  0.26770  0.33490  Biso   1.000  H
  C346     1.0000 0.93000  0.24730  0.28740  Biso   1.000  C
  H317     1.0000 0.95190  0.23710  0.30430  Biso   1.000  H
  C347     1.0000 0.98550  0.18690  0.24010  Biso   1.000  C
  H318     1.0000 0.97450  0.17570  0.26510  Biso   1.000  H
  C348     1.0000 0.01770  0.16720  0.21980  Biso   1.000  C
  H319     1.0000 0.02920  0.14230  0.23090  Biso   1.000  H
  O86      1.0000 0.10320  0.21700  0.14650  Biso   1.000  O
  O87      1.0000 0.66640  0.38620  0.29340  Biso   1.000  O
  O88      1.0000 0.55090  0.66390  0.59970  Biso   1.000  O
  C349     1.0000 0.54120  0.66960  0.48990  Biso   1.000  C
  H320     1.0000 0.56960  0.67040  0.48180  Biso   1.000  H
  C350     1.0000 0.28770  0.81520  0.86040  Biso   1.000  C
  H321     1.0000 0.28580  0.81610  0.88980  Biso   1.000  H
  C351     1.0000 0.32150  0.79500  0.84250  Biso   1.000  C
  H322     1.0000 0.33630  0.77190  0.86030  Biso   1.000  H
  C352     1.0000 0.32620  0.79800  0.79950  Biso   1.000  C
  C353     1.0000 0.29700  0.81400  0.77440  Biso   1.000  C
  H323     1.0000 0.29680  0.80240  0.74550  Biso   1.000  H
  C354     1.0000 0.26320  0.83420  0.79230  Biso   1.000  C
  H324     1.0000 0.24630  0.84690  0.77410  Biso   1.000  H
  C355     1.0000 0.40050  0.75890  0.71950  Biso   1.000  C
  H325     1.0000 0.40230  0.75660  0.69010  Biso   1.000  H
  C356     1.0000 0.36580  0.77700  0.73770  Biso   1.000  C
  H326     1.0000 0.34380  0.78720  0.72070  Biso   1.000  H
  C357     1.0000 0.39520  0.76550  0.80560  Biso   1.000  C
  H327     1.0000 0.39340  0.76770  0.83490  Biso   1.000  H
  C358     1.0000 0.43000  0.74730  0.78740  Biso   1.000  C
  H328     1.0000 0.45190  0.73710  0.80430  Biso   1.000  H
  C359     1.0000 0.48550  0.68690  0.74010  Biso   1.000  C
  H329     1.0000 0.47450  0.67570  0.76510  Biso   1.000  H
  C360     1.0000 0.51770  0.66720  0.71980  Biso   1.000  C
  H330     1.0000 0.52920  0.64230  0.73090  Biso   1.000  H
  O89      1.0000 0.60320  0.71700  0.64650  Biso   1.000  O
  O90      1.0000 0.16640  0.88620  0.79340  Biso   1.000  O
  O91      1.0000 0.94910  0.83610  0.09970  Biso   1.000  O
  C361     1.0000 0.95880  0.83040  0.98990  Biso   1.000  C
  H331     1.0000 0.93040  0.82960  0.98180  Biso   1.000  H
  C362     1.0000 0.21230  0.68480  0.36040  Biso   1.000  C
  H332     1.0000 0.21420  0.68390  0.38980  Biso   1.000  H
  C363     1.0000 0.17850  0.70500  0.34250  Biso   1.000  C
  H333     1.0000 0.16370  0.72810  0.36030  Biso   1.000  H
  C364     1.0000 0.17380  0.70200  0.29950  Biso   1.000  C
  C365     1.0000 0.20300  0.68600  0.27440  Biso   1.000  C
  H334     1.0000 0.20320  0.69760  0.24550  Biso   1.000  H
  C366     1.0000 0.23680  0.66580  0.29230  Biso   1.000  C
  H335     1.0000 0.25370  0.65310  0.27410  Biso   1.000  H
  C367     1.0000 0.09950  0.74110  0.21950  Biso   1.000  C
  H336     1.0000 0.09770  0.74340  0.19010  Biso   1.000  H
  C368     1.0000 0.13420  0.72300  0.23770  Biso   1.000  C
  H337     1.0000 0.15620  0.71280  0.22070  Biso   1.000  H
  C369     1.0000 0.10480  0.73450  0.30560  Biso   1.000  C
  H338     1.0000 0.10660  0.73230  0.33490  Biso   1.000  H
  C370     1.0000 0.07000  0.75270  0.28740  Biso   1.000  C
  H339     1.0000 0.04810  0.76290  0.30430  Biso   1.000  H
  C371     1.0000 0.01450  0.81310  0.24010  Biso   1.000  C
  H340     1.0000 0.02550  0.82430  0.26510  Biso   1.000  H
  C372     1.0000 0.98230  0.83280  0.21980  Biso   1.000  C
  H341     1.0000 0.97080  0.85770  0.23090  Biso   1.000  H
  O92      1.0000 0.89680  0.78300  0.14650  Biso   1.000  O
  O93      1.0000 0.33360  0.61380  0.29340  Biso   1.000  O
  O94      1.0000 0.44910  0.33610  0.59970  Biso   1.000  O
  C373     1.0000 0.45880  0.33040  0.48990  Biso   1.000  C
  H342     1.0000 0.43040  0.32960  0.48180  Biso   1.000  H
  C374     1.0000 0.71230  0.18480  0.86040  Biso   1.000  C
  H343     1.0000 0.71420  0.18390  0.88980  Biso   1.000  H
  C375     1.0000 0.67850  0.20500  0.84250  Biso   1.000  C
  H344     1.0000 0.66370  0.22810  0.86030  Biso   1.000  H
  C376     1.0000 0.67380  0.20200  0.79950  Biso   1.000  C
  C377     1.0000 0.70300  0.18600  0.77440  Biso   1.000  C
  H345     1.0000 0.70320  0.19760  0.74550  Biso   1.000  H
  C378     1.0000 0.73680  0.16580  0.79230  Biso   1.000  C
  H346     1.0000 0.75370  0.15310  0.77410  Biso   1.000  H
  C379     1.0000 0.59950  0.24110  0.71950  Biso   1.000  C
  H347     1.0000 0.59770  0.24340  0.69010  Biso   1.000  H
  C380     1.0000 0.63420  0.22300  0.73770  Biso   1.000  C
  H348     1.0000 0.65620  0.21280  0.72070  Biso   1.000  H
  C381     1.0000 0.60480  0.23450  0.80560  Biso   1.000  C
  H349     1.0000 0.60660  0.23230  0.83490  Biso   1.000  H
  C382     1.0000 0.57000  0.25270  0.78740  Biso   1.000  C
  H350     1.0000 0.54810  0.26290  0.80430  Biso   1.000  H
  C383     1.0000 0.51450  0.31310  0.74010  Biso   1.000  C
  H351     1.0000 0.52550  0.32430  0.76510  Biso   1.000  H
  C384     1.0000 0.48230  0.33280  0.71980  Biso   1.000  C
  H352     1.0000 0.47080  0.35770  0.73090  Biso   1.000  H
  O95      1.0000 0.39680  0.28300  0.64650  Biso   1.000  O
  O96      1.0000 0.83360  0.11380  0.79340  Biso   1.000  O
  O97      1.0000 0.83610  0.90030  0.05090  Biso   1.000  O
  C385     1.0000 0.83040  0.01010  0.04120  Biso   1.000  C
  H353     1.0000 0.82960  0.01820  0.06960  Biso   1.000  H
  C386     1.0000 0.68480  0.63960  0.78770  Biso   1.000  C
  H354     1.0000 0.68390  0.61020  0.78580  Biso   1.000  H
  C387     1.0000 0.70500  0.65750  0.82150  Biso   1.000  C
  H355     1.0000 0.72810  0.63970  0.83630  Biso   1.000  H
  C388     1.0000 0.70200  0.70050  0.82620  Biso   1.000  C
  C389     1.0000 0.68600  0.72560  0.79700  Biso   1.000  C
  H356     1.0000 0.69760  0.75450  0.79680  Biso   1.000  H
  C390     1.0000 0.66580  0.70770  0.76320  Biso   1.000  C
  H357     1.0000 0.65310  0.72590  0.74630  Biso   1.000  H
  C391     1.0000 0.74110  0.78050  0.90050  Biso   1.000  C
  H358     1.0000 0.74340  0.80990  0.90230  Biso   1.000  H
  C392     1.0000 0.72300  0.76230  0.86580  Biso   1.000  C
  H359     1.0000 0.71280  0.77930  0.84380  Biso   1.000  H
  C393     1.0000 0.73450  0.69440  0.89520  Biso   1.000  C
  H360     1.0000 0.73230  0.66510  0.89340  Biso   1.000  H
  C394     1.0000 0.75270  0.71260  0.93000  Biso   1.000  C
  H361     1.0000 0.76290  0.69570  0.95190  Biso   1.000  H
  C395     1.0000 0.81310  0.75990  0.98550  Biso   1.000  C
  H362     1.0000 0.82430  0.73490  0.97450  Biso   1.000  H
  C396     1.0000 0.83280  0.78020  0.01770  Biso   1.000  C
  H363     1.0000 0.85770  0.76910  0.02920  Biso   1.000  H
  O98      1.0000 0.78300  0.85350  0.10320  Biso   1.000  O
  O99      1.0000 0.61380  0.70660  0.66640  Biso   1.000  O
  O100     1.0000 0.33610  0.40030  0.55090  Biso   1.000  O
  C397     1.0000 0.33040  0.51010  0.54120  Biso   1.000  C
  H364     1.0000 0.32960  0.51820  0.56960  Biso   1.000  H
  C398     1.0000 0.18480  0.13960  0.28770  Biso   1.000  C
  H365     1.0000 0.18390  0.11020  0.28580  Biso   1.000  H
  C399     1.0000 0.20500  0.15750  0.32150  Biso   1.000  C
  H366     1.0000 0.22810  0.13970  0.33630  Biso   1.000  H
  C400     1.0000 0.20200  0.20050  0.32620  Biso   1.000  C
  C401     1.0000 0.18600  0.22560  0.29700  Biso   1.000  C
  H367     1.0000 0.19760  0.25450  0.29680  Biso   1.000  H
  C402     1.0000 0.16580  0.20770  0.26320  Biso   1.000  C
  H368     1.0000 0.15310  0.22590  0.24630  Biso   1.000  H
  C403     1.0000 0.24110  0.28050  0.40050  Biso   1.000  C
  H369     1.0000 0.24340  0.30990  0.40230  Biso   1.000  H
  C404     1.0000 0.22300  0.26230  0.36580  Biso   1.000  C
  H370     1.0000 0.21280  0.27930  0.34380  Biso   1.000  H
  C405     1.0000 0.23450  0.19440  0.39520  Biso   1.000  C
  H371     1.0000 0.23230  0.16510  0.39340  Biso   1.000  H
  C406     1.0000 0.25270  0.21260  0.43000  Biso   1.000  C
  H372     1.0000 0.26290  0.19570  0.45190  Biso   1.000  H
  C407     1.0000 0.31310  0.25990  0.48550  Biso   1.000  C
  H373     1.0000 0.32430  0.23490  0.47450  Biso   1.000  H
  C408     1.0000 0.33280  0.28020  0.51770  Biso   1.000  C
  H374     1.0000 0.35770  0.26910  0.52920  Biso   1.000  H
  O101     1.0000 0.28300  0.35350  0.60320  Biso   1.000  O
  O102     1.0000 0.11380  0.20660  0.16640  Biso   1.000  O
  O103     1.0000 0.16390  0.90030  0.94910  Biso   1.000  O
  C409     1.0000 0.16960  0.01010  0.95880  Biso   1.000  C
  H375     1.0000 0.17040  0.01820  0.93040  Biso   1.000  H
  C410     1.0000 0.31520  0.63960  0.21230  Biso   1.000  C
  H376     1.0000 0.31610  0.61020  0.21420  Biso   1.000  H
  C411     1.0000 0.29500  0.65750  0.17850  Biso   1.000  C
  H377     1.0000 0.27190  0.63970  0.16370  Biso   1.000  H
  C412     1.0000 0.29800  0.70050  0.17380  Biso   1.000  C
  C413     1.0000 0.31400  0.72560  0.20300  Biso   1.000  C
  H378     1.0000 0.30240  0.75450  0.20320  Biso   1.000  H
  C414     1.0000 0.33420  0.70770  0.23680  Biso   1.000  C
  H379     1.0000 0.34690  0.72590  0.25370  Biso   1.000  H
  C415     1.0000 0.25890  0.78050  0.09950  Biso   1.000  C
  H380     1.0000 0.25660  0.80990  0.09770  Biso   1.000  H
  C416     1.0000 0.27700  0.76230  0.13420  Biso   1.000  C
  H381     1.0000 0.28720  0.77930  0.15620  Biso   1.000  H
  C417     1.0000 0.26550  0.69440  0.10480  Biso   1.000  C
  H382     1.0000 0.26770  0.66510  0.10660  Biso   1.000  H
  C418     1.0000 0.24730  0.71260  0.07000  Biso   1.000  C
  H383     1.0000 0.23710  0.69570  0.04810  Biso   1.000  H
  C419     1.0000 0.18690  0.75990  0.01450  Biso   1.000  C
  H384     1.0000 0.17570  0.73490  0.02550  Biso   1.000  H
  C420     1.0000 0.16720  0.78020  0.98230  Biso   1.000  C
  H385     1.0000 0.14230  0.76910  0.97080  Biso   1.000  H
  O104     1.0000 0.21700  0.85350  0.89680  Biso   1.000  O
  O105     1.0000 0.38620  0.70660  0.33360  Biso   1.000  O
  O106     1.0000 0.66390  0.40030  0.44910  Biso   1.000  O
  C421     1.0000 0.66960  0.51010  0.45880  Biso   1.000  C
  H386     1.0000 0.67040  0.51820  0.43040  Biso   1.000  H
  C422     1.0000 0.81520  0.13960  0.71230  Biso   1.000  C
  H387     1.0000 0.81610  0.11020  0.71420  Biso   1.000  H
  C423     1.0000 0.79500  0.15750  0.67850  Biso   1.000  C
  H388     1.0000 0.77190  0.13970  0.66370  Biso   1.000  H
  C424     1.0000 0.79800  0.20050  0.67380  Biso   1.000  C
  C425     1.0000 0.81400  0.22560  0.70300  Biso   1.000  C
  H389     1.0000 0.80240  0.25450  0.70320  Biso   1.000  H
  C426     1.0000 0.83420  0.20770  0.73680  Biso   1.000  C
  H390     1.0000 0.84690  0.22590  0.75370  Biso   1.000  H
  C427     1.0000 0.75890  0.28050  0.59950  Biso   1.000  C
  H391     1.0000 0.75660  0.30990  0.59770  Biso   1.000  H
  C428     1.0000 0.77700  0.26230  0.63420  Biso   1.000  C
  H392     1.0000 0.78720  0.27930  0.65620  Biso   1.000  H
  C429     1.0000 0.76550  0.19440  0.60480  Biso   1.000  C
  H393     1.0000 0.76770  0.16510  0.60660  Biso   1.000  H
  C430     1.0000 0.74730  0.21260  0.57000  Biso   1.000  C
  H394     1.0000 0.73710  0.19570  0.54810  Biso   1.000  H
  C431     1.0000 0.68690  0.25990  0.51450  Biso   1.000  C
  H395     1.0000 0.67570  0.23490  0.52550  Biso   1.000  H
  C432     1.0000 0.66720  0.28020  0.48230  Biso   1.000  C
  H396     1.0000 0.64230  0.26910  0.47080  Biso   1.000  H
  O107     1.0000 0.71700  0.35350  0.39680  Biso   1.000  O
  O108     1.0000 0.88620  0.20660  0.83360  Biso   1.000  O
  O109     1.0000 0.16390  0.09970  0.05090  Biso   1.000  O
  C433     1.0000 0.16960  0.98990  0.04120  Biso   1.000  C
  H397     1.0000 0.17040  0.98180  0.06960  Biso   1.000  H
  C434     1.0000 0.31520  0.36040  0.78770  Biso   1.000  C
  H398     1.0000 0.31610  0.38980  0.78580  Biso   1.000  H
  C435     1.0000 0.29500  0.34250  0.82150  Biso   1.000  C
  H399     1.0000 0.27190  0.36030  0.83630  Biso   1.000  H
  C436     1.0000 0.29800  0.29950  0.82620  Biso   1.000  C
  C437     1.0000 0.31400  0.27440  0.79700  Biso   1.000  C
  H400     1.0000 0.30240  0.24550  0.79680  Biso   1.000  H
  C438     1.0000 0.33420  0.29230  0.76320  Biso   1.000  C
  H401     1.0000 0.34690  0.27410  0.74630  Biso   1.000  H
  C439     1.0000 0.25890  0.21950  0.90050  Biso   1.000  C
  H402     1.0000 0.25660  0.19010  0.90230  Biso   1.000  H
  C440     1.0000 0.27700  0.23770  0.86580  Biso   1.000  C
  H403     1.0000 0.28720  0.22070  0.84380  Biso   1.000  H
  C441     1.0000 0.26550  0.30560  0.89520  Biso   1.000  C
  H404     1.0000 0.26770  0.33490  0.89340  Biso   1.000  H
  C442     1.0000 0.24730  0.28740  0.93000  Biso   1.000  C
  H405     1.0000 0.23710  0.30430  0.95190  Biso   1.000  H
  C443     1.0000 0.18690  0.24010  0.98550  Biso   1.000  C
  H406     1.0000 0.17570  0.26510  0.97450  Biso   1.000  H
  C444     1.0000 0.16720  0.21980  0.01770  Biso   1.000  C
  H407     1.0000 0.14230  0.23090  0.02920  Biso   1.000  H
  O110     1.0000 0.21700  0.14650  0.10320  Biso   1.000  O
  O111     1.0000 0.38620  0.29340  0.66640  Biso   1.000  O
  O112     1.0000 0.66390  0.59970  0.55090  Biso   1.000  O
  C445     1.0000 0.66960  0.48990  0.54120  Biso   1.000  C
  H408     1.0000 0.67040  0.48180  0.56960  Biso   1.000  H
  C446     1.0000 0.81520  0.86040  0.28770  Biso   1.000  C
  H409     1.0000 0.81610  0.88980  0.28580  Biso   1.000  H
  C447     1.0000 0.79500  0.84250  0.32150  Biso   1.000  C
  H410     1.0000 0.77190  0.86030  0.33630  Biso   1.000  H
  C448     1.0000 0.79800  0.79950  0.32620  Biso   1.000  C
  C449     1.0000 0.81400  0.77440  0.29700  Biso   1.000  C
  H411     1.0000 0.80240  0.74550  0.29680  Biso   1.000  H
  C450     1.0000 0.83420  0.79230  0.26320  Biso   1.000  C
  H412     1.0000 0.84690  0.77410  0.24630  Biso   1.000  H
  C451     1.0000 0.75890  0.71950  0.40050  Biso   1.000  C
  H413     1.0000 0.75660  0.69010  0.40230  Biso   1.000  H
  C452     1.0000 0.77700  0.73770  0.36580  Biso   1.000  C
  H414     1.0000 0.78720  0.72070  0.34380  Biso   1.000  H
  C453     1.0000 0.76550  0.80560  0.39520  Biso   1.000  C
  H415     1.0000 0.76770  0.83490  0.39340  Biso   1.000  H
  C454     1.0000 0.74730  0.78740  0.43000  Biso   1.000  C
  H416     1.0000 0.73710  0.80430  0.45190  Biso   1.000  H
  C455     1.0000 0.68690  0.74010  0.48550  Biso   1.000  C
  H417     1.0000 0.67570  0.76510  0.47450  Biso   1.000  H
  C456     1.0000 0.66720  0.71980  0.51770  Biso   1.000  C
  H418     1.0000 0.64230  0.73090  0.52920  Biso   1.000  H
  O113     1.0000 0.71700  0.64650  0.60320  Biso   1.000  O
  O114     1.0000 0.88620  0.79340  0.16640  Biso   1.000  O
  O115     1.0000 0.83610  0.09970  0.94910  Biso   1.000  O
  C457     1.0000 0.83040  0.98990  0.95880  Biso   1.000  C
  H419     1.0000 0.82960  0.98180  0.93040  Biso   1.000  H
  C458     1.0000 0.68480  0.36040  0.21230  Biso   1.000  C
  H420     1.0000 0.68390  0.38980  0.21420  Biso   1.000  H
  C459     1.0000 0.70500  0.34250  0.17850  Biso   1.000  C
  H421     1.0000 0.72810  0.36030  0.16370  Biso   1.000  H
  C460     1.0000 0.70200  0.29950  0.17380  Biso   1.000  C
  C461     1.0000 0.68600  0.27440  0.20300  Biso   1.000  C
  H422     1.0000 0.69760  0.24550  0.20320  Biso   1.000  H
  C462     1.0000 0.66580  0.29230  0.23680  Biso   1.000  C
  H423     1.0000 0.65310  0.27410  0.25370  Biso   1.000  H
  C463     1.0000 0.74110  0.21950  0.09950  Biso   1.000  C
  H424     1.0000 0.74340  0.19010  0.09770  Biso   1.000  H
  C464     1.0000 0.72300  0.23770  0.13420  Biso   1.000  C
  H425     1.0000 0.71280  0.22070  0.15620  Biso   1.000  H
  C465     1.0000 0.73450  0.30560  0.10480  Biso   1.000  C
  H426     1.0000 0.73230  0.33490  0.10660  Biso   1.000  H
  C466     1.0000 0.75270  0.28740  0.07000  Biso   1.000  C
  H427     1.0000 0.76290  0.30430  0.04810  Biso   1.000  H
  C467     1.0000 0.81310  0.24010  0.01450  Biso   1.000  C
  H428     1.0000 0.82430  0.26510  0.02550  Biso   1.000  H
  C468     1.0000 0.83280  0.21980  0.98230  Biso   1.000  C
  H429     1.0000 0.85770  0.23090  0.97080  Biso   1.000  H
  O116     1.0000 0.78300  0.14650  0.89680  Biso   1.000  O
  O117     1.0000 0.61380  0.29340  0.33360  Biso   1.000  O
  O118     1.0000 0.33610  0.59970  0.44910  Biso   1.000  O
  C469     1.0000 0.33040  0.48990  0.45880  Biso   1.000  C
  H430     1.0000 0.32960  0.48180  0.43040  Biso   1.000  H
  C470     1.0000 0.18480  0.86040  0.71230  Biso   1.000  C
  H431     1.0000 0.18390  0.88980  0.71420  Biso   1.000  H
  C471     1.0000 0.20500  0.84250  0.67850  Biso   1.000  C
  H432     1.0000 0.22810  0.86030  0.66370  Biso   1.000  H
  C472     1.0000 0.20200  0.79950  0.67380  Biso   1.000  C
  C473     1.0000 0.18600  0.77440  0.70300  Biso   1.000  C
  H433     1.0000 0.19760  0.74550  0.70320  Biso   1.000  H
  C474     1.0000 0.16580  0.79230  0.73680  Biso   1.000  C
  H434     1.0000 0.15310  0.77410  0.75370  Biso   1.000  H
  C475     1.0000 0.24110  0.71950  0.59950  Biso   1.000  C
  H435     1.0000 0.24340  0.69010  0.59770  Biso   1.000  H
  C476     1.0000 0.22300  0.73770  0.63420  Biso   1.000  C
  H436     1.0000 0.21280  0.72070  0.65620  Biso   1.000  H
  C477     1.0000 0.23450  0.80560  0.60480  Biso   1.000  C
  H437     1.0000 0.23230  0.83490  0.60660  Biso   1.000  H
  C478     1.0000 0.25270  0.78740  0.57000  Biso   1.000  C
  H438     1.0000 0.26290  0.80430  0.54810  Biso   1.000  H
  C479     1.0000 0.31310  0.74010  0.51450  Biso   1.000  C
  H439     1.0000 0.32430  0.76510  0.52550  Biso   1.000  H
  C480     1.0000 0.33280  0.71980  0.48230  Biso   1.000  C
  H440     1.0000 0.35770  0.73090  0.47080  Biso   1.000  H
  O119     1.0000 0.28300  0.64650  0.39680  Biso   1.000  O
  O120     1.0000 0.11380  0.79340  0.83360  Biso   1.000  O
  O121     1.0000 0.90030  0.05090  0.83610  Biso   1.000  O
  C481     1.0000 0.01010  0.04120  0.83040  Biso   1.000  C
  H441     1.0000 0.01820  0.06960  0.82960  Biso   1.000  H
  C482     1.0000 0.63960  0.78770  0.68480  Biso   1.000  C
  H442     1.0000 0.61020  0.78580  0.68390  Biso   1.000  H
  C483     1.0000 0.65750  0.82150  0.70500  Biso   1.000  C
  H443     1.0000 0.63970  0.83630  0.72810  Biso   1.000  H
  C484     1.0000 0.70050  0.82620  0.70200  Biso   1.000  C
  C485     1.0000 0.72560  0.79700  0.68600  Biso   1.000  C
  H444     1.0000 0.75450  0.79680  0.69760  Biso   1.000  H
  C486     1.0000 0.70770  0.76320  0.66580  Biso   1.000  C
  H445     1.0000 0.72590  0.74630  0.65310  Biso   1.000  H
  C487     1.0000 0.78050  0.90050  0.74110  Biso   1.000  C
  H446     1.0000 0.80990  0.90230  0.74340  Biso   1.000  H
  C488     1.0000 0.76230  0.86580  0.72300  Biso   1.000  C
  H447     1.0000 0.77930  0.84380  0.71280  Biso   1.000  H
  C489     1.0000 0.69440  0.89520  0.73450  Biso   1.000  C
  H448     1.0000 0.66510  0.89340  0.73230  Biso   1.000  H
  C490     1.0000 0.71260  0.93000  0.75270  Biso   1.000  C
  H449     1.0000 0.69570  0.95190  0.76290  Biso   1.000  H
  C491     1.0000 0.75990  0.98550  0.81310  Biso   1.000  C
  H450     1.0000 0.73490  0.97450  0.82430  Biso   1.000  H
  C492     1.0000 0.78020  0.01770  0.83280  Biso   1.000  C
  H451     1.0000 0.76910  0.02920  0.85770  Biso   1.000  H
  O122     1.0000 0.85350  0.10320  0.78300  Biso   1.000  O
  O123     1.0000 0.70660  0.66640  0.61380  Biso   1.000  O
  O124     1.0000 0.40030  0.55090  0.33610  Biso   1.000  O
  C493     1.0000 0.51010  0.54120  0.33040  Biso   1.000  C
  H452     1.0000 0.51820  0.56960  0.32960  Biso   1.000  H
  C494     1.0000 0.13960  0.28770  0.18480  Biso   1.000  C
  H453     1.0000 0.11020  0.28580  0.18390  Biso   1.000  H
  C495     1.0000 0.15750  0.32150  0.20500  Biso   1.000  C
  H454     1.0000 0.13970  0.33630  0.22810  Biso   1.000  H
  C496     1.0000 0.20050  0.32620  0.20200  Biso   1.000  C
  C497     1.0000 0.22560  0.29700  0.18600  Biso   1.000  C
  H455     1.0000 0.25450  0.29680  0.19760  Biso   1.000  H
  C498     1.0000 0.20770  0.26320  0.16580  Biso   1.000  C
  H456     1.0000 0.22590  0.24630  0.15310  Biso   1.000  H
  C499     1.0000 0.28050  0.40050  0.24110  Biso   1.000  C
  H457     1.0000 0.30990  0.40230  0.24340  Biso   1.000  H
  C500     1.0000 0.26230  0.36580  0.22300  Biso   1.000  C
  H458     1.0000 0.27930  0.34380  0.21280  Biso   1.000  H
  C501     1.0000 0.19440  0.39520  0.23450  Biso   1.000  C
  H459     1.0000 0.16510  0.39340  0.23230  Biso   1.000  H
  C502     1.0000 0.21260  0.43000  0.25270  Biso   1.000  C
  H460     1.0000 0.19570  0.45190  0.26290  Biso   1.000  H
  C503     1.0000 0.25990  0.48550  0.31310  Biso   1.000  C
  H461     1.0000 0.23490  0.47450  0.32430  Biso   1.000  H
  C504     1.0000 0.28020  0.51770  0.33280  Biso   1.000  C
  H462     1.0000 0.26910  0.52920  0.35770  Biso   1.000  H
  O125     1.0000 0.35350  0.60320  0.28300  Biso   1.000  O
  O126     1.0000 0.20660  0.16640  0.11380  Biso   1.000  O
  O127     1.0000 0.90030  0.94910  0.16390  Biso   1.000  O
  C505     1.0000 0.01010  0.95880  0.16960  Biso   1.000  C
  H463     1.0000 0.01820  0.93040  0.17040  Biso   1.000  H
  C506     1.0000 0.63960  0.21230  0.31520  Biso   1.000  C
  H464     1.0000 0.61020  0.21420  0.31610  Biso   1.000  H
  C507     1.0000 0.65750  0.17850  0.29500  Biso   1.000  C
  H465     1.0000 0.63970  0.16370  0.27190  Biso   1.000  H
  C508     1.0000 0.70050  0.17380  0.29800  Biso   1.000  C
  C509     1.0000 0.72560  0.20300  0.31400  Biso   1.000  C
  H466     1.0000 0.75450  0.20320  0.30240  Biso   1.000  H
  C510     1.0000 0.70770  0.23680  0.33420  Biso   1.000  C
  H467     1.0000 0.72590  0.25370  0.34690  Biso   1.000  H
  C511     1.0000 0.78050  0.09950  0.25890  Biso   1.000  C
  H468     1.0000 0.80990  0.09770  0.25660  Biso   1.000  H
  C512     1.0000 0.76230  0.13420  0.27700  Biso   1.000  C
  H469     1.0000 0.77930  0.15620  0.28720  Biso   1.000  H
  C513     1.0000 0.69440  0.10480  0.26550  Biso   1.000  C
  H470     1.0000 0.66510  0.10660  0.26770  Biso   1.000  H
  C514     1.0000 0.71260  0.07000  0.24730  Biso   1.000  C
  H471     1.0000 0.69570  0.04810  0.23710  Biso   1.000  H
  C515     1.0000 0.75990  0.01450  0.18690  Biso   1.000  C
  H472     1.0000 0.73490  0.02550  0.17570  Biso   1.000  H
  C516     1.0000 0.78020  0.98230  0.16720  Biso   1.000  C
  H473     1.0000 0.76910  0.97080  0.14230  Biso   1.000  H
  O128     1.0000 0.85350  0.89680  0.21700  Biso   1.000  O
  O129     1.0000 0.70660  0.33360  0.38620  Biso   1.000  O
  O130     1.0000 0.40030  0.44910  0.66390  Biso   1.000  O
  C517     1.0000 0.51010  0.45880  0.66960  Biso   1.000  C
  H474     1.0000 0.51820  0.43040  0.67040  Biso   1.000  H
  C518     1.0000 0.13960  0.71230  0.81520  Biso   1.000  C
  H475     1.0000 0.11020  0.71420  0.81610  Biso   1.000  H
  C519     1.0000 0.15750  0.67850  0.79500  Biso   1.000  C
  H476     1.0000 0.13970  0.66370  0.77190  Biso   1.000  H
  C520     1.0000 0.20050  0.67380  0.79800  Biso   1.000  C
  C521     1.0000 0.22560  0.70300  0.81400  Biso   1.000  C
  H477     1.0000 0.25450  0.70320  0.80240  Biso   1.000  H
  C522     1.0000 0.20770  0.73680  0.83420  Biso   1.000  C
  H478     1.0000 0.22590  0.75370  0.84690  Biso   1.000  H
  C523     1.0000 0.28050  0.59950  0.75890  Biso   1.000  C
  H479     1.0000 0.30990  0.59770  0.75660  Biso   1.000  H
  C524     1.0000 0.26230  0.63420  0.77700  Biso   1.000  C
  H480     1.0000 0.27930  0.65620  0.78720  Biso   1.000  H
  C525     1.0000 0.19440  0.60480  0.76550  Biso   1.000  C
  H481     1.0000 0.16510  0.60660  0.76770  Biso   1.000  H
  C526     1.0000 0.21260  0.57000  0.74730  Biso   1.000  C
  H482     1.0000 0.19570  0.54810  0.73710  Biso   1.000  H
  C527     1.0000 0.25990  0.51450  0.68690  Biso   1.000  C
  H483     1.0000 0.23490  0.52550  0.67570  Biso   1.000  H
  C528     1.0000 0.28020  0.48230  0.66720  Biso   1.000  C
  H484     1.0000 0.26910  0.47080  0.64230  Biso   1.000  H
  O131     1.0000 0.35350  0.39680  0.71700  Biso   1.000  O
  O132     1.0000 0.20660  0.83360  0.88620  Biso   1.000  O
  O133     1.0000 0.09970  0.05090  0.16390  Biso   1.000  O
  C529     1.0000 0.98990  0.04120  0.16960  Biso   1.000  C
  H485     1.0000 0.98180  0.06960  0.17040  Biso   1.000  H
  C530     1.0000 0.36040  0.78770  0.31520  Biso   1.000  C
  H486     1.0000 0.38980  0.78580  0.31610  Biso   1.000  H
  C531     1.0000 0.34250  0.82150  0.29500  Biso   1.000  C
  H487     1.0000 0.36030  0.83630  0.27190  Biso   1.000  H
  C532     1.0000 0.29950  0.82620  0.29800  Biso   1.000  C
  C533     1.0000 0.27440  0.79700  0.31400  Biso   1.000  C
  H488     1.0000 0.24550  0.79680  0.30240  Biso   1.000  H
  C534     1.0000 0.29230  0.76320  0.33420  Biso   1.000  C
  H489     1.0000 0.27410  0.74630  0.34690  Biso   1.000  H
  C535     1.0000 0.21950  0.90050  0.25890  Biso   1.000  C
  H490     1.0000 0.19010  0.90230  0.25660  Biso   1.000  H
  C536     1.0000 0.23770  0.86580  0.27700  Biso   1.000  C
  H491     1.0000 0.22070  0.84380  0.28720  Biso   1.000  H
  C537     1.0000 0.30560  0.89520  0.26550  Biso   1.000  C
  H492     1.0000 0.33490  0.89340  0.26770  Biso   1.000  H
  C538     1.0000 0.28740  0.93000  0.24730  Biso   1.000  C
  H493     1.0000 0.30430  0.95190  0.23710  Biso   1.000  H
  C539     1.0000 0.24010  0.98550  0.18690  Biso   1.000  C
  H494     1.0000 0.26510  0.97450  0.17570  Biso   1.000  H
  C540     1.0000 0.21980  0.01770  0.16720  Biso   1.000  C
  H495     1.0000 0.23090  0.02920  0.14230  Biso   1.000  H
  O134     1.0000 0.14650  0.10320  0.21700  Biso   1.000  O
  O135     1.0000 0.29340  0.66640  0.38620  Biso   1.000  O
  O136     1.0000 0.59970  0.55090  0.66390  Biso   1.000  O
  C541     1.0000 0.48990  0.54120  0.66960  Biso   1.000  C
  H496     1.0000 0.48180  0.56960  0.67040  Biso   1.000  H
  C542     1.0000 0.86040  0.28770  0.81520  Biso   1.000  C
  H497     1.0000 0.88980  0.28580  0.81610  Biso   1.000  H
  C543     1.0000 0.84250  0.32150  0.79500  Biso   1.000  C
  H498     1.0000 0.86030  0.33630  0.77190  Biso   1.000  H
  C544     1.0000 0.79950  0.32620  0.79800  Biso   1.000  C
  C545     1.0000 0.77440  0.29700  0.81400  Biso   1.000  C
  H499     1.0000 0.74550  0.29680  0.80240  Biso   1.000  H
  C546     1.0000 0.79230  0.26320  0.83420  Biso   1.000  C
  H500     1.0000 0.77410  0.24630  0.84690  Biso   1.000  H
  C547     1.0000 0.71950  0.40050  0.75890  Biso   1.000  C
  H501     1.0000 0.69010  0.40230  0.75660  Biso   1.000  H
  C548     1.0000 0.73770  0.36580  0.77700  Biso   1.000  C
  H502     1.0000 0.72070  0.34380  0.78720  Biso   1.000  H
  C549     1.0000 0.80560  0.39520  0.76550  Biso   1.000  C
  H503     1.0000 0.83490  0.39340  0.76770  Biso   1.000  H
  C550     1.0000 0.78740  0.43000  0.74730  Biso   1.000  C
  H504     1.0000 0.80430  0.45190  0.73710  Biso   1.000  H
  C551     1.0000 0.74010  0.48550  0.68690  Biso   1.000  C
  H505     1.0000 0.76510  0.47450  0.67570  Biso   1.000  H
  C552     1.0000 0.71980  0.51770  0.66720  Biso   1.000  C
  H506     1.0000 0.73090  0.52920  0.64230  Biso   1.000  H
  O137     1.0000 0.64650  0.60320  0.71700  Biso   1.000  O
  O138     1.0000 0.79340  0.16640  0.88620  Biso   1.000  O
  O139     1.0000 0.09970  0.94910  0.83610  Biso   1.000  O
  C553     1.0000 0.98990  0.95880  0.83040  Biso   1.000  C
  H507     1.0000 0.98180  0.93040  0.82960  Biso   1.000  H
  C554     1.0000 0.36040  0.21230  0.68480  Biso   1.000  C
  H508     1.0000 0.38980  0.21420  0.68390  Biso   1.000  H
  C555     1.0000 0.34250  0.17850  0.70500  Biso   1.000  C
  H509     1.0000 0.36030  0.16370  0.72810  Biso   1.000  H
  C556     1.0000 0.29950  0.17380  0.70200  Biso   1.000  C
  C557     1.0000 0.27440  0.20300  0.68600  Biso   1.000  C
  H510     1.0000 0.24550  0.20320  0.69760  Biso   1.000  H
  C558     1.0000 0.29230  0.23680  0.66580  Biso   1.000  C
  H511     1.0000 0.27410  0.25370  0.65310  Biso   1.000  H
  C559     1.0000 0.21950  0.09950  0.74110  Biso   1.000  C
  H512     1.0000 0.19010  0.09770  0.74340  Biso   1.000  H
  C560     1.0000 0.23770  0.13420  0.72300  Biso   1.000  C
  H513     1.0000 0.22070  0.15620  0.71280  Biso   1.000  H
  C561     1.0000 0.30560  0.10480  0.73450  Biso   1.000  C
  H514     1.0000 0.33490  0.10660  0.73230  Biso   1.000  H
  C562     1.0000 0.28740  0.07000  0.75270  Biso   1.000  C
  H515     1.0000 0.30430  0.04810  0.76290  Biso   1.000  H
  C563     1.0000 0.24010  0.01450  0.81310  Biso   1.000  C
  H516     1.0000 0.26510  0.02550  0.82430  Biso   1.000  H
  C564     1.0000 0.21980  0.98230  0.83280  Biso   1.000  C
  H517     1.0000 0.23090  0.97080  0.85770  Biso   1.000  H
  O140     1.0000 0.14650  0.89680  0.78300  Biso   1.000  O
  O141     1.0000 0.29340  0.33360  0.61380  Biso   1.000  O
  O142     1.0000 0.59970  0.44910  0.33610  Biso   1.000  O
  C565     1.0000 0.48990  0.45880  0.33040  Biso   1.000  C
  H518     1.0000 0.48180  0.43040  0.32960  Biso   1.000  H
  C566     1.0000 0.86040  0.71230  0.18480  Biso   1.000  C
  H519     1.0000 0.88980  0.71420  0.18390  Biso   1.000  H
  C567     1.0000 0.84250  0.67850  0.20500  Biso   1.000  C
  H520     1.0000 0.86030  0.66370  0.22810  Biso   1.000  H
  C568     1.0000 0.79950  0.67380  0.20200  Biso   1.000  C
  C569     1.0000 0.77440  0.70300  0.18600  Biso   1.000  C
  H521     1.0000 0.74550  0.70320  0.19760  Biso   1.000  H
  C570     1.0000 0.79230  0.73680  0.16580  Biso   1.000  C
  H522     1.0000 0.77410  0.75370  0.15310  Biso   1.000  H
  C571     1.0000 0.71950  0.59950  0.24110  Biso   1.000  C
  H523     1.0000 0.69010  0.59770  0.24340  Biso   1.000  H
  C572     1.0000 0.73770  0.63420  0.22300  Biso   1.000  C
  H524     1.0000 0.72070  0.65620  0.21280  Biso   1.000  H
  C573     1.0000 0.80560  0.60480  0.23450  Biso   1.000  C
  H525     1.0000 0.83490  0.60660  0.23230  Biso   1.000  H
  C574     1.0000 0.78740  0.57000  0.25270  Biso   1.000  C
  H526     1.0000 0.80430  0.54810  0.26290  Biso   1.000  H
  C575     1.0000 0.74010  0.51450  0.31310  Biso   1.000  C
  H527     1.0000 0.76510  0.52550  0.32430  Biso   1.000  H
  C576     1.0000 0.71980  0.48230  0.33280  Biso   1.000  C
  H528     1.0000 0.73090  0.47080  0.35770  Biso   1.000  H
  O143     1.0000 0.64650  0.39680  0.28300  Biso   1.000  O
  O144     1.0000 0.79340  0.83360  0.11380  Biso   1.000  O
  Ni1      1.0000 0.84493  0.08146  0.84493  Biso   1.000  Ni
  N1       1.0000 0.81640  0.03300  0.81640  Biso   1.000  N
  C577     1.0000 0.66479  0.75860  0.66479  Biso   1.000  C
  C578     1.0000 0.64240  0.72230  0.64240  Biso   1.000  C
  C579     1.0000 0.77650  0.96920  0.77650  Biso   1.000  C
  C580     1.0000 0.75580  0.93260  0.75580  Biso   1.000  C
  C581     1.0000 0.71950  0.86310  0.71950  Biso   1.000  C
  Ni2      1.0000 0.34493  0.58146  0.34493  Biso   1.000  Ni
  N2       1.0000 0.31640  0.53300  0.31640  Biso   1.000  N
  C582     1.0000 0.16479  0.25860  0.16479  Biso   1.000  C
  C583     1.0000 0.14240  0.22230  0.14240  Biso   1.000  C
  C584     1.0000 0.27650  0.46920  0.27650  Biso   1.000  C
  C585     1.0000 0.25580  0.43260  0.25580  Biso   1.000  C
  C586     1.0000 0.21950  0.36310  0.21950  Biso   1.000  C
  Ni3      1.0000 0.15507  0.91854  0.84493  Biso   1.000  Ni
  N3       1.0000 0.18360  0.96700  0.81640  Biso   1.000  N
  C587     1.0000 0.33521  0.24140  0.66479  Biso   1.000  C
  C588     1.0000 0.35760  0.27770  0.64240  Biso   1.000  C
  C589     1.0000 0.22350  0.03080  0.77650  Biso   1.000  C
  C590     1.0000 0.24420  0.06740  0.75580  Biso   1.000  C
  C591     1.0000 0.28050  0.13690  0.71950  Biso   1.000  C
  Ni4      1.0000 0.65507  0.41854  0.34493  Biso   1.000  Ni
  N4       1.0000 0.68360  0.46700  0.31640  Biso   1.000  N
  C592     1.0000 0.83521  0.74140  0.16479  Biso   1.000  C
  C593     1.0000 0.85760  0.77770  0.14240  Biso   1.000  C
  C594     1.0000 0.72350  0.53080  0.27650  Biso   1.000  C
  C595     1.0000 0.74420  0.56740  0.25580  Biso   1.000  C
  C596     1.0000 0.78050  0.63690  0.21950  Biso   1.000  C
  Ni5      1.0000 0.15507  0.08146  0.15507  Biso   1.000  Ni
  N5       1.0000 0.18360  0.03300  0.18360  Biso   1.000  N
  C597     1.0000 0.33521  0.75860  0.33521  Biso   1.000  C
  C598     1.0000 0.35760  0.72230  0.35760  Biso   1.000  C
  C599     1.0000 0.22350  0.96920  0.22350  Biso   1.000  C
  C600     1.0000 0.24420  0.93260  0.24420  Biso   1.000  C
  C601     1.0000 0.28050  0.86310  0.28050  Biso   1.000  C
  Ni6      1.0000 0.65507  0.58146  0.65507  Biso   1.000  Ni
  N6       1.0000 0.68360  0.53300  0.68360  Biso   1.000  N
  C602     1.0000 0.83521  0.25860  0.83521  Biso   1.000  C
  C603     1.0000 0.85760  0.22230  0.85760  Biso   1.000  C
  C604     1.0000 0.72350  0.46920  0.72350  Biso   1.000  C
  C605     1.0000 0.74420  0.43260  0.74420  Biso   1.000  C
  C606     1.0000 0.78050  0.36310  0.78050  Biso   1.000  C
  Ni7      1.0000 0.84493  0.91854  0.15507  Biso   1.000  Ni
  N7       1.0000 0.81640  0.96700  0.18360  Biso   1.000  N
  C607     1.0000 0.66479  0.24140  0.33521  Biso   1.000  C
  C608     1.0000 0.64240  0.27770  0.35760  Biso   1.000  C
  C609     1.0000 0.77650  0.03080  0.22350  Biso   1.000  C
  C610     1.0000 0.75580  0.06740  0.24420  Biso   1.000  C
  C611     1.0000 0.71950  0.13690  0.28050  Biso   1.000  C
  Ni8      1.0000 0.34493  0.41854  0.65507  Biso   1.000  Ni
  N8       1.0000 0.31640  0.46700  0.68360  Biso   1.000  N
  C612     1.0000 0.16479  0.74140  0.83521  Biso   1.000  C
  C613     1.0000 0.14240  0.77770  0.85760  Biso   1.000  C
  C614     1.0000 0.27650  0.53080  0.72350  Biso   1.000  C
  C615     1.0000 0.25580  0.56740  0.74420  Biso   1.000  C
  C616     1.0000 0.21950  0.63690  0.78050  Biso   1.000  C
  Ni9      1.0000 0.84493  0.84493  0.08146  Biso   1.000  Ni
  N9       1.0000 0.81640  0.81640  0.03300  Biso   1.000  N
  C617     1.0000 0.66479  0.66479  0.75860  Biso   1.000  C
  C618     1.0000 0.64240  0.64240  0.72230  Biso   1.000  C
  C619     1.0000 0.77650  0.77650  0.96920  Biso   1.000  C
  C620     1.0000 0.75580  0.75580  0.93260  Biso   1.000  C
  C621     1.0000 0.71950  0.71950  0.86310  Biso   1.000  C
  Ni10     1.0000 0.34493  0.34493  0.58146  Biso   1.000  Ni
  N10      1.0000 0.31640  0.31640  0.53300  Biso   1.000  N
  C622     1.0000 0.16479  0.16479  0.25860  Biso   1.000  C
  C623     1.0000 0.14240  0.14240  0.22230  Biso   1.000  C
  C624     1.0000 0.27650  0.27650  0.46920  Biso   1.000  C
  C625     1.0000 0.25580  0.25580  0.43260  Biso   1.000  C
  C626     1.0000 0.21950  0.21950  0.36310  Biso   1.000  C
  Ni11     1.0000 0.84493  0.15507  0.91854  Biso   1.000  Ni
  N11      1.0000 0.81640  0.18360  0.96700  Biso   1.000  N
  C627     1.0000 0.66479  0.33521  0.24140  Biso   1.000  C
  C628     1.0000 0.64240  0.35760  0.27770  Biso   1.000  C
  C629     1.0000 0.77650  0.22350  0.03080  Biso   1.000  C
  C630     1.0000 0.75580  0.24420  0.06740  Biso   1.000  C
  C631     1.0000 0.71950  0.28050  0.13690  Biso   1.000  C
  Ni12     1.0000 0.34493  0.65507  0.41854  Biso   1.000  Ni
  N12      1.0000 0.31640  0.68360  0.46700  Biso   1.000  N
  C632     1.0000 0.16479  0.83521  0.74140  Biso   1.000  C
  C633     1.0000 0.14240  0.85760  0.77770  Biso   1.000  C
  C634     1.0000 0.27650  0.72350  0.53080  Biso   1.000  C
  C635     1.0000 0.25580  0.74420  0.56740  Biso   1.000  C
  C636     1.0000 0.21950  0.78050  0.63690  Biso   1.000  C
  Ni13     1.0000 0.15507  0.15507  0.08146  Biso   1.000  Ni
  N13      1.0000 0.18360  0.18360  0.03300  Biso   1.000  N
  C637     1.0000 0.33521  0.33521  0.75860  Biso   1.000  C
  C638     1.0000 0.35760  0.35760  0.72230  Biso   1.000  C
  C639     1.0000 0.22350  0.22350  0.96920  Biso   1.000  C
  C640     1.0000 0.24420  0.24420  0.93260  Biso   1.000  C
  C641     1.0000 0.28050  0.28050  0.86310  Biso   1.000  C
  Ni14     1.0000 0.65507  0.65507  0.58146  Biso   1.000  Ni
  N14      1.0000 0.68360  0.68360  0.53300  Biso   1.000  N
  C642     1.0000 0.83521  0.83521  0.25860  Biso   1.000  C
  C643     1.0000 0.85760  0.85760  0.22230  Biso   1.000  C
  C644     1.0000 0.72350  0.72350  0.46920  Biso   1.000  C
  C645     1.0000 0.74420  0.74420  0.43260  Biso   1.000  C
  C646     1.0000 0.78050  0.78050  0.36310  Biso   1.000  C
  Ni15     1.0000 0.15507  0.84493  0.91854  Biso   1.000  Ni
  N15      1.0000 0.18360  0.81640  0.96700  Biso   1.000  N
  C647     1.0000 0.33521  0.66479  0.24140  Biso   1.000  C
  C648     1.0000 0.35760  0.64240  0.27770  Biso   1.000  C
  C649     1.0000 0.22350  0.77650  0.03080  Biso   1.000  C
  C650     1.0000 0.24420  0.75580  0.06740  Biso   1.000  C
  C651     1.0000 0.28050  0.71950  0.13690  Biso   1.000  C
  Ni16     1.0000 0.65507  0.34493  0.41854  Biso   1.000  Ni
  N16      1.0000 0.68360  0.31640  0.46700  Biso   1.000  N
  C652     1.0000 0.83521  0.16479  0.74140  Biso   1.000  C
  C653     1.0000 0.85760  0.14240  0.77770  Biso   1.000  C
  C654     1.0000 0.72350  0.27650  0.53080  Biso   1.000  C
  C655     1.0000 0.74420  0.25580  0.56740  Biso   1.000  C
  C656     1.0000 0.78050  0.21950  0.63690  Biso   1.000  C
  Ni17     1.0000 0.08146  0.84493  0.84493  Biso   1.000  Ni
  N17      1.0000 0.03300  0.81640  0.81640  Biso   1.000  N
  C657     1.0000 0.75860  0.66479  0.66479  Biso   1.000  C
  C658     1.0000 0.72230  0.64240  0.64240  Biso   1.000  C
  C659     1.0000 0.96920  0.77650  0.77650  Biso   1.000  C
  C660     1.0000 0.93260  0.75580  0.75580  Biso   1.000  C
  C661     1.0000 0.86310  0.71950  0.71950  Biso   1.000  C
  Ni18     1.0000 0.58146  0.34493  0.34493  Biso   1.000  Ni
  N18      1.0000 0.53300  0.31640  0.31640  Biso   1.000  N
  C662     1.0000 0.25860  0.16479  0.16479  Biso   1.000  C
  C663     1.0000 0.22230  0.14240  0.14240  Biso   1.000  C
  C664     1.0000 0.46920  0.27650  0.27650  Biso   1.000  C
  C665     1.0000 0.43260  0.25580  0.25580  Biso   1.000  C
  C666     1.0000 0.36310  0.21950  0.21950  Biso   1.000  C
  Ni19     1.0000 0.91854  0.84493  0.15507  Biso   1.000  Ni
  N19      1.0000 0.96700  0.81640  0.18360  Biso   1.000  N
  C667     1.0000 0.24140  0.66479  0.33521  Biso   1.000  C
  C668     1.0000 0.27770  0.64240  0.35760  Biso   1.000  C
  C669     1.0000 0.03080  0.77650  0.22350  Biso   1.000  C
  C670     1.0000 0.06740  0.75580  0.24420  Biso   1.000  C
  C671     1.0000 0.13690  0.71950  0.28050  Biso   1.000  C
  Ni20     1.0000 0.41854  0.34493  0.65507  Biso   1.000  Ni
  N20      1.0000 0.46700  0.31640  0.68360  Biso   1.000  N
  C672     1.0000 0.74140  0.16479  0.83521  Biso   1.000  C
  C673     1.0000 0.77770  0.14240  0.85760  Biso   1.000  C
  C674     1.0000 0.53080  0.27650  0.72350  Biso   1.000  C
  C675     1.0000 0.56740  0.25580  0.74420  Biso   1.000  C
  C676     1.0000 0.63690  0.21950  0.78050  Biso   1.000  C
  Ni21     1.0000 0.08146  0.15507  0.15507  Biso   1.000  Ni
  N21      1.0000 0.03300  0.18360  0.18360  Biso   1.000  N
  C677     1.0000 0.75860  0.33521  0.33521  Biso   1.000  C
  C678     1.0000 0.72230  0.35760  0.35760  Biso   1.000  C
  C679     1.0000 0.96920  0.22350  0.22350  Biso   1.000  C
  C680     1.0000 0.93260  0.24420  0.24420  Biso   1.000  C
  C681     1.0000 0.86310  0.28050  0.28050  Biso   1.000  C
  Ni22     1.0000 0.58146  0.65507  0.65507  Biso   1.000  Ni
  N22      1.0000 0.53300  0.68360  0.68360  Biso   1.000  N
  C682     1.0000 0.25860  0.83521  0.83521  Biso   1.000  C
  C683     1.0000 0.22230  0.85760  0.85760  Biso   1.000  C
  C684     1.0000 0.46920  0.72350  0.72350  Biso   1.000  C
  C685     1.0000 0.43260  0.74420  0.74420  Biso   1.000  C
  C686     1.0000 0.36310  0.78050  0.78050  Biso   1.000  C
  Ni23     1.0000 0.91854  0.15507  0.84493  Biso   1.000  Ni
  N23      1.0000 0.96700  0.18360  0.81640  Biso   1.000  N
  C687     1.0000 0.24140  0.33521  0.66479  Biso   1.000  C
  C688     1.0000 0.27770  0.35760  0.64240  Biso   1.000  C
  C689     1.0000 0.03080  0.22350  0.77650  Biso   1.000  C
  C690     1.0000 0.06740  0.24420  0.75580  Biso   1.000  C
  C691     1.0000 0.13690  0.28050  0.71950  Biso   1.000  C
  Ni24     1.0000 0.41854  0.65507  0.34493  Biso   1.000  Ni
  N24      1.0000 0.46700  0.68360  0.31640  Biso   1.000  N
  C692     1.0000 0.74140  0.83521  0.16479  Biso   1.000  C
  C693     1.0000 0.77770  0.85760  0.14240  Biso   1.000  C
  C694     1.0000 0.53080  0.72350  0.27650  Biso   1.000  C
  C695     1.0000 0.56740  0.74420  0.25580  Biso   1.000  C
  C696     1.0000 0.63690  0.78050  0.21950  Biso   1.000  C
  O145     1.0000 0.87580  0.12420  0.87580  Biso   1.000  O
  O146     1.0000 0.37580  0.62420  0.37580  Biso   1.000  O
  O147     1.0000 0.12420  0.87580  0.87580  Biso   1.000  O
  O148     1.0000 0.62420  0.37580  0.37580  Biso   1.000  O
  O149     1.0000 0.12420  0.12420  0.12420  Biso   1.000  O
  O150     1.0000 0.62420  0.62420  0.62420  Biso   1.000  O
  O151     1.0000 0.87580  0.87580  0.12420  Biso   1.000  O
  O152     1.0000 0.37580  0.37580  0.62420  Biso   1.000  O
  C697     1.0000 0.83150  0.03160  0.96840  Biso   1.000  C
  C698     1.0000 0.83310  0.06340  0.93660  Biso   1.000  C
  C699     1.0000 0.33150  0.53160  0.46840  Biso   1.000  C
  C700     1.0000 0.33310  0.56340  0.43660  Biso   1.000  C
  C701     1.0000 0.16850  0.96840  0.96840  Biso   1.000  C
  C702     1.0000 0.16690  0.93660  0.93660  Biso   1.000  C
  C703     1.0000 0.66850  0.46840  0.46840  Biso   1.000  C
  C704     1.0000 0.66690  0.43660  0.43660  Biso   1.000  C
  C705     1.0000 0.16850  0.03160  0.03160  Biso   1.000  C
  C706     1.0000 0.16690  0.06340  0.06340  Biso   1.000  C
  C707     1.0000 0.66850  0.53160  0.53160  Biso   1.000  C
  C708     1.0000 0.66690  0.56340  0.56340  Biso   1.000  C
  C709     1.0000 0.83150  0.96840  0.03160  Biso   1.000  C
  C710     1.0000 0.83310  0.93660  0.06340  Biso   1.000  C
  C711     1.0000 0.33150  0.46840  0.53160  Biso   1.000  C
  C712     1.0000 0.33310  0.43660  0.56340  Biso   1.000  C
  C713     1.0000 0.96840  0.83150  0.03160  Biso   1.000  C
  C714     1.0000 0.93660  0.83310  0.06340  Biso   1.000  C
  C715     1.0000 0.46840  0.33150  0.53160  Biso   1.000  C
  C716     1.0000 0.43660  0.33310  0.56340  Biso   1.000  C
  C717     1.0000 0.96840  0.16850  0.96840  Biso   1.000  C
  C718     1.0000 0.93660  0.16690  0.93660  Biso   1.000  C
  C719     1.0000 0.46840  0.66850  0.46840  Biso   1.000  C
  C720     1.0000 0.43660  0.66690  0.43660  Biso   1.000  C
  C721     1.0000 0.03160  0.16850  0.03160  Biso   1.000  C
  C722     1.0000 0.06340  0.16690  0.06340  Biso   1.000  C
  C723     1.0000 0.53160  0.66850  0.53160  Biso   1.000  C
  C724     1.0000 0.56340  0.66690  0.56340  Biso   1.000  C
  C725     1.0000 0.03160  0.83150  0.96840  Biso   1.000  C
  C726     1.0000 0.06340  0.83310  0.93660  Biso   1.000  C
  C727     1.0000 0.53160  0.33150  0.46840  Biso   1.000  C
  C728     1.0000 0.56340  0.33310  0.43660  Biso   1.000  C
  C729     1.0000 0.03160  0.96840  0.83150  Biso   1.000  C
  C730     1.0000 0.06340  0.93660  0.83310  Biso   1.000  C
  C731     1.0000 0.53160  0.46840  0.33150  Biso   1.000  C
  C732     1.0000 0.56340  0.43660  0.33310  Biso   1.000  C
  C733     1.0000 0.96840  0.96840  0.16850  Biso   1.000  C
  C734     1.0000 0.93660  0.93660  0.16690  Biso   1.000  C
  C735     1.0000 0.46840  0.46840  0.66850  Biso   1.000  C
  C736     1.0000 0.43660  0.43660  0.66690  Biso   1.000  C
  C737     1.0000 0.03160  0.03160  0.16850  Biso   1.000  C
  C738     1.0000 0.06340  0.06340  0.16690  Biso   1.000  C
  C739     1.0000 0.53160  0.53160  0.66850  Biso   1.000  C
  C740     1.0000 0.56340  0.56340  0.66690  Biso   1.000  C
  C741     1.0000 0.96840  0.03160  0.83150  Biso   1.000  C
  C742     1.0000 0.93660  0.06340  0.83310  Biso   1.000  C
  C743     1.0000 0.46840  0.53160  0.33150  Biso   1.000  C
  C744     1.0000 0.43660  0.56340  0.33310  Biso   1.000  C
  C745     1.0000 0.26800  0.73200  0.49090  Biso   1.000  C
  H529     1.0000 0.24760  0.75240  0.48480  Biso   1.000  H
  C746     1.0000 0.28710  0.71290  0.45950  Biso   1.000  C
  H530     1.0000 0.28010  0.71990  0.43160  Biso   1.000  H
  C747     1.0000 0.30630  0.69370  0.53900  Biso   1.000  C
  H531     1.0000 0.31300  0.68700  0.56700  Biso   1.000  H
  C748     1.0000 0.32590  0.67410  0.50760  Biso   1.000  C
  H532     1.0000 0.34640  0.65360  0.51360  Biso   1.000  H
  C749     1.0000 0.76800  0.23200  0.99090  Biso   1.000  C
  H533     1.0000 0.74760  0.25240  0.98480  Biso   1.000  H
  C750     1.0000 0.78710  0.21290  0.95950  Biso   1.000  C
  H534     1.0000 0.78010  0.21990  0.93160  Biso   1.000  H
  C751     1.0000 0.80630  0.19370  0.03900  Biso   1.000  C
  H535     1.0000 0.81300  0.18700  0.06700  Biso   1.000  H
  C752     1.0000 0.82590  0.17410  0.00760  Biso   1.000  C
  H536     1.0000 0.84640  0.15360  0.01360  Biso   1.000  H
  C753     1.0000 0.73200  0.26800  0.49090  Biso   1.000  C
  H537     1.0000 0.75240  0.24760  0.48480  Biso   1.000  H
  C754     1.0000 0.71290  0.28710  0.45950  Biso   1.000  C
  H538     1.0000 0.71990  0.28010  0.43160  Biso   1.000  H
  C755     1.0000 0.69370  0.30630  0.53900  Biso   1.000  C
  H539     1.0000 0.68700  0.31300  0.56700  Biso   1.000  H
  C756     1.0000 0.67410  0.32590  0.50760  Biso   1.000  C
  H540     1.0000 0.65360  0.34640  0.51360  Biso   1.000  H
  C757     1.0000 0.23200  0.76800  0.99090  Biso   1.000  C
  H541     1.0000 0.25240  0.74760  0.98480  Biso   1.000  H
  C758     1.0000 0.21290  0.78710  0.95950  Biso   1.000  C
  H542     1.0000 0.21990  0.78010  0.93160  Biso   1.000  H
  C759     1.0000 0.19370  0.80630  0.03900  Biso   1.000  C
  H543     1.0000 0.18700  0.81300  0.06700  Biso   1.000  H
  C760     1.0000 0.17410  0.82590  0.00760  Biso   1.000  C
  H544     1.0000 0.15360  0.84640  0.01360  Biso   1.000  H
  C761     1.0000 0.73200  0.73200  0.50910  Biso   1.000  C
  H545     1.0000 0.75240  0.75240  0.51520  Biso   1.000  H
  C762     1.0000 0.71290  0.71290  0.54050  Biso   1.000  C
  H546     1.0000 0.71990  0.71990  0.56840  Biso   1.000  H
  C763     1.0000 0.69370  0.69370  0.46100  Biso   1.000  C
  H547     1.0000 0.68700  0.68700  0.43300  Biso   1.000  H
  C764     1.0000 0.67410  0.67410  0.49240  Biso   1.000  C
  H548     1.0000 0.65360  0.65360  0.48640  Biso   1.000  H
  C765     1.0000 0.23200  0.23200  0.00910  Biso   1.000  C
  H549     1.0000 0.25240  0.25240  0.01520  Biso   1.000  H
  C766     1.0000 0.21290  0.21290  0.04050  Biso   1.000  C
  H550     1.0000 0.21990  0.21990  0.06840  Biso   1.000  H
  C767     1.0000 0.19370  0.19370  0.96100  Biso   1.000  C
  H551     1.0000 0.18700  0.18700  0.93300  Biso   1.000  H
  C768     1.0000 0.17410  0.17410  0.99240  Biso   1.000  C
  H552     1.0000 0.15360  0.15360  0.98640  Biso   1.000  H
  C769     1.0000 0.26800  0.26800  0.50910  Biso   1.000  C
  H553     1.0000 0.24760  0.24760  0.51520  Biso   1.000  H
  C770     1.0000 0.28710  0.28710  0.54050  Biso   1.000  C
  H554     1.0000 0.28010  0.28010  0.56840  Biso   1.000  H
  C771     1.0000 0.30630  0.30630  0.46100  Biso   1.000  C
  H555     1.0000 0.31300  0.31300  0.43300  Biso   1.000  H
  C772     1.0000 0.32590  0.32590  0.49240  Biso   1.000  C
  H556     1.0000 0.34640  0.34640  0.48640  Biso   1.000  H
  C773     1.0000 0.76800  0.76800  0.00910  Biso   1.000  C
  H557     1.0000 0.74760  0.74760  0.01520  Biso   1.000  H
  C774     1.0000 0.78710  0.78710  0.04050  Biso   1.000  C
  H558     1.0000 0.78010  0.78010  0.06840  Biso   1.000  H
  C775     1.0000 0.80630  0.80630  0.96100  Biso   1.000  C
  H559     1.0000 0.81300  0.81300  0.93300  Biso   1.000  H
  C776     1.0000 0.82590  0.82590  0.99240  Biso   1.000  C
  H560     1.0000 0.84640  0.84640  0.98640  Biso   1.000  H
  C777     1.0000 0.49090  0.26800  0.73200  Biso   1.000  C
  H561     1.0000 0.48480  0.24760  0.75240  Biso   1.000  H
  C778     1.0000 0.45950  0.28710  0.71290  Biso   1.000  C
  H562     1.0000 0.43160  0.28010  0.71990  Biso   1.000  H
  C779     1.0000 0.53900  0.30630  0.69370  Biso   1.000  C
  H563     1.0000 0.56700  0.31300  0.68700  Biso   1.000  H
  C780     1.0000 0.50760  0.32590  0.67410  Biso   1.000  C
  H564     1.0000 0.51360  0.34640  0.65360  Biso   1.000  H
  C781     1.0000 0.99090  0.76800  0.23200  Biso   1.000  C
  H565     1.0000 0.98480  0.74760  0.25240  Biso   1.000  H
  C782     1.0000 0.95950  0.78710  0.21290  Biso   1.000  C
  H566     1.0000 0.93160  0.78010  0.21990  Biso   1.000  H
  C783     1.0000 0.03900  0.80630  0.19370  Biso   1.000  C
  H567     1.0000 0.06700  0.81300  0.18700  Biso   1.000  H
  C784     1.0000 0.00760  0.82590  0.17410  Biso   1.000  C
  H568     1.0000 0.01360  0.84640  0.15360  Biso   1.000  H
  C785     1.0000 0.49090  0.73200  0.26800  Biso   1.000  C
  H569     1.0000 0.48480  0.75240  0.24760  Biso   1.000  H
  C786     1.0000 0.45950  0.71290  0.28710  Biso   1.000  C
  H570     1.0000 0.43160  0.71990  0.28010  Biso   1.000  H
  C787     1.0000 0.53900  0.69370  0.30630  Biso   1.000  C
  H571     1.0000 0.56700  0.68700  0.31300  Biso   1.000  H
  C788     1.0000 0.50760  0.67410  0.32590  Biso   1.000  C
  H572     1.0000 0.51360  0.65360  0.34640  Biso   1.000  H
  C789     1.0000 0.99090  0.23200  0.76800  Biso   1.000  C
  H573     1.0000 0.98480  0.25240  0.74760  Biso   1.000  H
  C790     1.0000 0.95950  0.21290  0.78710  Biso   1.000  C
  H574     1.0000 0.93160  0.21990  0.78010  Biso   1.000  H
  C791     1.0000 0.03900  0.19370  0.80630  Biso   1.000  C
  H575     1.0000 0.06700  0.18700  0.81300  Biso   1.000  H
  C792     1.0000 0.00760  0.17410  0.82590  Biso   1.000  C
  H576     1.0000 0.01360  0.15360  0.84640  Biso   1.000  H
  C793     1.0000 0.50910  0.73200  0.73200  Biso   1.000  C
  H577     1.0000 0.51520  0.75240  0.75240  Biso   1.000  H
  C794     1.0000 0.54050  0.71290  0.71290  Biso   1.000  C
  H578     1.0000 0.56840  0.71990  0.71990  Biso   1.000  H
  C795     1.0000 0.46100  0.69370  0.69370  Biso   1.000  C
  H579     1.0000 0.43300  0.68700  0.68700  Biso   1.000  H
  C796     1.0000 0.49240  0.67410  0.67410  Biso   1.000  C
  H580     1.0000 0.48640  0.65360  0.65360  Biso   1.000  H
  C797     1.0000 0.00910  0.23200  0.23200  Biso   1.000  C
  H581     1.0000 0.01520  0.25240  0.25240  Biso   1.000  H
  C798     1.0000 0.04050  0.21290  0.21290  Biso   1.000  C
  H582     1.0000 0.06840  0.21990  0.21990  Biso   1.000  H
  C799     1.0000 0.96100  0.19370  0.19370  Biso   1.000  C
  H583     1.0000 0.93300  0.18700  0.18700  Biso   1.000  H
  C800     1.0000 0.99240  0.17410  0.17410  Biso   1.000  C
  H584     1.0000 0.98640  0.15360  0.15360  Biso   1.000  H
  C801     1.0000 0.50910  0.26800  0.26800  Biso   1.000  C
  H585     1.0000 0.51520  0.24760  0.24760  Biso   1.000  H
  C802     1.0000 0.54050  0.28710  0.28710  Biso   1.000  C
  H586     1.0000 0.56840  0.28010  0.28010  Biso   1.000  H
  C803     1.0000 0.46100  0.30630  0.30630  Biso   1.000  C
  H587     1.0000 0.43300  0.31300  0.31300  Biso   1.000  H
  C804     1.0000 0.49240  0.32590  0.32590  Biso   1.000  C
  H588     1.0000 0.48640  0.34640  0.34640  Biso   1.000  H
  C805     1.0000 0.00910  0.76800  0.76800  Biso   1.000  C
  H589     1.0000 0.01520  0.74760  0.74760  Biso   1.000  H
  C806     1.0000 0.04050  0.78710  0.78710  Biso   1.000  C
  H590     1.0000 0.06840  0.78010  0.78010  Biso   1.000  H
  C807     1.0000 0.96100  0.80630  0.80630  Biso   1.000  C
  H591     1.0000 0.93300  0.81300  0.81300  Biso   1.000  H
  C808     1.0000 0.99240  0.82590  0.82590  Biso   1.000  C
  H592     1.0000 0.98640  0.84640  0.84640  Biso   1.000  H
  C809     1.0000 0.73200  0.49090  0.26800  Biso   1.000  C
  H593     1.0000 0.75240  0.48480  0.24760  Biso   1.000  H
  C810     1.0000 0.71290  0.45950  0.28710  Biso   1.000  C
  H594     1.0000 0.71990  0.43160  0.28010  Biso   1.000  H
  C811     1.0000 0.69370  0.53900  0.30630  Biso   1.000  C
  H595     1.0000 0.68700  0.56700  0.31300  Biso   1.000  H
  C812     1.0000 0.67410  0.50760  0.32590  Biso   1.000  C
  H596     1.0000 0.65360  0.51360  0.34640  Biso   1.000  H
  C813     1.0000 0.23200  0.99090  0.76800  Biso   1.000  C
  H597     1.0000 0.25240  0.98480  0.74760  Biso   1.000  H
  C814     1.0000 0.21290  0.95950  0.78710  Biso   1.000  C
  H598     1.0000 0.21990  0.93160  0.78010  Biso   1.000  H
  C815     1.0000 0.19370  0.03900  0.80630  Biso   1.000  C
  H599     1.0000 0.18700  0.06700  0.81300  Biso   1.000  H
  C816     1.0000 0.17410  0.00760  0.82590  Biso   1.000  C
  H600     1.0000 0.15360  0.01360  0.84640  Biso   1.000  H
  C817     1.0000 0.26800  0.49090  0.73200  Biso   1.000  C
  H601     1.0000 0.24760  0.48480  0.75240  Biso   1.000  H
  C818     1.0000 0.28710  0.45950  0.71290  Biso   1.000  C
  H602     1.0000 0.28010  0.43160  0.71990  Biso   1.000  H
  C819     1.0000 0.30630  0.53900  0.69370  Biso   1.000  C
  H603     1.0000 0.31300  0.56700  0.68700  Biso   1.000  H
  C820     1.0000 0.32590  0.50760  0.67410  Biso   1.000  C
  H604     1.0000 0.34640  0.51360  0.65360  Biso   1.000  H
  C821     1.0000 0.76800  0.99090  0.23200  Biso   1.000  C
  H605     1.0000 0.74760  0.98480  0.25240  Biso   1.000  H
  C822     1.0000 0.78710  0.95950  0.21290  Biso   1.000  C
  H606     1.0000 0.78010  0.93160  0.21990  Biso   1.000  H
  C823     1.0000 0.80630  0.03900  0.19370  Biso   1.000  C
  H607     1.0000 0.81300  0.06700  0.18700  Biso   1.000  H
  C824     1.0000 0.82590  0.00760  0.17410  Biso   1.000  C
  H608     1.0000 0.84640  0.01360  0.15360  Biso   1.000  H
  C825     1.0000 0.73200  0.50910  0.73200  Biso   1.000  C
  H609     1.0000 0.75240  0.51520  0.75240  Biso   1.000  H
  C826     1.0000 0.71290  0.54050  0.71290  Biso   1.000  C
  H610     1.0000 0.71990  0.56840  0.71990  Biso   1.000  H
  C827     1.0000 0.69370  0.46100  0.69370  Biso   1.000  C
  H611     1.0000 0.68700  0.43300  0.68700  Biso   1.000  H
  C828     1.0000 0.67410  0.49240  0.67410  Biso   1.000  C
  H612     1.0000 0.65360  0.48640  0.65360  Biso   1.000  H
  C829     1.0000 0.23200  0.00910  0.23200  Biso   1.000  C
  H613     1.0000 0.25240  0.01520  0.25240  Biso   1.000  H
  C830     1.0000 0.21290  0.04050  0.21290  Biso   1.000  C
  H614     1.0000 0.21990  0.06840  0.21990  Biso   1.000  H
  C831     1.0000 0.19370  0.96100  0.19370  Biso   1.000  C
  H615     1.0000 0.18700  0.93300  0.18700  Biso   1.000  H
  C832     1.0000 0.17410  0.99240  0.17410  Biso   1.000  C
  H616     1.0000 0.15360  0.98640  0.15360  Biso   1.000  H
  C833     1.0000 0.26800  0.50910  0.26800  Biso   1.000  C
  H617     1.0000 0.24760  0.51520  0.24760  Biso   1.000  H
  C834     1.0000 0.28710  0.54050  0.28710  Biso   1.000  C
  H618     1.0000 0.28010  0.56840  0.28010  Biso   1.000  H
  C835     1.0000 0.30630  0.46100  0.30630  Biso   1.000  C
  H619     1.0000 0.31300  0.43300  0.31300  Biso   1.000  H
  C836     1.0000 0.32590  0.49240  0.32590  Biso   1.000  C
  H620     1.0000 0.34640  0.48640  0.34640  Biso   1.000  H
  C837     1.0000 0.76800  0.00910  0.76800  Biso   1.000  C
  H621     1.0000 0.74760  0.01520  0.74760  Biso   1.000  H
  C838     1.0000 0.78710  0.04050  0.78710  Biso   1.000  C
  H622     1.0000 0.78010  0.06840  0.78010  Biso   1.000  H
  C839     1.0000 0.80630  0.96100  0.80630  Biso   1.000  C
  H623     1.0000 0.81300  0.93300  0.81300  Biso   1.000  H
  C840     1.0000 0.82590  0.99240  0.82590  Biso   1.000  C
  H624     1.0000 0.84640  0.98640  0.84640  Biso   1.000  H
