data_image0
_cell_length_a       24.7233
_cell_length_b       24.7233
_cell_length_c       24.7233
_cell_angle_alpha    90
_cell_angle_beta     90
_cell_angle_gamma    90

_symmetry_space_group_name_H-M    "P 1"
_symmetry_int_tables_number       1

loop_
  _symmetry_equiv_pos_as_xyz
  'x, y, z'

loop_
  _atom_site_label
  _atom_site_occupancy
  _atom_site_fract_x
  _atom_site_fract_y
  _atom_site_fract_z
  _atom_site_thermal_displace_type
  _atom_site_B_iso_or_equiv
  _atom_site_type_symbol
  N1       1.0000 0.77097  0.93643  0.08907  Biso   1.000  N
  C1       1.0000 0.78235  0.90698  0.13235  Biso   1.000  C
  H1       1.0000 0.81010  0.91550  0.15750  Biso   1.000  H
  N2       1.0000 0.77097  0.43643  0.58907  Biso   1.000  N
  C2       1.0000 0.78235  0.40698  0.63235  Biso   1.000  C
  H2       1.0000 0.81010  0.41550  0.65750  Biso   1.000  H
  N3       1.0000 0.27097  0.93643  0.58907  Biso   1.000  N
  C3       1.0000 0.28235  0.90698  0.63235  Biso   1.000  C
  H3       1.0000 0.31010  0.91550  0.65750  Biso   1.000  H
  N4       1.0000 0.27097  0.43643  0.08907  Biso   1.000  N
  C4       1.0000 0.28235  0.40698  0.13235  Biso   1.000  C
  H4       1.0000 0.31010  0.41550  0.15750  Biso   1.000  H
  N5       1.0000 0.47903  0.81357  0.58907  Biso   1.000  N
  C5       1.0000 0.46765  0.84302  0.63235  Biso   1.000  C
  H5       1.0000 0.43990  0.83450  0.65750  Biso   1.000  H
  N6       1.0000 0.47903  0.31357  0.08907  Biso   1.000  N
  C6       1.0000 0.46765  0.34302  0.13235  Biso   1.000  C
  H6       1.0000 0.43990  0.33450  0.15750  Biso   1.000  H
  N7       1.0000 0.97903  0.81357  0.08907  Biso   1.000  N
  C7       1.0000 0.96765  0.84302  0.13235  Biso   1.000  C
  H7       1.0000 0.93990  0.83450  0.15750  Biso   1.000  H
  N8       1.0000 0.97903  0.31357  0.58907  Biso   1.000  N
  C8       1.0000 0.96765  0.34302  0.63235  Biso   1.000  C
  H8       1.0000 0.93990  0.33450  0.65750  Biso   1.000  H
  N9       1.0000 0.97903  0.43643  0.16093  Biso   1.000  N
  C9       1.0000 0.96765  0.40698  0.11765  Biso   1.000  C
  H9       1.0000 0.93990  0.41550  0.09250  Biso   1.000  H
  N10      1.0000 0.97903  0.93643  0.66093  Biso   1.000  N
  C10      1.0000 0.96765  0.90698  0.61765  Biso   1.000  C
  H10      1.0000 0.93990  0.91550  0.59250  Biso   1.000  H
  N11      1.0000 0.47903  0.43643  0.66093  Biso   1.000  N
  C11      1.0000 0.46765  0.40698  0.61765  Biso   1.000  C
  H11      1.0000 0.43990  0.41550  0.59250  Biso   1.000  H
  N12      1.0000 0.47903  0.93643  0.16093  Biso   1.000  N
  C12      1.0000 0.46765  0.90698  0.11765  Biso   1.000  C
  H12      1.0000 0.43990  0.91550  0.09250  Biso   1.000  H
  N13      1.0000 0.27097  0.31357  0.66093  Biso   1.000  N
  C13      1.0000 0.28235  0.34302  0.61765  Biso   1.000  C
  H13      1.0000 0.31010  0.33450  0.59250  Biso   1.000  H
  N14      1.0000 0.27097  0.81357  0.16093  Biso   1.000  N
  C14      1.0000 0.28235  0.84302  0.11765  Biso   1.000  C
  H14      1.0000 0.31010  0.83450  0.09250  Biso   1.000  H
  N15      1.0000 0.77097  0.31357  0.16093  Biso   1.000  N
  C15      1.0000 0.78235  0.34302  0.11765  Biso   1.000  C
  H15      1.0000 0.81010  0.33450  0.09250  Biso   1.000  H
  N16      1.0000 0.77097  0.81357  0.66093  Biso   1.000  N
  C16      1.0000 0.78235  0.84302  0.61765  Biso   1.000  C
  H16      1.0000 0.81010  0.83450  0.59250  Biso   1.000  H
  N17      1.0000 0.08907  0.77097  0.93643  Biso   1.000  N
  C17      1.0000 0.13235  0.78235  0.90698  Biso   1.000  C
  H17      1.0000 0.15750  0.81010  0.91550  Biso   1.000  H
  N18      1.0000 0.08907  0.27097  0.43643  Biso   1.000  N
  C18      1.0000 0.13235  0.28235  0.40698  Biso   1.000  C
  H18      1.0000 0.15750  0.31010  0.41550  Biso   1.000  H
  N19      1.0000 0.58907  0.77097  0.43643  Biso   1.000  N
  C19      1.0000 0.63235  0.78235  0.40698  Biso   1.000  C
  H19      1.0000 0.65750  0.81010  0.41550  Biso   1.000  H
  N20      1.0000 0.58907  0.27097  0.93643  Biso   1.000  N
  C20      1.0000 0.63235  0.28235  0.90698  Biso   1.000  C
  H20      1.0000 0.65750  0.31010  0.91550  Biso   1.000  H
  N21      1.0000 0.58907  0.47903  0.81357  Biso   1.000  N
  C21      1.0000 0.63235  0.46765  0.84302  Biso   1.000  C
  H21      1.0000 0.65750  0.43990  0.83450  Biso   1.000  H
  N22      1.0000 0.58907  0.97903  0.31357  Biso   1.000  N
  C22      1.0000 0.63235  0.96765  0.34302  Biso   1.000  C
  H22      1.0000 0.65750  0.93990  0.33450  Biso   1.000  H
  N23      1.0000 0.08907  0.47903  0.31357  Biso   1.000  N
  C23      1.0000 0.13235  0.46765  0.34302  Biso   1.000  C
  H23      1.0000 0.15750  0.43990  0.33450  Biso   1.000  H
  N24      1.0000 0.08907  0.97903  0.81357  Biso   1.000  N
  C24      1.0000 0.13235  0.96765  0.84302  Biso   1.000  C
  H24      1.0000 0.15750  0.93990  0.83450  Biso   1.000  H
  N25      1.0000 0.16093  0.97903  0.43643  Biso   1.000  N
  C25      1.0000 0.11765  0.96765  0.40698  Biso   1.000  C
  H25      1.0000 0.09250  0.93990  0.41550  Biso   1.000  H
  N26      1.0000 0.16093  0.47903  0.93643  Biso   1.000  N
  C26      1.0000 0.11765  0.46765  0.90698  Biso   1.000  C
  H26      1.0000 0.09250  0.43990  0.91550  Biso   1.000  H
  N27      1.0000 0.66093  0.97903  0.93643  Biso   1.000  N
  C27      1.0000 0.61765  0.96765  0.90698  Biso   1.000  C
  H27      1.0000 0.59250  0.93990  0.91550  Biso   1.000  H
  N28      1.0000 0.66093  0.47903  0.43643  Biso   1.000  N
  C28      1.0000 0.61765  0.46765  0.40698  Biso   1.000  C
  H28      1.0000 0.59250  0.43990  0.41550  Biso   1.000  H
  N29      1.0000 0.66093  0.27097  0.31357  Biso   1.000  N
  C29      1.0000 0.61765  0.28235  0.34302  Biso   1.000  C
  H29      1.0000 0.59250  0.31010  0.33450  Biso   1.000  H
  N30      1.0000 0.66093  0.77097  0.81357  Biso   1.000  N
  C30      1.0000 0.61765  0.78235  0.84302  Biso   1.000  C
  H30      1.0000 0.59250  0.81010  0.83450  Biso   1.000  H
  N31      1.0000 0.16093  0.27097  0.81357  Biso   1.000  N
  C31      1.0000 0.11765  0.28235  0.84302  Biso   1.000  C
  H31      1.0000 0.09250  0.31010  0.83450  Biso   1.000  H
  N32      1.0000 0.16093  0.77097  0.31357  Biso   1.000  N
  C32      1.0000 0.11765  0.78235  0.34302  Biso   1.000  C
  H32      1.0000 0.09250  0.81010  0.33450  Biso   1.000  H
  N33      1.0000 0.93643  0.08907  0.77097  Biso   1.000  N
  C33      1.0000 0.90698  0.13235  0.78235  Biso   1.000  C
  H33      1.0000 0.91550  0.15750  0.81010  Biso   1.000  H
  N34      1.0000 0.93643  0.58907  0.27097  Biso   1.000  N
  C34      1.0000 0.90698  0.63235  0.28235  Biso   1.000  C
  H34      1.0000 0.91550  0.65750  0.31010  Biso   1.000  H
  N35      1.0000 0.43643  0.08907  0.27097  Biso   1.000  N
  C35      1.0000 0.40698  0.13235  0.28235  Biso   1.000  C
  H35      1.0000 0.41550  0.15750  0.31010  Biso   1.000  H
  N36      1.0000 0.43643  0.58907  0.77097  Biso   1.000  N
  C36      1.0000 0.40698  0.63235  0.78235  Biso   1.000  C
  H36      1.0000 0.41550  0.65750  0.81010  Biso   1.000  H
  N37      1.0000 0.81357  0.58907  0.47903  Biso   1.000  N
  C37      1.0000 0.84302  0.63235  0.46765  Biso   1.000  C
  H37      1.0000 0.83450  0.65750  0.43990  Biso   1.000  H
  N38      1.0000 0.81357  0.08907  0.97903  Biso   1.000  N
  C38      1.0000 0.84302  0.13235  0.96765  Biso   1.000  C
  H38      1.0000 0.83450  0.15750  0.93990  Biso   1.000  H
  N39      1.0000 0.31357  0.58907  0.97903  Biso   1.000  N
  C39      1.0000 0.34302  0.63235  0.96765  Biso   1.000  C
  H39      1.0000 0.33450  0.65750  0.93990  Biso   1.000  H
  N40      1.0000 0.31357  0.08907  0.47903  Biso   1.000  N
  C40      1.0000 0.34302  0.13235  0.46765  Biso   1.000  C
  H40      1.0000 0.33450  0.15750  0.43990  Biso   1.000  H
  N41      1.0000 0.43643  0.16093  0.97903  Biso   1.000  N
  C41      1.0000 0.40698  0.11765  0.96765  Biso   1.000  C
  H41      1.0000 0.41550  0.09250  0.93990  Biso   1.000  H
  N42      1.0000 0.43643  0.66093  0.47903  Biso   1.000  N
  C42      1.0000 0.40698  0.61765  0.46765  Biso   1.000  C
  H42      1.0000 0.41550  0.59250  0.43990  Biso   1.000  H
  N43      1.0000 0.93643  0.16093  0.47903  Biso   1.000  N
  C43      1.0000 0.90698  0.11765  0.46765  Biso   1.000  C
  H43      1.0000 0.91550  0.09250  0.43990  Biso   1.000  H
  N44      1.0000 0.93643  0.66093  0.97903  Biso   1.000  N
  C44      1.0000 0.90698  0.61765  0.96765  Biso   1.000  C
  H44      1.0000 0.91550  0.59250  0.93990  Biso   1.000  H
  N45      1.0000 0.31357  0.66093  0.27097  Biso   1.000  N
  C45      1.0000 0.34302  0.61765  0.28235  Biso   1.000  C
  H45      1.0000 0.33450  0.59250  0.31010  Biso   1.000  H
  N46      1.0000 0.31357  0.16093  0.77097  Biso   1.000  N
  C46      1.0000 0.34302  0.11765  0.78235  Biso   1.000  C
  H46      1.0000 0.33450  0.09250  0.81010  Biso   1.000  H
  N47      1.0000 0.81357  0.66093  0.77097  Biso   1.000  N
  C47      1.0000 0.84302  0.61765  0.78235  Biso   1.000  C
  H47      1.0000 0.83450  0.59250  0.81010  Biso   1.000  H
  N48      1.0000 0.81357  0.16093  0.27097  Biso   1.000  N
  C48      1.0000 0.84302  0.11765  0.28235  Biso   1.000  C
  H48      1.0000 0.83450  0.09250  0.31010  Biso   1.000  H
  N49      1.0000 0.68643  0.02097  0.91093  Biso   1.000  N
  C49      1.0000 0.65698  0.03235  0.86765  Biso   1.000  C
  H49      1.0000 0.66550  0.06010  0.84250  Biso   1.000  H
  N50      1.0000 0.68643  0.52097  0.41093  Biso   1.000  N
  C50      1.0000 0.65698  0.53235  0.36765  Biso   1.000  C
  H50      1.0000 0.66550  0.56010  0.34250  Biso   1.000  H
  N51      1.0000 0.18643  0.02097  0.41093  Biso   1.000  N
  C51      1.0000 0.15698  0.03235  0.36765  Biso   1.000  C
  H51      1.0000 0.16550  0.06010  0.34250  Biso   1.000  H
  N52      1.0000 0.18643  0.52097  0.91093  Biso   1.000  N
  C52      1.0000 0.15698  0.53235  0.86765  Biso   1.000  C
  H52      1.0000 0.16550  0.56010  0.84250  Biso   1.000  H
  N53      1.0000 0.56357  0.72903  0.41093  Biso   1.000  N
  C53      1.0000 0.59302  0.71765  0.36765  Biso   1.000  C
  H53      1.0000 0.58450  0.68990  0.34250  Biso   1.000  H
  N54      1.0000 0.56357  0.22903  0.91093  Biso   1.000  N
  C54      1.0000 0.59302  0.21765  0.86765  Biso   1.000  C
  H54      1.0000 0.58450  0.18990  0.84250  Biso   1.000  H
  N55      1.0000 0.06357  0.72903  0.91093  Biso   1.000  N
  C55      1.0000 0.09302  0.71765  0.86765  Biso   1.000  C
  H55      1.0000 0.08450  0.68990  0.84250  Biso   1.000  H
  N56      1.0000 0.06357  0.22903  0.41093  Biso   1.000  N
  C56      1.0000 0.09302  0.21765  0.36765  Biso   1.000  C
  H56      1.0000 0.08450  0.18990  0.34250  Biso   1.000  H
  N57      1.0000 0.18643  0.22903  0.83907  Biso   1.000  N
  C57      1.0000 0.15698  0.21765  0.88235  Biso   1.000  C
  H57      1.0000 0.16550  0.18990  0.90750  Biso   1.000  H
  N58      1.0000 0.18643  0.72903  0.33907  Biso   1.000  N
  C58      1.0000 0.15698  0.71765  0.38235  Biso   1.000  C
  H58      1.0000 0.16550  0.68990  0.40750  Biso   1.000  H
  N59      1.0000 0.68643  0.22903  0.33907  Biso   1.000  N
  C59      1.0000 0.65698  0.21765  0.38235  Biso   1.000  C
  H59      1.0000 0.66550  0.18990  0.40750  Biso   1.000  H
  N60      1.0000 0.68643  0.72903  0.83907  Biso   1.000  N
  C60      1.0000 0.65698  0.71765  0.88235  Biso   1.000  C
  H60      1.0000 0.66550  0.68990  0.90750  Biso   1.000  H
  N61      1.0000 0.06357  0.52097  0.33907  Biso   1.000  N
  C61      1.0000 0.09302  0.53235  0.38235  Biso   1.000  C
  H61      1.0000 0.08450  0.56010  0.40750  Biso   1.000  H
  N62      1.0000 0.06357  0.02097  0.83907  Biso   1.000  N
  C62      1.0000 0.09302  0.03235  0.88235  Biso   1.000  C
  H62      1.0000 0.08450  0.06010  0.90750  Biso   1.000  H
  N63      1.0000 0.56357  0.52097  0.83907  Biso   1.000  N
  C63      1.0000 0.59302  0.53235  0.88235  Biso   1.000  C
  H63      1.0000 0.58450  0.56010  0.90750  Biso   1.000  H
  N64      1.0000 0.56357  0.02097  0.33907  Biso   1.000  N
  C64      1.0000 0.59302  0.03235  0.38235  Biso   1.000  C
  H64      1.0000 0.58450  0.06010  0.40750  Biso   1.000  H
  N65      1.0000 0.52097  0.33907  0.06357  Biso   1.000  N
  C65      1.0000 0.53235  0.38235  0.09302  Biso   1.000  C
  H65      1.0000 0.56010  0.40750  0.08450  Biso   1.000  H
  N66      1.0000 0.52097  0.83907  0.56357  Biso   1.000  N
  C66      1.0000 0.53235  0.88235  0.59302  Biso   1.000  C
  H66      1.0000 0.56010  0.90750  0.58450  Biso   1.000  H
  N67      1.0000 0.02097  0.33907  0.56357  Biso   1.000  N
  C67      1.0000 0.03235  0.38235  0.59302  Biso   1.000  C
  H67      1.0000 0.06010  0.40750  0.58450  Biso   1.000  H
  N68      1.0000 0.02097  0.83907  0.06357  Biso   1.000  N
  C68      1.0000 0.03235  0.88235  0.09302  Biso   1.000  C
  H68      1.0000 0.06010  0.90750  0.08450  Biso   1.000  H
  N69      1.0000 0.22903  0.83907  0.18643  Biso   1.000  N
  C69      1.0000 0.21765  0.88235  0.15698  Biso   1.000  C
  H69      1.0000 0.18990  0.90750  0.16550  Biso   1.000  H
  N70      1.0000 0.22903  0.33907  0.68643  Biso   1.000  N
  C70      1.0000 0.21765  0.38235  0.65698  Biso   1.000  C
  H70      1.0000 0.18990  0.40750  0.66550  Biso   1.000  H
  N71      1.0000 0.72903  0.83907  0.68643  Biso   1.000  N
  C71      1.0000 0.71765  0.88235  0.65698  Biso   1.000  C
  H71      1.0000 0.68990  0.90750  0.66550  Biso   1.000  H
  N72      1.0000 0.72903  0.33907  0.18643  Biso   1.000  N
  C72      1.0000 0.71765  0.38235  0.15698  Biso   1.000  C
  H72      1.0000 0.68990  0.40750  0.16550  Biso   1.000  H
  N73      1.0000 0.72903  0.41093  0.56357  Biso   1.000  N
  C73      1.0000 0.71765  0.36765  0.59302  Biso   1.000  C
  H73      1.0000 0.68990  0.34250  0.58450  Biso   1.000  H
  N74      1.0000 0.72903  0.91093  0.06357  Biso   1.000  N
  C74      1.0000 0.71765  0.86765  0.09302  Biso   1.000  C
  H74      1.0000 0.68990  0.84250  0.08450  Biso   1.000  H
  N75      1.0000 0.22903  0.41093  0.06357  Biso   1.000  N
  C75      1.0000 0.21765  0.36765  0.09302  Biso   1.000  C
  H75      1.0000 0.18990  0.34250  0.08450  Biso   1.000  H
  N76      1.0000 0.22903  0.91093  0.56357  Biso   1.000  N
  C76      1.0000 0.21765  0.86765  0.59302  Biso   1.000  C
  H76      1.0000 0.18990  0.84250  0.58450  Biso   1.000  H
  N77      1.0000 0.02097  0.91093  0.68643  Biso   1.000  N
  C77      1.0000 0.03235  0.86765  0.65698  Biso   1.000  C
  H77      1.0000 0.06010  0.84250  0.66550  Biso   1.000  H
  N78      1.0000 0.02097  0.41093  0.18643  Biso   1.000  N
  C78      1.0000 0.03235  0.36765  0.15698  Biso   1.000  C
  H78      1.0000 0.06010  0.34250  0.16550  Biso   1.000  H
  N79      1.0000 0.52097  0.91093  0.18643  Biso   1.000  N
  C79      1.0000 0.53235  0.86765  0.15698  Biso   1.000  C
  H79      1.0000 0.56010  0.84250  0.16550  Biso   1.000  H
  N80      1.0000 0.52097  0.41093  0.68643  Biso   1.000  N
  C80      1.0000 0.53235  0.36765  0.65698  Biso   1.000  C
  H80      1.0000 0.56010  0.34250  0.66550  Biso   1.000  H
  N81      1.0000 0.83907  0.18643  0.22903  Biso   1.000  N
  C81      1.0000 0.88235  0.15698  0.21765  Biso   1.000  C
  H81      1.0000 0.90750  0.16550  0.18990  Biso   1.000  H
  N82      1.0000 0.83907  0.68643  0.72903  Biso   1.000  N
  C82      1.0000 0.88235  0.65698  0.71765  Biso   1.000  C
  H82      1.0000 0.90750  0.66550  0.68990  Biso   1.000  H
  N83      1.0000 0.33907  0.18643  0.72903  Biso   1.000  N
  C83      1.0000 0.38235  0.15698  0.71765  Biso   1.000  C
  H83      1.0000 0.40750  0.16550  0.68990  Biso   1.000  H
  N84      1.0000 0.33907  0.68643  0.22903  Biso   1.000  N
  C84      1.0000 0.38235  0.65698  0.21765  Biso   1.000  C
  H84      1.0000 0.40750  0.66550  0.18990  Biso   1.000  H
  N85      1.0000 0.33907  0.06357  0.52097  Biso   1.000  N
  C85      1.0000 0.38235  0.09302  0.53235  Biso   1.000  C
  H85      1.0000 0.40750  0.08450  0.56010  Biso   1.000  H
  N86      1.0000 0.33907  0.56357  0.02097  Biso   1.000  N
  C86      1.0000 0.38235  0.59302  0.03235  Biso   1.000  C
  H86      1.0000 0.40750  0.58450  0.06010  Biso   1.000  H
  N87      1.0000 0.83907  0.06357  0.02097  Biso   1.000  N
  C87      1.0000 0.88235  0.09302  0.03235  Biso   1.000  C
  H87      1.0000 0.90750  0.08450  0.06010  Biso   1.000  H
  N88      1.0000 0.83907  0.56357  0.52097  Biso   1.000  N
  C88      1.0000 0.88235  0.59302  0.53235  Biso   1.000  C
  H88      1.0000 0.90750  0.58450  0.56010  Biso   1.000  H
  N89      1.0000 0.91093  0.68643  0.02097  Biso   1.000  N
  C89      1.0000 0.86765  0.65698  0.03235  Biso   1.000  C
  H89      1.0000 0.84250  0.66550  0.06010  Biso   1.000  H
  N90      1.0000 0.91093  0.18643  0.52097  Biso   1.000  N
  C90      1.0000 0.86765  0.15698  0.53235  Biso   1.000  C
  H90      1.0000 0.84250  0.16550  0.56010  Biso   1.000  H
  N91      1.0000 0.41093  0.68643  0.52097  Biso   1.000  N
  C91      1.0000 0.36765  0.65698  0.53235  Biso   1.000  C
  H91      1.0000 0.34250  0.66550  0.56010  Biso   1.000  H
  N92      1.0000 0.41093  0.18643  0.02097  Biso   1.000  N
  C92      1.0000 0.36765  0.15698  0.03235  Biso   1.000  C
  H92      1.0000 0.34250  0.16550  0.06010  Biso   1.000  H
  N93      1.0000 0.41093  0.56357  0.72903  Biso   1.000  N
  C93      1.0000 0.36765  0.59302  0.71765  Biso   1.000  C
  H93      1.0000 0.34250  0.58450  0.68990  Biso   1.000  H
  N94      1.0000 0.41093  0.06357  0.22903  Biso   1.000  N
  C94      1.0000 0.36765  0.09302  0.21765  Biso   1.000  C
  H94      1.0000 0.34250  0.08450  0.18990  Biso   1.000  H
  N95      1.0000 0.91093  0.56357  0.22903  Biso   1.000  N
  C95      1.0000 0.86765  0.59302  0.21765  Biso   1.000  C
  H95      1.0000 0.84250  0.58450  0.18990  Biso   1.000  H
  N96      1.0000 0.91093  0.06357  0.72903  Biso   1.000  N
  C96      1.0000 0.86765  0.09302  0.71765  Biso   1.000  C
  H96      1.0000 0.84250  0.08450  0.68990  Biso   1.000  H
  N97      1.0000 0.22903  0.06357  0.91093  Biso   1.000  N
  C97      1.0000 0.21765  0.09302  0.86765  Biso   1.000  C
  H97      1.0000 0.18990  0.08450  0.84250  Biso   1.000  H
  N98      1.0000 0.22903  0.56357  0.41093  Biso   1.000  N
  C98      1.0000 0.21765  0.59302  0.36765  Biso   1.000  C
  H98      1.0000 0.18990  0.58450  0.34250  Biso   1.000  H
  N99      1.0000 0.72903  0.06357  0.41093  Biso   1.000  N
  C99      1.0000 0.71765  0.09302  0.36765  Biso   1.000  C
  H99      1.0000 0.68990  0.08450  0.34250  Biso   1.000  H
  N100     1.0000 0.72903  0.56357  0.91093  Biso   1.000  N
  C100     1.0000 0.71765  0.59302  0.86765  Biso   1.000  C
  H100     1.0000 0.68990  0.58450  0.84250  Biso   1.000  H
  N101     1.0000 0.52097  0.18643  0.41093  Biso   1.000  N
  C101     1.0000 0.53235  0.15698  0.36765  Biso   1.000  C
  H101     1.0000 0.56010  0.16550  0.34250  Biso   1.000  H
  N102     1.0000 0.52097  0.68643  0.91093  Biso   1.000  N
  C102     1.0000 0.53235  0.65698  0.86765  Biso   1.000  C
  H102     1.0000 0.56010  0.66550  0.84250  Biso   1.000  H
  N103     1.0000 0.02097  0.18643  0.91093  Biso   1.000  N
  C103     1.0000 0.03235  0.15698  0.86765  Biso   1.000  C
  H103     1.0000 0.06010  0.16550  0.84250  Biso   1.000  H
  N104     1.0000 0.02097  0.68643  0.41093  Biso   1.000  N
  C104     1.0000 0.03235  0.65698  0.36765  Biso   1.000  C
  H104     1.0000 0.06010  0.66550  0.34250  Biso   1.000  H
  N105     1.0000 0.02097  0.56357  0.83907  Biso   1.000  N
  C105     1.0000 0.03235  0.59302  0.88235  Biso   1.000  C
  H105     1.0000 0.06010  0.58450  0.90750  Biso   1.000  H
  N106     1.0000 0.02097  0.06357  0.33907  Biso   1.000  N
  C106     1.0000 0.03235  0.09302  0.38235  Biso   1.000  C
  H106     1.0000 0.06010  0.08450  0.40750  Biso   1.000  H
  N107     1.0000 0.52097  0.56357  0.33907  Biso   1.000  N
  C107     1.0000 0.53235  0.59302  0.38235  Biso   1.000  C
  H107     1.0000 0.56010  0.58450  0.40750  Biso   1.000  H
  N108     1.0000 0.52097  0.06357  0.83907  Biso   1.000  N
  C108     1.0000 0.53235  0.09302  0.88235  Biso   1.000  C
  H108     1.0000 0.56010  0.08450  0.90750  Biso   1.000  H
  N109     1.0000 0.72903  0.68643  0.33907  Biso   1.000  N
  C109     1.0000 0.71765  0.65698  0.38235  Biso   1.000  C
  H109     1.0000 0.68990  0.66550  0.40750  Biso   1.000  H
  N110     1.0000 0.72903  0.18643  0.83907  Biso   1.000  N
  C110     1.0000 0.71765  0.15698  0.88235  Biso   1.000  C
  H110     1.0000 0.68990  0.16550  0.90750  Biso   1.000  H
  N111     1.0000 0.22903  0.68643  0.83907  Biso   1.000  N
  C111     1.0000 0.21765  0.65698  0.88235  Biso   1.000  C
  H111     1.0000 0.18990  0.66550  0.90750  Biso   1.000  H
  N112     1.0000 0.22903  0.18643  0.33907  Biso   1.000  N
  C112     1.0000 0.21765  0.15698  0.38235  Biso   1.000  C
  H112     1.0000 0.18990  0.16550  0.40750  Biso   1.000  H
  N113     1.0000 0.91093  0.22903  0.06357  Biso   1.000  N
  C113     1.0000 0.86765  0.21765  0.09302  Biso   1.000  C
  H113     1.0000 0.84250  0.18990  0.08450  Biso   1.000  H
  N114     1.0000 0.91093  0.72903  0.56357  Biso   1.000  N
  C114     1.0000 0.86765  0.71765  0.59302  Biso   1.000  C
  H114     1.0000 0.84250  0.68990  0.58450  Biso   1.000  H
  N115     1.0000 0.41093  0.22903  0.56357  Biso   1.000  N
  C115     1.0000 0.36765  0.21765  0.59302  Biso   1.000  C
  H115     1.0000 0.34250  0.18990  0.58450  Biso   1.000  H
  N116     1.0000 0.41093  0.72903  0.06357  Biso   1.000  N
  C116     1.0000 0.36765  0.71765  0.09302  Biso   1.000  C
  H116     1.0000 0.34250  0.68990  0.08450  Biso   1.000  H
  N117     1.0000 0.41093  0.52097  0.18643  Biso   1.000  N
  C117     1.0000 0.36765  0.53235  0.15698  Biso   1.000  C
  H117     1.0000 0.34250  0.56010  0.16550  Biso   1.000  H
  N118     1.0000 0.41093  0.02097  0.68643  Biso   1.000  N
  C118     1.0000 0.36765  0.03235  0.65698  Biso   1.000  C
  H118     1.0000 0.34250  0.06010  0.66550  Biso   1.000  H
  N119     1.0000 0.91093  0.52097  0.68643  Biso   1.000  N
  C119     1.0000 0.86765  0.53235  0.65698  Biso   1.000  C
  H119     1.0000 0.84250  0.56010  0.66550  Biso   1.000  H
  N120     1.0000 0.91093  0.02097  0.18643  Biso   1.000  N
  C120     1.0000 0.86765  0.03235  0.15698  Biso   1.000  C
  H120     1.0000 0.84250  0.06010  0.16550  Biso   1.000  H
  N121     1.0000 0.83907  0.02097  0.56357  Biso   1.000  N
  C121     1.0000 0.88235  0.03235  0.59302  Biso   1.000  C
  H121     1.0000 0.90750  0.06010  0.58450  Biso   1.000  H
  N122     1.0000 0.83907  0.52097  0.06357  Biso   1.000  N
  C122     1.0000 0.88235  0.53235  0.09302  Biso   1.000  C
  H122     1.0000 0.90750  0.56010  0.08450  Biso   1.000  H
  N123     1.0000 0.33907  0.02097  0.06357  Biso   1.000  N
  C123     1.0000 0.38235  0.03235  0.09302  Biso   1.000  C
  H123     1.0000 0.40750  0.06010  0.08450  Biso   1.000  H
  N124     1.0000 0.33907  0.52097  0.56357  Biso   1.000  N
  C124     1.0000 0.38235  0.53235  0.59302  Biso   1.000  C
  H124     1.0000 0.40750  0.56010  0.58450  Biso   1.000  H
  N125     1.0000 0.33907  0.72903  0.68643  Biso   1.000  N
  C125     1.0000 0.38235  0.71765  0.65698  Biso   1.000  C
  H125     1.0000 0.40750  0.68990  0.66550  Biso   1.000  H
  N126     1.0000 0.33907  0.22903  0.18643  Biso   1.000  N
  C126     1.0000 0.38235  0.21765  0.15698  Biso   1.000  C
  H126     1.0000 0.40750  0.18990  0.16550  Biso   1.000  H
  N127     1.0000 0.83907  0.72903  0.18643  Biso   1.000  N
  C127     1.0000 0.88235  0.71765  0.15698  Biso   1.000  C
  H127     1.0000 0.90750  0.68990  0.16550  Biso   1.000  H
  N128     1.0000 0.83907  0.22903  0.68643  Biso   1.000  N
  C128     1.0000 0.88235  0.21765  0.65698  Biso   1.000  C
  H128     1.0000 0.90750  0.18990  0.66550  Biso   1.000  H
  N129     1.0000 0.06357  0.91093  0.22903  Biso   1.000  N
  C129     1.0000 0.09302  0.86765  0.21765  Biso   1.000  C
  H129     1.0000 0.08450  0.84250  0.18990  Biso   1.000  H
  N130     1.0000 0.06357  0.41093  0.72903  Biso   1.000  N
  C130     1.0000 0.09302  0.36765  0.71765  Biso   1.000  C
  H130     1.0000 0.08450  0.34250  0.68990  Biso   1.000  H
  N131     1.0000 0.56357  0.91093  0.72903  Biso   1.000  N
  C131     1.0000 0.59302  0.86765  0.71765  Biso   1.000  C
  H131     1.0000 0.58450  0.84250  0.68990  Biso   1.000  H
  N132     1.0000 0.56357  0.41093  0.22903  Biso   1.000  N
  C132     1.0000 0.59302  0.36765  0.21765  Biso   1.000  C
  H132     1.0000 0.58450  0.34250  0.18990  Biso   1.000  H
  N133     1.0000 0.18643  0.41093  0.52097  Biso   1.000  N
  C133     1.0000 0.15698  0.36765  0.53235  Biso   1.000  C
  H133     1.0000 0.16550  0.34250  0.56010  Biso   1.000  H
  N134     1.0000 0.18643  0.91093  0.02097  Biso   1.000  N
  C134     1.0000 0.15698  0.86765  0.03235  Biso   1.000  C
  H134     1.0000 0.16550  0.84250  0.06010  Biso   1.000  H
  N135     1.0000 0.68643  0.41093  0.02097  Biso   1.000  N
  C135     1.0000 0.65698  0.36765  0.03235  Biso   1.000  C
  H135     1.0000 0.66550  0.34250  0.06010  Biso   1.000  H
  N136     1.0000 0.68643  0.91093  0.52097  Biso   1.000  N
  C136     1.0000 0.65698  0.86765  0.53235  Biso   1.000  C
  H136     1.0000 0.66550  0.84250  0.56010  Biso   1.000  H
  N137     1.0000 0.56357  0.83907  0.02097  Biso   1.000  N
  C137     1.0000 0.59302  0.88235  0.03235  Biso   1.000  C
  H137     1.0000 0.58450  0.90750  0.06010  Biso   1.000  H
  N138     1.0000 0.56357  0.33907  0.52097  Biso   1.000  N
  C138     1.0000 0.59302  0.38235  0.53235  Biso   1.000  C
  H138     1.0000 0.58450  0.40750  0.56010  Biso   1.000  H
  N139     1.0000 0.06357  0.83907  0.52097  Biso   1.000  N
  C139     1.0000 0.09302  0.88235  0.53235  Biso   1.000  C
  H139     1.0000 0.08450  0.90750  0.56010  Biso   1.000  H
  N140     1.0000 0.06357  0.33907  0.02097  Biso   1.000  N
  C140     1.0000 0.09302  0.38235  0.03235  Biso   1.000  C
  H140     1.0000 0.08450  0.40750  0.06010  Biso   1.000  H
  N141     1.0000 0.68643  0.33907  0.72903  Biso   1.000  N
  C141     1.0000 0.65698  0.38235  0.71765  Biso   1.000  C
  H141     1.0000 0.66550  0.40750  0.68990  Biso   1.000  H
  N142     1.0000 0.68643  0.83907  0.22903  Biso   1.000  N
  C142     1.0000 0.65698  0.88235  0.21765  Biso   1.000  C
  H142     1.0000 0.66550  0.90750  0.18990  Biso   1.000  H
  N143     1.0000 0.18643  0.33907  0.22903  Biso   1.000  N
  C143     1.0000 0.15698  0.38235  0.21765  Biso   1.000  C
  H143     1.0000 0.16550  0.40750  0.18990  Biso   1.000  H
  N144     1.0000 0.18643  0.83907  0.72903  Biso   1.000  N
  C144     1.0000 0.15698  0.88235  0.71765  Biso   1.000  C
  H144     1.0000 0.16550  0.90750  0.68990  Biso   1.000  H
  N145     1.0000 0.31357  0.97903  0.08907  Biso   1.000  N
  C145     1.0000 0.34302  0.96765  0.13235  Biso   1.000  C
  H145     1.0000 0.33450  0.93990  0.15750  Biso   1.000  H
  N146     1.0000 0.31357  0.47903  0.58907  Biso   1.000  N
  C146     1.0000 0.34302  0.46765  0.63235  Biso   1.000  C
  H146     1.0000 0.33450  0.43990  0.65750  Biso   1.000  H
  N147     1.0000 0.81357  0.97903  0.58907  Biso   1.000  N
  C147     1.0000 0.84302  0.96765  0.63235  Biso   1.000  C
  H147     1.0000 0.83450  0.93990  0.65750  Biso   1.000  H
  N148     1.0000 0.81357  0.47903  0.08907  Biso   1.000  N
  C148     1.0000 0.84302  0.46765  0.13235  Biso   1.000  C
  H148     1.0000 0.83450  0.43990  0.15750  Biso   1.000  H
  N149     1.0000 0.43643  0.27097  0.58907  Biso   1.000  N
  C149     1.0000 0.40698  0.28235  0.63235  Biso   1.000  C
  H149     1.0000 0.41550  0.31010  0.65750  Biso   1.000  H
  N150     1.0000 0.43643  0.77097  0.08907  Biso   1.000  N
  C150     1.0000 0.40698  0.78235  0.13235  Biso   1.000  C
  H150     1.0000 0.41550  0.81010  0.15750  Biso   1.000  H
  N151     1.0000 0.93643  0.27097  0.08907  Biso   1.000  N
  C151     1.0000 0.90698  0.28235  0.13235  Biso   1.000  C
  H151     1.0000 0.91550  0.31010  0.15750  Biso   1.000  H
  N152     1.0000 0.93643  0.77097  0.58907  Biso   1.000  N
  C152     1.0000 0.90698  0.78235  0.63235  Biso   1.000  C
  H152     1.0000 0.91550  0.81010  0.65750  Biso   1.000  H
  N153     1.0000 0.81357  0.77097  0.16093  Biso   1.000  N
  C153     1.0000 0.84302  0.78235  0.11765  Biso   1.000  C
  H153     1.0000 0.83450  0.81010  0.09250  Biso   1.000  H
  N154     1.0000 0.81357  0.27097  0.66093  Biso   1.000  N
  C154     1.0000 0.84302  0.28235  0.61765  Biso   1.000  C
  H154     1.0000 0.83450  0.31010  0.59250  Biso   1.000  H
  N155     1.0000 0.31357  0.77097  0.66093  Biso   1.000  N
  C155     1.0000 0.34302  0.78235  0.61765  Biso   1.000  C
  H155     1.0000 0.33450  0.81010  0.59250  Biso   1.000  H
  N156     1.0000 0.31357  0.27097  0.16093  Biso   1.000  N
  C156     1.0000 0.34302  0.28235  0.11765  Biso   1.000  C
  H156     1.0000 0.33450  0.31010  0.09250  Biso   1.000  H
  N157     1.0000 0.93643  0.47903  0.66093  Biso   1.000  N
  C157     1.0000 0.90698  0.46765  0.61765  Biso   1.000  C
  H157     1.0000 0.91550  0.43990  0.59250  Biso   1.000  H
  N158     1.0000 0.93643  0.97903  0.16093  Biso   1.000  N
  C158     1.0000 0.90698  0.96765  0.11765  Biso   1.000  C
  H158     1.0000 0.91550  0.93990  0.09250  Biso   1.000  H
  N159     1.0000 0.43643  0.47903  0.16093  Biso   1.000  N
  C159     1.0000 0.40698  0.46765  0.11765  Biso   1.000  C
  H159     1.0000 0.41550  0.43990  0.09250  Biso   1.000  H
  N160     1.0000 0.43643  0.97903  0.66093  Biso   1.000  N
  C160     1.0000 0.40698  0.96765  0.61765  Biso   1.000  C
  H160     1.0000 0.41550  0.93990  0.59250  Biso   1.000  H
  N161     1.0000 0.47903  0.66093  0.93643  Biso   1.000  N
  C161     1.0000 0.46765  0.61765  0.90698  Biso   1.000  C
  H161     1.0000 0.43990  0.59250  0.91550  Biso   1.000  H
  N162     1.0000 0.47903  0.16093  0.43643  Biso   1.000  N
  C162     1.0000 0.46765  0.11765  0.40698  Biso   1.000  C
  H162     1.0000 0.43990  0.09250  0.41550  Biso   1.000  H
  N163     1.0000 0.97903  0.66093  0.43643  Biso   1.000  N
  C163     1.0000 0.96765  0.61765  0.40698  Biso   1.000  C
  H163     1.0000 0.93990  0.59250  0.41550  Biso   1.000  H
  N164     1.0000 0.97903  0.16093  0.93643  Biso   1.000  N
  C164     1.0000 0.96765  0.11765  0.90698  Biso   1.000  C
  H164     1.0000 0.93990  0.09250  0.91550  Biso   1.000  H
  N165     1.0000 0.77097  0.16093  0.81357  Biso   1.000  N
  C165     1.0000 0.78235  0.11765  0.84302  Biso   1.000  C
  H165     1.0000 0.81010  0.09250  0.83450  Biso   1.000  H
  N166     1.0000 0.77097  0.66093  0.31357  Biso   1.000  N
  C166     1.0000 0.78235  0.61765  0.34302  Biso   1.000  C
  H166     1.0000 0.81010  0.59250  0.33450  Biso   1.000  H
  N167     1.0000 0.27097  0.16093  0.31357  Biso   1.000  N
  C167     1.0000 0.28235  0.11765  0.34302  Biso   1.000  C
  H167     1.0000 0.31010  0.09250  0.33450  Biso   1.000  H
  N168     1.0000 0.27097  0.66093  0.81357  Biso   1.000  N
  C168     1.0000 0.28235  0.61765  0.84302  Biso   1.000  C
  H168     1.0000 0.31010  0.59250  0.83450  Biso   1.000  H
  N169     1.0000 0.27097  0.58907  0.43643  Biso   1.000  N
  C169     1.0000 0.28235  0.63235  0.40698  Biso   1.000  C
  H169     1.0000 0.31010  0.65750  0.41550  Biso   1.000  H
  N170     1.0000 0.27097  0.08907  0.93643  Biso   1.000  N
  C170     1.0000 0.28235  0.13235  0.90698  Biso   1.000  C
  H170     1.0000 0.31010  0.15750  0.91550  Biso   1.000  H
  N171     1.0000 0.77097  0.58907  0.93643  Biso   1.000  N
  C171     1.0000 0.78235  0.63235  0.90698  Biso   1.000  C
  H171     1.0000 0.81010  0.65750  0.91550  Biso   1.000  H
  N172     1.0000 0.77097  0.08907  0.43643  Biso   1.000  N
  C172     1.0000 0.78235  0.13235  0.40698  Biso   1.000  C
  H172     1.0000 0.81010  0.15750  0.41550  Biso   1.000  H
  N173     1.0000 0.97903  0.08907  0.31357  Biso   1.000  N
  C173     1.0000 0.96765  0.13235  0.34302  Biso   1.000  C
  H173     1.0000 0.93990  0.15750  0.33450  Biso   1.000  H
  N174     1.0000 0.97903  0.58907  0.81357  Biso   1.000  N
  C174     1.0000 0.96765  0.63235  0.84302  Biso   1.000  C
  H174     1.0000 0.93990  0.65750  0.83450  Biso   1.000  H
  N175     1.0000 0.47903  0.08907  0.81357  Biso   1.000  N
  C175     1.0000 0.46765  0.13235  0.84302  Biso   1.000  C
  H175     1.0000 0.43990  0.15750  0.83450  Biso   1.000  H
  N176     1.0000 0.47903  0.58907  0.31357  Biso   1.000  N
  C176     1.0000 0.46765  0.63235  0.34302  Biso   1.000  C
  H176     1.0000 0.43990  0.65750  0.33450  Biso   1.000  H
  N177     1.0000 0.16093  0.81357  0.77097  Biso   1.000  N
  C177     1.0000 0.11765  0.84302  0.78235  Biso   1.000  C
  H177     1.0000 0.09250  0.83450  0.81010  Biso   1.000  H
  N178     1.0000 0.16093  0.31357  0.27097  Biso   1.000  N
  C178     1.0000 0.11765  0.34302  0.28235  Biso   1.000  C
  H178     1.0000 0.09250  0.33450  0.31010  Biso   1.000  H
  N179     1.0000 0.66093  0.81357  0.27097  Biso   1.000  N
  C179     1.0000 0.61765  0.84302  0.28235  Biso   1.000  C
  H179     1.0000 0.59250  0.83450  0.31010  Biso   1.000  H
  N180     1.0000 0.66093  0.31357  0.77097  Biso   1.000  N
  C180     1.0000 0.61765  0.34302  0.78235  Biso   1.000  C
  H180     1.0000 0.59250  0.33450  0.81010  Biso   1.000  H
  N181     1.0000 0.66093  0.93643  0.47903  Biso   1.000  N
  C181     1.0000 0.61765  0.90698  0.46765  Biso   1.000  C
  H181     1.0000 0.59250  0.91550  0.43990  Biso   1.000  H
  N182     1.0000 0.66093  0.43643  0.97903  Biso   1.000  N
  C182     1.0000 0.61765  0.40698  0.96765  Biso   1.000  C
  H182     1.0000 0.59250  0.41550  0.93990  Biso   1.000  H
  N183     1.0000 0.16093  0.93643  0.97903  Biso   1.000  N
  C183     1.0000 0.11765  0.90698  0.96765  Biso   1.000  C
  H183     1.0000 0.09250  0.91550  0.93990  Biso   1.000  H
  N184     1.0000 0.16093  0.43643  0.47903  Biso   1.000  N
  C184     1.0000 0.11765  0.40698  0.46765  Biso   1.000  C
  H184     1.0000 0.09250  0.41550  0.43990  Biso   1.000  H
  N185     1.0000 0.08907  0.31357  0.97903  Biso   1.000  N
  C185     1.0000 0.13235  0.34302  0.96765  Biso   1.000  C
  H185     1.0000 0.15750  0.33450  0.93990  Biso   1.000  H
  N186     1.0000 0.08907  0.81357  0.47903  Biso   1.000  N
  C186     1.0000 0.13235  0.84302  0.46765  Biso   1.000  C
  H186     1.0000 0.15750  0.83450  0.43990  Biso   1.000  H
  N187     1.0000 0.58907  0.31357  0.47903  Biso   1.000  N
  C187     1.0000 0.63235  0.34302  0.46765  Biso   1.000  C
  H187     1.0000 0.65750  0.33450  0.43990  Biso   1.000  H
  N188     1.0000 0.58907  0.81357  0.97903  Biso   1.000  N
  C188     1.0000 0.63235  0.84302  0.96765  Biso   1.000  C
  H188     1.0000 0.65750  0.83450  0.93990  Biso   1.000  H
  N189     1.0000 0.58907  0.43643  0.27097  Biso   1.000  N
  C189     1.0000 0.63235  0.40698  0.28235  Biso   1.000  C
  H189     1.0000 0.65750  0.41550  0.31010  Biso   1.000  H
  N190     1.0000 0.58907  0.93643  0.77097  Biso   1.000  N
  C190     1.0000 0.63235  0.90698  0.78235  Biso   1.000  C
  H190     1.0000 0.65750  0.91550  0.81010  Biso   1.000  H
  N191     1.0000 0.08907  0.43643  0.77097  Biso   1.000  N
  C191     1.0000 0.13235  0.40698  0.78235  Biso   1.000  C
  H191     1.0000 0.15750  0.41550  0.81010  Biso   1.000  H
  N192     1.0000 0.08907  0.93643  0.27097  Biso   1.000  N
  C192     1.0000 0.13235  0.90698  0.28235  Biso   1.000  C
  H192     1.0000 0.15750  0.91550  0.31010  Biso   1.000  H
  Cu1      1.0000 0.80640  0.00000  0.05640  Biso   1.000  Cu
  Cu2      1.0000 0.80640  0.50000  0.55640  Biso   1.000  Cu
  Cu3      1.0000 0.44360  0.75000  0.55640  Biso   1.000  Cu
  Cu4      1.0000 0.44360  0.25000  0.05640  Biso   1.000  Cu
  Cu5      1.0000 0.94360  0.50000  0.19360  Biso   1.000  Cu
  Cu6      1.0000 0.94360  0.00000  0.69360  Biso   1.000  Cu
  Cu7      1.0000 0.30640  0.25000  0.69360  Biso   1.000  Cu
  Cu8      1.0000 0.30640  0.75000  0.19360  Biso   1.000  Cu
  Cu9      1.0000 0.05640  0.80640  0.00000  Biso   1.000  Cu
  Cu10     1.0000 0.05640  0.30640  0.50000  Biso   1.000  Cu
  Cu11     1.0000 0.55640  0.44360  0.75000  Biso   1.000  Cu
  Cu12     1.0000 0.55640  0.94360  0.25000  Biso   1.000  Cu
  Cu13     1.0000 0.19360  0.94360  0.50000  Biso   1.000  Cu
  Cu14     1.0000 0.19360  0.44360  0.00000  Biso   1.000  Cu
  Cu15     1.0000 0.69360  0.30640  0.25000  Biso   1.000  Cu
  Cu16     1.0000 0.69360  0.80640  0.75000  Biso   1.000  Cu
  Cu17     1.0000 0.00000  0.05640  0.80640  Biso   1.000  Cu
  Cu18     1.0000 0.50000  0.05640  0.30640  Biso   1.000  Cu
  Cu19     1.0000 0.75000  0.55640  0.44360  Biso   1.000  Cu
  Cu20     1.0000 0.25000  0.55640  0.94360  Biso   1.000  Cu
  Cu21     1.0000 0.50000  0.19360  0.94360  Biso   1.000  Cu
  Cu22     1.0000 0.00000  0.19360  0.44360  Biso   1.000  Cu
  Cu23     1.0000 0.25000  0.69360  0.30640  Biso   1.000  Cu
  Cu24     1.0000 0.75000  0.69360  0.80640  Biso   1.000  Cu
  Cu25     1.0000 0.75000  0.05640  0.94360  Biso   1.000  Cu
  Cu26     1.0000 0.25000  0.05640  0.44360  Biso   1.000  Cu
  Cu27     1.0000 0.50000  0.69360  0.44360  Biso   1.000  Cu
  Cu28     1.0000 0.00000  0.69360  0.94360  Biso   1.000  Cu
  Cu29     1.0000 0.25000  0.19360  0.80640  Biso   1.000  Cu
  Cu30     1.0000 0.75000  0.19360  0.30640  Biso   1.000  Cu
  Cu31     1.0000 0.00000  0.55640  0.30640  Biso   1.000  Cu
  Cu32     1.0000 0.50000  0.55640  0.80640  Biso   1.000  Cu
  Cu33     1.0000 0.55640  0.30640  0.00000  Biso   1.000  Cu
  Cu34     1.0000 0.55640  0.80640  0.50000  Biso   1.000  Cu
  Cu35     1.0000 0.19360  0.80640  0.25000  Biso   1.000  Cu
  Cu36     1.0000 0.19360  0.30640  0.75000  Biso   1.000  Cu
  Cu37     1.0000 0.69360  0.44360  0.50000  Biso   1.000  Cu
  Cu38     1.0000 0.69360  0.94360  0.00000  Biso   1.000  Cu
  Cu39     1.0000 0.05640  0.94360  0.75000  Biso   1.000  Cu
  Cu40     1.0000 0.05640  0.44360  0.25000  Biso   1.000  Cu
  Cu41     1.0000 0.80640  0.25000  0.19360  Biso   1.000  Cu
  Cu42     1.0000 0.80640  0.75000  0.69360  Biso   1.000  Cu
  Cu43     1.0000 0.30640  0.00000  0.55640  Biso   1.000  Cu
  Cu44     1.0000 0.30640  0.50000  0.05640  Biso   1.000  Cu
  Cu45     1.0000 0.94360  0.75000  0.05640  Biso   1.000  Cu
  Cu46     1.0000 0.94360  0.25000  0.55640  Biso   1.000  Cu
  Cu47     1.0000 0.44360  0.50000  0.69360  Biso   1.000  Cu
  Cu48     1.0000 0.44360  0.00000  0.19360  Biso   1.000  Cu
  Cu49     1.0000 0.19360  0.00000  0.94360  Biso   1.000  Cu
  Cu50     1.0000 0.19360  0.50000  0.44360  Biso   1.000  Cu
  Cu51     1.0000 0.55640  0.25000  0.44360  Biso   1.000  Cu
  Cu52     1.0000 0.55640  0.75000  0.94360  Biso   1.000  Cu
  Cu53     1.0000 0.05640  0.50000  0.80640  Biso   1.000  Cu
  Cu54     1.0000 0.05640  0.00000  0.30640  Biso   1.000  Cu
  Cu55     1.0000 0.69360  0.75000  0.30640  Biso   1.000  Cu
  Cu56     1.0000 0.69360  0.25000  0.80640  Biso   1.000  Cu
  Cu57     1.0000 0.94360  0.19360  0.00000  Biso   1.000  Cu
  Cu58     1.0000 0.94360  0.69360  0.50000  Biso   1.000  Cu
  Cu59     1.0000 0.44360  0.55640  0.25000  Biso   1.000  Cu
  Cu60     1.0000 0.44360  0.05640  0.75000  Biso   1.000  Cu
  Cu61     1.0000 0.80640  0.05640  0.50000  Biso   1.000  Cu
  Cu62     1.0000 0.80640  0.55640  0.00000  Biso   1.000  Cu
  Cu63     1.0000 0.30640  0.69360  0.75000  Biso   1.000  Cu
  Cu64     1.0000 0.30640  0.19360  0.25000  Biso   1.000  Cu
  Cu65     1.0000 0.00000  0.94360  0.19360  Biso   1.000  Cu
  Cu66     1.0000 0.50000  0.94360  0.69360  Biso   1.000  Cu
  Cu67     1.0000 0.25000  0.44360  0.55640  Biso   1.000  Cu
  Cu68     1.0000 0.75000  0.44360  0.05640  Biso   1.000  Cu
  Cu69     1.0000 0.50000  0.80640  0.05640  Biso   1.000  Cu
  Cu70     1.0000 0.00000  0.80640  0.55640  Biso   1.000  Cu
  Cu71     1.0000 0.75000  0.30640  0.69360  Biso   1.000  Cu
  Cu72     1.0000 0.25000  0.30640  0.19360  Biso   1.000  Cu
  Cu73     1.0000 0.25000  0.94360  0.05640  Biso   1.000  Cu
  Cu74     1.0000 0.75000  0.94360  0.55640  Biso   1.000  Cu
  Cu75     1.0000 0.50000  0.30640  0.55640  Biso   1.000  Cu
  Cu76     1.0000 0.00000  0.30640  0.05640  Biso   1.000  Cu
  Cu77     1.0000 0.75000  0.80640  0.19360  Biso   1.000  Cu
  Cu78     1.0000 0.25000  0.80640  0.69360  Biso   1.000  Cu
  Cu79     1.0000 0.00000  0.44360  0.69360  Biso   1.000  Cu
  Cu80     1.0000 0.50000  0.44360  0.19360  Biso   1.000  Cu
  Cu81     1.0000 0.44360  0.69360  0.00000  Biso   1.000  Cu
  Cu82     1.0000 0.44360  0.19360  0.50000  Biso   1.000  Cu
  Cu83     1.0000 0.80640  0.19360  0.75000  Biso   1.000  Cu
  Cu84     1.0000 0.80640  0.69360  0.25000  Biso   1.000  Cu
  Cu85     1.0000 0.30640  0.55640  0.50000  Biso   1.000  Cu
  Cu86     1.0000 0.30640  0.05640  0.00000  Biso   1.000  Cu
  Cu87     1.0000 0.94360  0.05640  0.25000  Biso   1.000  Cu
  Cu88     1.0000 0.94360  0.55640  0.75000  Biso   1.000  Cu
  Cu89     1.0000 0.19360  0.75000  0.80640  Biso   1.000  Cu
  Cu90     1.0000 0.19360  0.25000  0.30640  Biso   1.000  Cu
  Cu91     1.0000 0.69360  0.00000  0.44360  Biso   1.000  Cu
  Cu92     1.0000 0.69360  0.50000  0.94360  Biso   1.000  Cu
  Cu93     1.0000 0.05640  0.25000  0.94360  Biso   1.000  Cu
  Cu94     1.0000 0.05640  0.75000  0.44360  Biso   1.000  Cu
  Cu95     1.0000 0.55640  0.50000  0.30640  Biso   1.000  Cu
  Cu96     1.0000 0.55640  0.00000  0.80640  Biso   1.000  Cu
  N193     1.0000 0.75000  0.86372  0.13628  Biso   1.000  N
  N194     1.0000 0.25000  0.86372  0.63628  Biso   1.000  N
  N195     1.0000 0.50000  0.88628  0.63628  Biso   1.000  N
  N196     1.0000 0.00000  0.88628  0.13628  Biso   1.000  N
  N197     1.0000 0.00000  0.36372  0.11372  Biso   1.000  N
  N198     1.0000 0.50000  0.36372  0.61372  Biso   1.000  N
  N199     1.0000 0.25000  0.38628  0.61372  Biso   1.000  N
  N200     1.0000 0.75000  0.38628  0.11372  Biso   1.000  N
  N201     1.0000 0.13628  0.75000  0.86372  Biso   1.000  N
  N202     1.0000 0.13628  0.25000  0.36372  Biso   1.000  N
  N203     1.0000 0.63628  0.50000  0.88628  Biso   1.000  N
  N204     1.0000 0.63628  0.00000  0.38628  Biso   1.000  N
  N205     1.0000 0.11372  0.00000  0.36372  Biso   1.000  N
  N206     1.0000 0.11372  0.50000  0.86372  Biso   1.000  N
  N207     1.0000 0.61372  0.25000  0.38628  Biso   1.000  N
  N208     1.0000 0.61372  0.75000  0.88628  Biso   1.000  N
  N209     1.0000 0.86372  0.13628  0.75000  Biso   1.000  N
  N210     1.0000 0.86372  0.63628  0.25000  Biso   1.000  N
  N211     1.0000 0.88628  0.63628  0.50000  Biso   1.000  N
  N212     1.0000 0.88628  0.13628  0.00000  Biso   1.000  N
  N213     1.0000 0.36372  0.11372  0.00000  Biso   1.000  N
  N214     1.0000 0.36372  0.61372  0.50000  Biso   1.000  N
  N215     1.0000 0.38628  0.61372  0.25000  Biso   1.000  N
  N216     1.0000 0.38628  0.11372  0.75000  Biso   1.000  N
  N217     1.0000 0.61372  0.00000  0.86372  Biso   1.000  N
  N218     1.0000 0.61372  0.50000  0.36372  Biso   1.000  N
  N219     1.0000 0.63628  0.75000  0.36372  Biso   1.000  N
  N220     1.0000 0.63628  0.25000  0.86372  Biso   1.000  N
  N221     1.0000 0.11372  0.25000  0.88628  Biso   1.000  N
  N222     1.0000 0.11372  0.75000  0.38628  Biso   1.000  N
  N223     1.0000 0.13628  0.50000  0.38628  Biso   1.000  N
  N224     1.0000 0.13628  0.00000  0.88628  Biso   1.000  N
  N225     1.0000 0.50000  0.38628  0.13628  Biso   1.000  N
  N226     1.0000 0.00000  0.38628  0.63628  Biso   1.000  N
  N227     1.0000 0.25000  0.88628  0.11372  Biso   1.000  N
  N228     1.0000 0.75000  0.88628  0.61372  Biso   1.000  N
  N229     1.0000 0.75000  0.36372  0.63628  Biso   1.000  N
  N230     1.0000 0.25000  0.36372  0.13628  Biso   1.000  N
  N231     1.0000 0.00000  0.86372  0.61372  Biso   1.000  N
  N232     1.0000 0.50000  0.86372  0.11372  Biso   1.000  N
  N233     1.0000 0.88628  0.11372  0.25000  Biso   1.000  N
  N234     1.0000 0.88628  0.61372  0.75000  Biso   1.000  N
  N235     1.0000 0.38628  0.13628  0.50000  Biso   1.000  N
  N236     1.0000 0.38628  0.63628  0.00000  Biso   1.000  N
  N237     1.0000 0.86372  0.61372  0.00000  Biso   1.000  N
  N238     1.0000 0.86372  0.11372  0.50000  Biso   1.000  N
  N239     1.0000 0.36372  0.63628  0.75000  Biso   1.000  N
  N240     1.0000 0.36372  0.13628  0.25000  Biso   1.000  N
  N241     1.0000 0.25000  0.13628  0.86372  Biso   1.000  N
  N242     1.0000 0.75000  0.13628  0.36372  Biso   1.000  N
  N243     1.0000 0.50000  0.11372  0.36372  Biso   1.000  N
  N244     1.0000 0.00000  0.11372  0.86372  Biso   1.000  N
  N245     1.0000 0.00000  0.63628  0.88628  Biso   1.000  N
  N246     1.0000 0.50000  0.63628  0.38628  Biso   1.000  N
  N247     1.0000 0.75000  0.61372  0.38628  Biso   1.000  N
  N248     1.0000 0.25000  0.61372  0.88628  Biso   1.000  N
  N249     1.0000 0.86372  0.25000  0.13628  Biso   1.000  N
  N250     1.0000 0.86372  0.75000  0.63628  Biso   1.000  N
  N251     1.0000 0.36372  0.50000  0.11372  Biso   1.000  N
  N252     1.0000 0.36372  0.00000  0.61372  Biso   1.000  N
  N253     1.0000 0.88628  0.00000  0.63628  Biso   1.000  N
  N254     1.0000 0.88628  0.50000  0.13628  Biso   1.000  N
  N255     1.0000 0.38628  0.75000  0.61372  Biso   1.000  N
  N256     1.0000 0.38628  0.25000  0.11372  Biso   1.000  N
  N257     1.0000 0.13628  0.86372  0.25000  Biso   1.000  N
  N258     1.0000 0.13628  0.36372  0.75000  Biso   1.000  N
  N259     1.0000 0.11372  0.36372  0.50000  Biso   1.000  N
  N260     1.0000 0.11372  0.86372  0.00000  Biso   1.000  N
  N261     1.0000 0.63628  0.88628  0.00000  Biso   1.000  N
  N262     1.0000 0.63628  0.38628  0.50000  Biso   1.000  N
  N263     1.0000 0.61372  0.38628  0.75000  Biso   1.000  N
  N264     1.0000 0.61372  0.88628  0.25000  Biso   1.000  N
  N265     1.0000 0.38628  0.00000  0.13628  Biso   1.000  N
  N266     1.0000 0.38628  0.50000  0.63628  Biso   1.000  N
  N267     1.0000 0.36372  0.25000  0.63628  Biso   1.000  N
  N268     1.0000 0.36372  0.75000  0.13628  Biso   1.000  N
  N269     1.0000 0.88628  0.75000  0.11372  Biso   1.000  N
  N270     1.0000 0.88628  0.25000  0.61372  Biso   1.000  N
  N271     1.0000 0.86372  0.50000  0.61372  Biso   1.000  N
  N272     1.0000 0.86372  0.00000  0.11372  Biso   1.000  N
  N273     1.0000 0.50000  0.61372  0.86372  Biso   1.000  N
  N274     1.0000 0.00000  0.61372  0.36372  Biso   1.000  N
  N275     1.0000 0.75000  0.11372  0.88628  Biso   1.000  N
  N276     1.0000 0.25000  0.11372  0.38628  Biso   1.000  N
  N277     1.0000 0.25000  0.63628  0.36372  Biso   1.000  N
  N278     1.0000 0.75000  0.63628  0.86372  Biso   1.000  N
  N279     1.0000 0.00000  0.13628  0.38628  Biso   1.000  N
  N280     1.0000 0.50000  0.13628  0.88628  Biso   1.000  N
  N281     1.0000 0.11372  0.88628  0.75000  Biso   1.000  N
  N282     1.0000 0.11372  0.38628  0.25000  Biso   1.000  N
  N283     1.0000 0.61372  0.86372  0.50000  Biso   1.000  N
  N284     1.0000 0.61372  0.36372  0.00000  Biso   1.000  N
  N285     1.0000 0.13628  0.38628  0.00000  Biso   1.000  N
  N286     1.0000 0.13628  0.88628  0.50000  Biso   1.000  N
  N287     1.0000 0.63628  0.36372  0.25000  Biso   1.000  N
  N288     1.0000 0.63628  0.86372  0.75000  Biso   1.000  N
  O1       1.0000 0.73882  0.01118  0.01118  Biso   1.000  O
  O2       1.0000 0.51118  0.73882  0.51118  Biso   1.000  O
  O3       1.0000 0.01118  0.51118  0.23882  Biso   1.000  O
  O4       1.0000 0.23882  0.23882  0.73882  Biso   1.000  O
  O5       1.0000 0.01118  0.73882  0.01118  Biso   1.000  O
  O6       1.0000 0.01118  0.23882  0.51118  Biso   1.000  O
  O7       1.0000 0.51118  0.51118  0.73882  Biso   1.000  O
  O8       1.0000 0.51118  0.01118  0.23882  Biso   1.000  O
  O9       1.0000 0.23882  0.01118  0.51118  Biso   1.000  O
  O10      1.0000 0.23882  0.51118  0.01118  Biso   1.000  O
  O11      1.0000 0.73882  0.23882  0.23882  Biso   1.000  O
  O12      1.0000 0.73882  0.73882  0.73882  Biso   1.000  O
  O13      1.0000 0.01118  0.01118  0.73882  Biso   1.000  O
  O14      1.0000 0.73882  0.51118  0.51118  Biso   1.000  O
  O15      1.0000 0.51118  0.23882  0.01118  Biso   1.000  O
  O16      1.0000 0.23882  0.73882  0.23882  Biso   1.000  O
  O17      1.0000 0.76118  0.98882  0.98882  Biso   1.000  O
  O18      1.0000 0.48882  0.76118  0.48882  Biso   1.000  O
  O19      1.0000 0.26118  0.26118  0.76118  Biso   1.000  O
  O20      1.0000 0.98882  0.48882  0.26118  Biso   1.000  O
  O21      1.0000 0.48882  0.26118  0.98882  Biso   1.000  O
  O22      1.0000 0.26118  0.76118  0.26118  Biso   1.000  O
  O23      1.0000 0.76118  0.48882  0.48882  Biso   1.000  O
  O24      1.0000 0.98882  0.98882  0.76118  Biso   1.000  O
  O25      1.0000 0.76118  0.26118  0.26118  Biso   1.000  O
  O26      1.0000 0.76118  0.76118  0.76118  Biso   1.000  O
  O27      1.0000 0.26118  0.98882  0.48882  Biso   1.000  O
  O28      1.0000 0.26118  0.48882  0.98882  Biso   1.000  O
  O29      1.0000 0.98882  0.76118  0.98882  Biso   1.000  O
  O30      1.0000 0.98882  0.26118  0.48882  Biso   1.000  O
  O31      1.0000 0.48882  0.48882  0.76118  Biso   1.000  O
  O32      1.0000 0.48882  0.98882  0.26118  Biso   1.000  O
  O33      1.0000 0.26118  0.98882  0.98882  Biso   1.000  O
  O34      1.0000 0.48882  0.26118  0.48882  Biso   1.000  O
  O35      1.0000 0.98882  0.48882  0.76118  Biso   1.000  O
  O36      1.0000 0.76118  0.76118  0.26118  Biso   1.000  O
  O37      1.0000 0.98882  0.26118  0.98882  Biso   1.000  O
  O38      1.0000 0.98882  0.76118  0.48882  Biso   1.000  O
  O39      1.0000 0.48882  0.48882  0.26118  Biso   1.000  O
  O40      1.0000 0.48882  0.98882  0.76118  Biso   1.000  O
  O41      1.0000 0.76118  0.98882  0.48882  Biso   1.000  O
  O42      1.0000 0.76118  0.48882  0.98882  Biso   1.000  O
  O43      1.0000 0.26118  0.76118  0.76118  Biso   1.000  O
  O44      1.0000 0.26118  0.26118  0.26118  Biso   1.000  O
  O45      1.0000 0.98882  0.98882  0.26118  Biso   1.000  O
  O46      1.0000 0.26118  0.48882  0.48882  Biso   1.000  O
  O47      1.0000 0.48882  0.76118  0.98882  Biso   1.000  O
  O48      1.0000 0.76118  0.26118  0.76118  Biso   1.000  O
  O49      1.0000 0.23882  0.01118  0.01118  Biso   1.000  O
  O50      1.0000 0.51118  0.23882  0.51118  Biso   1.000  O
  O51      1.0000 0.73882  0.73882  0.23882  Biso   1.000  O
  O52      1.0000 0.01118  0.51118  0.73882  Biso   1.000  O
  O53      1.0000 0.51118  0.73882  0.01118  Biso   1.000  O
  O54      1.0000 0.73882  0.23882  0.73882  Biso   1.000  O
  O55      1.0000 0.23882  0.51118  0.51118  Biso   1.000  O
  O56      1.0000 0.01118  0.01118  0.23882  Biso   1.000  O
  O57      1.0000 0.23882  0.73882  0.73882  Biso   1.000  O
  O58      1.0000 0.23882  0.23882  0.23882  Biso   1.000  O
  O59      1.0000 0.73882  0.01118  0.51118  Biso   1.000  O
  O60      1.0000 0.73882  0.51118  0.01118  Biso   1.000  O
  O61      1.0000 0.01118  0.23882  0.01118  Biso   1.000  O
  O62      1.0000 0.01118  0.73882  0.51118  Biso   1.000  O
  O63      1.0000 0.51118  0.51118  0.23882  Biso   1.000  O
  O64      1.0000 0.51118  0.01118  0.73882  Biso   1.000  O
