data_image0
_cell_length_a       29.368
_cell_length_b       29.368
_cell_length_c       20.868
_cell_angle_alpha    90
_cell_angle_beta     90
_cell_angle_gamma    120

_symmetry_space_group_name_H-M    "P 1"
_symmetry_int_tables_number       1

loop_
  _symmetry_equiv_pos_as_xyz
  'x, y, z'

loop_
  _atom_site_label
  _atom_site_occupancy
  _atom_site_fract_x
  _atom_site_fract_y
  _atom_site_fract_z
  _atom_site_thermal_displace_type
  _atom_site_B_iso_or_equiv
  _atom_site_type_symbol
  O1       1.0000 0.43190  0.71292  0.99409  Biso   1.000  O
  O2       1.0000 0.39703  0.62654  0.97645  Biso   1.000  O
  C1       1.0000 0.43305  0.67053  0.99460  Biso   1.000  C
  C2       1.0000 0.48292  0.67281  0.01760  Biso   1.000  C
  C3       1.0000 0.57501  0.67181  0.05160  Biso   1.000  C
  C4       1.0000 0.62308  0.66940  0.06880  Biso   1.000  C
  C5       1.0000 0.62152  0.62121  0.06900  Biso   1.000  C
  H1       1.0000 0.58970  0.58980  0.05930  Biso   1.000  H
  C6       1.0000 0.71240  0.56650  0.07350  Biso   1.000  C
  H2       1.0000 0.74470  0.59800  0.06580  Biso   1.000  H
  C7       1.0000 0.71100  0.51870  0.07480  Biso   1.000  C
  H3       1.0000 0.74300  0.51840  0.06930  Biso   1.000  H
  C8       1.0000 0.52880  0.71770  0.02900  Biso   1.000  C
  H4       1.0000 0.53040  0.75050  0.02310  Biso   1.000  H
  C9       1.0000 0.57350  0.71730  0.04910  Biso   1.000  C
  H5       1.0000 0.60370  0.74930  0.06130  Biso   1.000  H
  C10      1.0000 0.52380  0.62370  0.05230  Biso   1.000  C
  H6       1.0000 0.52080  0.59150  0.06580  Biso   1.000  H
  C11      1.0000 0.47980  0.62550  0.03320  Biso   1.000  C
  H7       1.0000 0.44690  0.59380  0.03060  Biso   1.000  H
  C12      1.0000 0.52120  0.71150  0.05240  Biso   1.000  C
  H8       1.0000 0.51590  0.73900  0.06770  Biso   1.000  H
  C13      1.0000 0.56800  0.71320  0.06710  Biso   1.000  C
  H9       1.0000 0.59530  0.74320  0.08800  Biso   1.000  H
  C14      1.0000 0.54060  0.63410  0.00410  Biso   1.000  C
  H10      1.0000 0.54950  0.61040  0.98440  Biso   1.000  H
  C15      1.0000 0.49430  0.63350  0.98850  Biso   1.000  C
  H11      1.0000 0.47010  0.60810  0.95930  Biso   1.000  H
  C16      1.0000 0.63600  0.53010  0.04400  Biso   1.000  C
  H12      1.0000 0.61240  0.53410  0.01670  Biso   1.000  H
  C17      1.0000 0.63780  0.48290  0.04170  Biso   1.000  C
  H13      1.0000 0.61800  0.45750  0.00990  Biso   1.000  H
  O3       1.0000 0.09857  0.04625  0.32742  Biso   1.000  O
  O4       1.0000 0.06370  0.95987  0.30978  Biso   1.000  O
  C18      1.0000 0.09972  0.00386  0.32793  Biso   1.000  C
  C19      1.0000 0.14959  0.00614  0.35093  Biso   1.000  C
  C20      1.0000 0.24168  0.00514  0.38493  Biso   1.000  C
  C21      1.0000 0.28975  0.00273  0.40213  Biso   1.000  C
  C22      1.0000 0.28819  0.95454  0.40233  Biso   1.000  C
  H14      1.0000 0.25637  0.92313  0.39263  Biso   1.000  H
  C23      1.0000 0.37907  0.89983  0.40683  Biso   1.000  C
  H15      1.0000 0.41137  0.93133  0.39913  Biso   1.000  H
  C24      1.0000 0.37767  0.85203  0.40813  Biso   1.000  C
  H16      1.0000 0.40967  0.85173  0.40263  Biso   1.000  H
  C25      1.0000 0.19547  0.05103  0.36233  Biso   1.000  C
  H17      1.0000 0.19707  0.08383  0.35643  Biso   1.000  H
  C26      1.0000 0.24017  0.05063  0.38243  Biso   1.000  C
  H18      1.0000 0.27037  0.08263  0.39463  Biso   1.000  H
  C27      1.0000 0.19047  0.95703  0.38563  Biso   1.000  C
  H19      1.0000 0.18747  0.92483  0.39913  Biso   1.000  H
  C28      1.0000 0.14647  0.95883  0.36653  Biso   1.000  C
  H20      1.0000 0.11357  0.92713  0.36393  Biso   1.000  H
  C29      1.0000 0.18787  0.04483  0.38573  Biso   1.000  C
  H21      1.0000 0.18257  0.07233  0.40103  Biso   1.000  H
  C30      1.0000 0.23467  0.04653  0.40043  Biso   1.000  C
  H22      1.0000 0.26197  0.07653  0.42133  Biso   1.000  H
  C31      1.0000 0.20727  0.96743  0.33743  Biso   1.000  C
  H23      1.0000 0.21617  0.94373  0.31773  Biso   1.000  H
  C32      1.0000 0.16097  0.96683  0.32183  Biso   1.000  C
  H24      1.0000 0.13677  0.94143  0.29263  Biso   1.000  H
  C33      1.0000 0.30267  0.86343  0.37733  Biso   1.000  C
  H25      1.0000 0.27907  0.86743  0.35003  Biso   1.000  H
  C34      1.0000 0.30447  0.81623  0.37503  Biso   1.000  C
  H26      1.0000 0.28467  0.79083  0.34323  Biso   1.000  H
  O5       1.0000 0.76523  0.37959  0.66076  Biso   1.000  O
  O6       1.0000 0.73036  0.29321  0.64312  Biso   1.000  O
  C35      1.0000 0.76638  0.33720  0.66127  Biso   1.000  C
  C36      1.0000 0.81625  0.33948  0.68427  Biso   1.000  C
  C37      1.0000 0.90834  0.33848  0.71827  Biso   1.000  C
  C38      1.0000 0.95641  0.33607  0.73547  Biso   1.000  C
  C39      1.0000 0.95485  0.28788  0.73567  Biso   1.000  C
  H27      1.0000 0.92303  0.25647  0.72597  Biso   1.000  H
  C40      1.0000 0.04573  0.23317  0.74017  Biso   1.000  C
  H28      1.0000 0.07803  0.26467  0.73247  Biso   1.000  H
  C41      1.0000 0.04433  0.18537  0.74147  Biso   1.000  C
  H29      1.0000 0.07633  0.18507  0.73597  Biso   1.000  H
  C42      1.0000 0.86213  0.38437  0.69567  Biso   1.000  C
  H30      1.0000 0.86373  0.41717  0.68977  Biso   1.000  H
  C43      1.0000 0.90683  0.38397  0.71577  Biso   1.000  C
  H31      1.0000 0.93703  0.41597  0.72797  Biso   1.000  H
  C44      1.0000 0.85713  0.29037  0.71897  Biso   1.000  C
  H32      1.0000 0.85413  0.25817  0.73247  Biso   1.000  H
  C45      1.0000 0.81313  0.29217  0.69987  Biso   1.000  C
  H33      1.0000 0.78023  0.26047  0.69727  Biso   1.000  H
  C46      1.0000 0.85453  0.37817  0.71907  Biso   1.000  C
  H34      1.0000 0.84923  0.40567  0.73437  Biso   1.000  H
  C47      1.0000 0.90133  0.37987  0.73377  Biso   1.000  C
  H35      1.0000 0.92863  0.40987  0.75467  Biso   1.000  H
  C48      1.0000 0.87393  0.30077  0.67077  Biso   1.000  C
  H36      1.0000 0.88283  0.27707  0.65107  Biso   1.000  H
  C49      1.0000 0.82763  0.30017  0.65517  Biso   1.000  C
  H37      1.0000 0.80343  0.27477  0.62597  Biso   1.000  H
  C50      1.0000 0.96933  0.19677  0.71067  Biso   1.000  C
  H38      1.0000 0.94573  0.20077  0.68337  Biso   1.000  H
  C51      1.0000 0.97113  0.14957  0.70837  Biso   1.000  C
  H39      1.0000 0.95133  0.12417  0.67657  Biso   1.000  H
  O7       1.0000 0.28708  0.71898  0.99409  Biso   1.000  O
  O8       1.0000 0.37346  0.77049  0.97645  Biso   1.000  O
  C52      1.0000 0.32947  0.76252  0.99460  Biso   1.000  C
  C53      1.0000 0.32719  0.81011  0.01760  Biso   1.000  C
  C54      1.0000 0.32819  0.90320  0.05160  Biso   1.000  C
  C55      1.0000 0.33060  0.95368  0.06880  Biso   1.000  C
  C56      1.0000 0.37879  0.00031  0.06900  Biso   1.000  C
  H40      1.0000 0.41020  0.99990  0.05930  Biso   1.000  H
  C57      1.0000 0.43350  0.14590  0.07350  Biso   1.000  C
  H41      1.0000 0.40200  0.14670  0.06580  Biso   1.000  H
  C58      1.0000 0.48130  0.19230  0.07480  Biso   1.000  C
  H42      1.0000 0.48160  0.22460  0.06930  Biso   1.000  H
  C59      1.0000 0.28230  0.81110  0.02900  Biso   1.000  C
  H43      1.0000 0.24950  0.77990  0.02310  Biso   1.000  H
  C60      1.0000 0.28270  0.85620  0.04910  Biso   1.000  C
  H44      1.0000 0.25070  0.85440  0.06130  Biso   1.000  H
  C61      1.0000 0.37630  0.90010  0.05230  Biso   1.000  C
  H45      1.0000 0.40850  0.92930  0.06580  Biso   1.000  H
  C62      1.0000 0.37450  0.85430  0.03320  Biso   1.000  C
  H46      1.0000 0.40620  0.85310  0.03060  Biso   1.000  H
  C63      1.0000 0.28850  0.80970  0.05240  Biso   1.000  C
  H47      1.0000 0.26100  0.77690  0.06770  Biso   1.000  H
  C64      1.0000 0.28680  0.85480  0.06710  Biso   1.000  C
  H48      1.0000 0.25680  0.85210  0.08800  Biso   1.000  H
  C65      1.0000 0.36590  0.90650  0.00410  Biso   1.000  C
  H49      1.0000 0.38960  0.93910  0.98440  Biso   1.000  H
  C66      1.0000 0.36650  0.86080  0.98850  Biso   1.000  C
  H50      1.0000 0.39190  0.86200  0.95930  Biso   1.000  H
  C67      1.0000 0.46990  0.10590  0.04400  Biso   1.000  C
  H51      1.0000 0.46590  0.07830  0.01670  Biso   1.000  H
  C68      1.0000 0.51710  0.15490  0.04170  Biso   1.000  C
  H52      1.0000 0.54250  0.16050  0.00990  Biso   1.000  H
  O9       1.0000 0.95375  0.05231  0.32742  Biso   1.000  O
  O10      1.0000 0.04013  0.10382  0.30978  Biso   1.000  O
  C69      1.0000 0.99614  0.09585  0.32793  Biso   1.000  C
  C70      1.0000 0.99386  0.14344  0.35093  Biso   1.000  C
  C71      1.0000 0.99486  0.23653  0.38493  Biso   1.000  C
  C72      1.0000 0.99727  0.28701  0.40213  Biso   1.000  C
  C73      1.0000 0.04546  0.33364  0.40233  Biso   1.000  C
  H53      1.0000 0.07687  0.33323  0.39263  Biso   1.000  H
  C74      1.0000 0.10017  0.47923  0.40683  Biso   1.000  C
  H54      1.0000 0.06867  0.48003  0.39913  Biso   1.000  H
  C75      1.0000 0.14797  0.52563  0.40813  Biso   1.000  C
  H55      1.0000 0.14827  0.55793  0.40263  Biso   1.000  H
  C76      1.0000 0.94897  0.14443  0.36233  Biso   1.000  C
  H56      1.0000 0.91617  0.11323  0.35643  Biso   1.000  H
  C77      1.0000 0.94937  0.18953  0.38243  Biso   1.000  C
  H57      1.0000 0.91737  0.18773  0.39463  Biso   1.000  H
  C78      1.0000 0.04297  0.23343  0.38563  Biso   1.000  C
  H58      1.0000 0.07517  0.26263  0.39913  Biso   1.000  H
  C79      1.0000 0.04117  0.18763  0.36653  Biso   1.000  C
  H59      1.0000 0.07287  0.18643  0.36393  Biso   1.000  H
  C80      1.0000 0.95517  0.14303  0.38573  Biso   1.000  C
  H60      1.0000 0.92767  0.11023  0.40103  Biso   1.000  H
  C81      1.0000 0.95347  0.18813  0.40043  Biso   1.000  C
  H61      1.0000 0.92347  0.18543  0.42133  Biso   1.000  H
  C82      1.0000 0.03257  0.23983  0.33743  Biso   1.000  C
  H62      1.0000 0.05627  0.27243  0.31773  Biso   1.000  H
  C83      1.0000 0.03317  0.19413  0.32183  Biso   1.000  C
  H63      1.0000 0.05857  0.19533  0.29263  Biso   1.000  H
  C84      1.0000 0.13657  0.43923  0.37733  Biso   1.000  C
  H64      1.0000 0.13257  0.41163  0.35003  Biso   1.000  H
  C85      1.0000 0.18377  0.48823  0.37503  Biso   1.000  C
  H65      1.0000 0.20917  0.49383  0.34323  Biso   1.000  H
  O11      1.0000 0.62041  0.38565  0.66076  Biso   1.000  O
  O12      1.0000 0.70679  0.43716  0.64312  Biso   1.000  O
  C86      1.0000 0.66280  0.42919  0.66127  Biso   1.000  C
  C87      1.0000 0.66052  0.47678  0.68427  Biso   1.000  C
  C88      1.0000 0.66152  0.56987  0.71827  Biso   1.000  C
  C89      1.0000 0.66393  0.62035  0.73547  Biso   1.000  C
  C90      1.0000 0.71212  0.66698  0.73567  Biso   1.000  C
  H66      1.0000 0.74353  0.66657  0.72597  Biso   1.000  H
  C91      1.0000 0.76683  0.81257  0.74017  Biso   1.000  C
  H67      1.0000 0.73533  0.81337  0.73247  Biso   1.000  H
  C92      1.0000 0.81463  0.85897  0.74147  Biso   1.000  C
  H68      1.0000 0.81493  0.89127  0.73597  Biso   1.000  H
  C93      1.0000 0.61563  0.47777  0.69567  Biso   1.000  C
  H69      1.0000 0.58283  0.44657  0.68977  Biso   1.000  H
  C94      1.0000 0.61603  0.52287  0.71577  Biso   1.000  C
  H70      1.0000 0.58403  0.52107  0.72797  Biso   1.000  H
  C95      1.0000 0.70963  0.56677  0.71897  Biso   1.000  C
  H71      1.0000 0.74183  0.59597  0.73247  Biso   1.000  H
  C96      1.0000 0.70783  0.52097  0.69987  Biso   1.000  C
  H72      1.0000 0.73953  0.51977  0.69727  Biso   1.000  H
  C97      1.0000 0.62183  0.47637  0.71907  Biso   1.000  C
  H73      1.0000 0.59433  0.44357  0.73437  Biso   1.000  H
  C98      1.0000 0.62013  0.52147  0.73377  Biso   1.000  C
  H74      1.0000 0.59013  0.51877  0.75467  Biso   1.000  H
  C99      1.0000 0.69923  0.57317  0.67077  Biso   1.000  C
  H75      1.0000 0.72293  0.60577  0.65107  Biso   1.000  H
  C100     1.0000 0.69983  0.52747  0.65517  Biso   1.000  C
  H76      1.0000 0.72523  0.52867  0.62597  Biso   1.000  H
  C101     1.0000 0.80323  0.77257  0.71067  Biso   1.000  C
  H77      1.0000 0.79923  0.74497  0.68337  Biso   1.000  H
  C102     1.0000 0.85043  0.82157  0.70837  Biso   1.000  C
  H78      1.0000 0.87583  0.82717  0.67657  Biso   1.000  H
  O13      1.0000 0.28102  0.56810  0.99409  Biso   1.000  O
  O14      1.0000 0.22951  0.60297  0.97645  Biso   1.000  O
  C103     1.0000 0.23748  0.56695  0.99460  Biso   1.000  C
  C104     1.0000 0.18989  0.51708  0.01760  Biso   1.000  C
  C105     1.0000 0.09680  0.42499  0.05160  Biso   1.000  C
  C106     1.0000 0.04632  0.37692  0.06880  Biso   1.000  C
  C107     1.0000 0.99969  0.37848  0.06900  Biso   1.000  C
  H79      1.0000 0.00010  0.41030  0.05930  Biso   1.000  H
  C108     1.0000 0.85410  0.28760  0.07350  Biso   1.000  C
  H80      1.0000 0.85330  0.25530  0.06580  Biso   1.000  H
  C109     1.0000 0.80770  0.28900  0.07480  Biso   1.000  C
  H81      1.0000 0.77540  0.25700  0.06930  Biso   1.000  H
  C110     1.0000 0.18890  0.47120  0.02900  Biso   1.000  C
  H82      1.0000 0.22010  0.46960  0.02310  Biso   1.000  H
  C111     1.0000 0.14380  0.42650  0.04910  Biso   1.000  C
  H83      1.0000 0.14560  0.39630  0.06130  Biso   1.000  H
  C112     1.0000 0.09990  0.47620  0.05230  Biso   1.000  C
  H84      1.0000 0.07070  0.47920  0.06580  Biso   1.000  H
  C113     1.0000 0.14570  0.52020  0.03320  Biso   1.000  C
  H85      1.0000 0.14690  0.55310  0.03060  Biso   1.000  H
  C114     1.0000 0.19030  0.47880  0.05240  Biso   1.000  C
  H86      1.0000 0.22310  0.48410  0.06770  Biso   1.000  H
  C115     1.0000 0.14520  0.43200  0.06710  Biso   1.000  C
  H87      1.0000 0.14790  0.40470  0.08800  Biso   1.000  H
  C116     1.0000 0.09350  0.45940  0.00410  Biso   1.000  C
  H88      1.0000 0.06090  0.45050  0.98440  Biso   1.000  H
  C117     1.0000 0.13920  0.50570  0.98850  Biso   1.000  C
  H89      1.0000 0.13800  0.52990  0.95930  Biso   1.000  H
  C118     1.0000 0.89410  0.36400  0.04400  Biso   1.000  C
  H90      1.0000 0.92170  0.38760  0.01670  Biso   1.000  H
  C119     1.0000 0.84510  0.36220  0.04170  Biso   1.000  C
  H91      1.0000 0.83950  0.38200  0.00990  Biso   1.000  H
  O15      1.0000 0.94769  0.90143  0.32742  Biso   1.000  O
  O16      1.0000 0.89618  0.93630  0.30978  Biso   1.000  O
  C120     1.0000 0.90415  0.90028  0.32793  Biso   1.000  C
  C121     1.0000 0.85656  0.85041  0.35093  Biso   1.000  C
  C122     1.0000 0.76347  0.75832  0.38493  Biso   1.000  C
  C123     1.0000 0.71299  0.71025  0.40213  Biso   1.000  C
  C124     1.0000 0.66636  0.71181  0.40233  Biso   1.000  C
  H92      1.0000 0.66677  0.74363  0.39263  Biso   1.000  H
  C125     1.0000 0.52077  0.62093  0.40683  Biso   1.000  C
  H93      1.0000 0.51997  0.58863  0.39913  Biso   1.000  H
  C126     1.0000 0.47437  0.62233  0.40813  Biso   1.000  C
  H94      1.0000 0.44207  0.59033  0.40263  Biso   1.000  H
  C127     1.0000 0.85557  0.80453  0.36233  Biso   1.000  C
  H95      1.0000 0.88677  0.80293  0.35643  Biso   1.000  H
  C128     1.0000 0.81047  0.75983  0.38243  Biso   1.000  C
  H96      1.0000 0.81227  0.72963  0.39463  Biso   1.000  H
  C129     1.0000 0.76657  0.80953  0.38563  Biso   1.000  C
  H97      1.0000 0.73737  0.81253  0.39913  Biso   1.000  H
  C130     1.0000 0.81237  0.85353  0.36653  Biso   1.000  C
  H98      1.0000 0.81357  0.88643  0.36393  Biso   1.000  H
  C131     1.0000 0.85697  0.81213  0.38573  Biso   1.000  C
  H99      1.0000 0.88977  0.81743  0.40103  Biso   1.000  H
  C132     1.0000 0.81187  0.76533  0.40043  Biso   1.000  C
  H100     1.0000 0.81457  0.73803  0.42133  Biso   1.000  H
  C133     1.0000 0.76017  0.79273  0.33743  Biso   1.000  C
  H101     1.0000 0.72757  0.78383  0.31773  Biso   1.000  H
  C134     1.0000 0.80587  0.83903  0.32183  Biso   1.000  C
  H102     1.0000 0.80467  0.86323  0.29263  Biso   1.000  H
  C135     1.0000 0.56077  0.69733  0.37733  Biso   1.000  C
  H103     1.0000 0.58837  0.72093  0.35003  Biso   1.000  H
  C136     1.0000 0.51177  0.69553  0.37503  Biso   1.000  C
  H104     1.0000 0.50617  0.71533  0.34323  Biso   1.000  H
  O17      1.0000 0.61435  0.23477  0.66076  Biso   1.000  O
  O18      1.0000 0.56284  0.26964  0.64312  Biso   1.000  O
  C137     1.0000 0.57081  0.23362  0.66127  Biso   1.000  C
  C138     1.0000 0.52322  0.18375  0.68427  Biso   1.000  C
  C139     1.0000 0.43013  0.09166  0.71827  Biso   1.000  C
  C140     1.0000 0.37965  0.04359  0.73547  Biso   1.000  C
  C141     1.0000 0.33302  0.04515  0.73567  Biso   1.000  C
  H105     1.0000 0.33343  0.07697  0.72597  Biso   1.000  H
  C142     1.0000 0.18743  0.95427  0.74017  Biso   1.000  C
  H106     1.0000 0.18663  0.92197  0.73247  Biso   1.000  H
  C143     1.0000 0.14103  0.95567  0.74147  Biso   1.000  C
  H107     1.0000 0.10873  0.92367  0.73597  Biso   1.000  H
  C144     1.0000 0.52223  0.13787  0.69567  Biso   1.000  C
  H108     1.0000 0.55343  0.13627  0.68977  Biso   1.000  H
  C145     1.0000 0.47713  0.09317  0.71577  Biso   1.000  C
  H109     1.0000 0.47893  0.06297  0.72797  Biso   1.000  H
  C146     1.0000 0.43323  0.14287  0.71897  Biso   1.000  C
  H110     1.0000 0.40403  0.14587  0.73247  Biso   1.000  H
  C147     1.0000 0.47903  0.18687  0.69987  Biso   1.000  C
  H111     1.0000 0.48023  0.21977  0.69727  Biso   1.000  H
  C148     1.0000 0.52363  0.14547  0.71907  Biso   1.000  C
  H112     1.0000 0.55643  0.15077  0.73437  Biso   1.000  H
  C149     1.0000 0.47853  0.09867  0.73377  Biso   1.000  C
  H113     1.0000 0.48123  0.07137  0.75467  Biso   1.000  H
  C150     1.0000 0.42683  0.12607  0.67077  Biso   1.000  C
  H114     1.0000 0.39423  0.11717  0.65107  Biso   1.000  H
  C151     1.0000 0.47253  0.17237  0.65517  Biso   1.000  C
  H115     1.0000 0.47133  0.19657  0.62597  Biso   1.000  H
  C152     1.0000 0.22743  0.03067  0.71067  Biso   1.000  C
  H116     1.0000 0.25503  0.05427  0.68337  Biso   1.000  H
  C153     1.0000 0.17843  0.02887  0.70837  Biso   1.000  C
  H117     1.0000 0.17283  0.04867  0.67657  Biso   1.000  H
  O19      1.0000 0.71292  0.43190  0.50591  Biso   1.000  O
  O20      1.0000 0.62654  0.39703  0.52355  Biso   1.000  O
  C154     1.0000 0.67053  0.43305  0.50540  Biso   1.000  C
  C155     1.0000 0.67281  0.48292  0.48240  Biso   1.000  C
  C156     1.0000 0.67181  0.57501  0.44840  Biso   1.000  C
  C157     1.0000 0.66940  0.62308  0.43120  Biso   1.000  C
  C158     1.0000 0.62121  0.62152  0.43100  Biso   1.000  C
  H118     1.0000 0.58980  0.58970  0.44070  Biso   1.000  H
  C159     1.0000 0.56650  0.71240  0.42650  Biso   1.000  C
  H119     1.0000 0.59800  0.74470  0.43420  Biso   1.000  H
  C160     1.0000 0.51870  0.71100  0.42520  Biso   1.000  C
  H120     1.0000 0.51840  0.74300  0.43070  Biso   1.000  H
  C161     1.0000 0.71770  0.52880  0.47100  Biso   1.000  C
  H121     1.0000 0.75050  0.53040  0.47690  Biso   1.000  H
  C162     1.0000 0.71730  0.57350  0.45090  Biso   1.000  C
  H122     1.0000 0.74930  0.60370  0.43870  Biso   1.000  H
  C163     1.0000 0.62370  0.52380  0.44770  Biso   1.000  C
  H123     1.0000 0.59150  0.52080  0.43420  Biso   1.000  H
  C164     1.0000 0.62550  0.47980  0.46680  Biso   1.000  C
  H124     1.0000 0.59380  0.44690  0.46940  Biso   1.000  H
  C165     1.0000 0.71150  0.52120  0.44760  Biso   1.000  C
  H125     1.0000 0.73900  0.51590  0.43230  Biso   1.000  H
  C166     1.0000 0.71320  0.56800  0.43290  Biso   1.000  C
  H126     1.0000 0.74320  0.59530  0.41200  Biso   1.000  H
  C167     1.0000 0.63410  0.54060  0.49590  Biso   1.000  C
  H127     1.0000 0.61040  0.54950  0.51560  Biso   1.000  H
  C168     1.0000 0.63350  0.49430  0.51150  Biso   1.000  C
  H128     1.0000 0.60810  0.47010  0.54070  Biso   1.000  H
  C169     1.0000 0.53010  0.63600  0.45600  Biso   1.000  C
  H129     1.0000 0.53410  0.61240  0.48330  Biso   1.000  H
  C170     1.0000 0.48290  0.63780  0.45830  Biso   1.000  C
  H130     1.0000 0.45750  0.61800  0.49010  Biso   1.000  H
  O21      1.0000 0.37959  0.76523  0.83924  Biso   1.000  O
  O22      1.0000 0.29321  0.73036  0.85688  Biso   1.000  O
  C171     1.0000 0.33720  0.76638  0.83873  Biso   1.000  C
  C172     1.0000 0.33948  0.81625  0.81573  Biso   1.000  C
  C173     1.0000 0.33848  0.90834  0.78173  Biso   1.000  C
  C174     1.0000 0.33607  0.95641  0.76453  Biso   1.000  C
  C175     1.0000 0.28788  0.95485  0.76433  Biso   1.000  C
  H131     1.0000 0.25647  0.92303  0.77403  Biso   1.000  H
  C176     1.0000 0.23317  0.04573  0.75983  Biso   1.000  C
  H132     1.0000 0.26467  0.07803  0.76753  Biso   1.000  H
  C177     1.0000 0.18537  0.04433  0.75853  Biso   1.000  C
  H133     1.0000 0.18507  0.07633  0.76403  Biso   1.000  H
  C178     1.0000 0.38437  0.86213  0.80433  Biso   1.000  C
  H134     1.0000 0.41717  0.86373  0.81023  Biso   1.000  H
  C179     1.0000 0.38397  0.90683  0.78423  Biso   1.000  C
  H135     1.0000 0.41597  0.93703  0.77203  Biso   1.000  H
  C180     1.0000 0.29037  0.85713  0.78103  Biso   1.000  C
  H136     1.0000 0.25817  0.85413  0.76753  Biso   1.000  H
  C181     1.0000 0.29217  0.81313  0.80013  Biso   1.000  C
  H137     1.0000 0.26047  0.78023  0.80273  Biso   1.000  H
  C182     1.0000 0.37817  0.85453  0.78093  Biso   1.000  C
  H138     1.0000 0.40567  0.84923  0.76563  Biso   1.000  H
  C183     1.0000 0.37987  0.90133  0.76623  Biso   1.000  C
  H139     1.0000 0.40987  0.92863  0.74533  Biso   1.000  H
  C184     1.0000 0.30077  0.87393  0.82923  Biso   1.000  C
  H140     1.0000 0.27707  0.88283  0.84893  Biso   1.000  H
  C185     1.0000 0.30017  0.82763  0.84483  Biso   1.000  C
  H141     1.0000 0.27477  0.80343  0.87403  Biso   1.000  H
  C186     1.0000 0.19677  0.96933  0.78933  Biso   1.000  C
  H142     1.0000 0.20077  0.94573  0.81663  Biso   1.000  H
  C187     1.0000 0.14957  0.97113  0.79163  Biso   1.000  C
  H143     1.0000 0.12417  0.95133  0.82343  Biso   1.000  H
  O23      1.0000 0.04625  0.09857  0.17258  Biso   1.000  O
  O24      1.0000 0.95987  0.06370  0.19022  Biso   1.000  O
  C188     1.0000 0.00386  0.09972  0.17207  Biso   1.000  C
  C189     1.0000 0.00614  0.14959  0.14907  Biso   1.000  C
  C190     1.0000 0.00514  0.24168  0.11507  Biso   1.000  C
  C191     1.0000 0.00273  0.28975  0.09787  Biso   1.000  C
  C192     1.0000 0.95454  0.28819  0.09767  Biso   1.000  C
  H144     1.0000 0.92313  0.25637  0.10737  Biso   1.000  H
  C193     1.0000 0.89983  0.37907  0.09317  Biso   1.000  C
  H145     1.0000 0.93133  0.41137  0.10087  Biso   1.000  H
  C194     1.0000 0.85203  0.37767  0.09187  Biso   1.000  C
  H146     1.0000 0.85173  0.40967  0.09737  Biso   1.000  H
  C195     1.0000 0.05103  0.19547  0.13767  Biso   1.000  C
  H147     1.0000 0.08383  0.19707  0.14357  Biso   1.000  H
  C196     1.0000 0.05063  0.24017  0.11757  Biso   1.000  C
  H148     1.0000 0.08263  0.27037  0.10537  Biso   1.000  H
  C197     1.0000 0.95703  0.19047  0.11437  Biso   1.000  C
  H149     1.0000 0.92483  0.18747  0.10087  Biso   1.000  H
  C198     1.0000 0.95883  0.14647  0.13347  Biso   1.000  C
  H150     1.0000 0.92713  0.11357  0.13607  Biso   1.000  H
  C199     1.0000 0.04483  0.18787  0.11427  Biso   1.000  C
  H151     1.0000 0.07233  0.18257  0.09897  Biso   1.000  H
  C200     1.0000 0.04653  0.23467  0.09957  Biso   1.000  C
  H152     1.0000 0.07653  0.26197  0.07867  Biso   1.000  H
  C201     1.0000 0.96743  0.20727  0.16257  Biso   1.000  C
  H153     1.0000 0.94373  0.21617  0.18227  Biso   1.000  H
  C202     1.0000 0.96683  0.16097  0.17817  Biso   1.000  C
  H154     1.0000 0.94143  0.13677  0.20737  Biso   1.000  H
  C203     1.0000 0.86343  0.30267  0.12267  Biso   1.000  C
  H155     1.0000 0.86743  0.27907  0.14997  Biso   1.000  H
  C204     1.0000 0.81623  0.30447  0.12497  Biso   1.000  C
  H156     1.0000 0.79083  0.28467  0.15677  Biso   1.000  H
  O25      1.0000 0.71898  0.28708  0.50591  Biso   1.000  O
  O26      1.0000 0.77049  0.37346  0.52355  Biso   1.000  O
  C205     1.0000 0.76252  0.32947  0.50540  Biso   1.000  C
  C206     1.0000 0.81011  0.32719  0.48240  Biso   1.000  C
  C207     1.0000 0.90320  0.32819  0.44840  Biso   1.000  C
  C208     1.0000 0.95368  0.33060  0.43120  Biso   1.000  C
  C209     1.0000 0.00031  0.37879  0.43100  Biso   1.000  C
  H157     1.0000 0.99990  0.41020  0.44070  Biso   1.000  H
  C210     1.0000 0.14590  0.43350  0.42650  Biso   1.000  C
  H158     1.0000 0.14670  0.40200  0.43420  Biso   1.000  H
  C211     1.0000 0.19230  0.48130  0.42520  Biso   1.000  C
  H159     1.0000 0.22460  0.48160  0.43070  Biso   1.000  H
  C212     1.0000 0.81110  0.28230  0.47100  Biso   1.000  C
  H160     1.0000 0.77990  0.24950  0.47690  Biso   1.000  H
  C213     1.0000 0.85620  0.28270  0.45090  Biso   1.000  C
  H161     1.0000 0.85440  0.25070  0.43870  Biso   1.000  H
  C214     1.0000 0.90010  0.37630  0.44770  Biso   1.000  C
  H162     1.0000 0.92930  0.40850  0.43420  Biso   1.000  H
  C215     1.0000 0.85430  0.37450  0.46680  Biso   1.000  C
  H163     1.0000 0.85310  0.40620  0.46940  Biso   1.000  H
  C216     1.0000 0.80970  0.28850  0.44760  Biso   1.000  C
  H164     1.0000 0.77690  0.26100  0.43230  Biso   1.000  H
  C217     1.0000 0.85480  0.28680  0.43290  Biso   1.000  C
  H165     1.0000 0.85210  0.25680  0.41200  Biso   1.000  H
  C218     1.0000 0.90650  0.36590  0.49590  Biso   1.000  C
  H166     1.0000 0.93910  0.38960  0.51560  Biso   1.000  H
  C219     1.0000 0.86080  0.36650  0.51150  Biso   1.000  C
  H167     1.0000 0.86200  0.39190  0.54070  Biso   1.000  H
  C220     1.0000 0.10590  0.46990  0.45600  Biso   1.000  C
  H168     1.0000 0.07830  0.46590  0.48330  Biso   1.000  H
  C221     1.0000 0.15490  0.51710  0.45830  Biso   1.000  C
  H169     1.0000 0.16050  0.54250  0.49010  Biso   1.000  H
  O27      1.0000 0.38565  0.62041  0.83924  Biso   1.000  O
  O28      1.0000 0.43716  0.70679  0.85688  Biso   1.000  O
  C222     1.0000 0.42919  0.66280  0.83873  Biso   1.000  C
  C223     1.0000 0.47678  0.66052  0.81573  Biso   1.000  C
  C224     1.0000 0.56987  0.66152  0.78173  Biso   1.000  C
  C225     1.0000 0.62035  0.66393  0.76453  Biso   1.000  C
  C226     1.0000 0.66698  0.71212  0.76433  Biso   1.000  C
  H170     1.0000 0.66657  0.74353  0.77403  Biso   1.000  H
  C227     1.0000 0.81257  0.76683  0.75983  Biso   1.000  C
  H171     1.0000 0.81337  0.73533  0.76753  Biso   1.000  H
  C228     1.0000 0.85897  0.81463  0.75853  Biso   1.000  C
  H172     1.0000 0.89127  0.81493  0.76403  Biso   1.000  H
  C229     1.0000 0.47777  0.61563  0.80433  Biso   1.000  C
  H173     1.0000 0.44657  0.58283  0.81023  Biso   1.000  H
  C230     1.0000 0.52287  0.61603  0.78423  Biso   1.000  C
  H174     1.0000 0.52107  0.58403  0.77203  Biso   1.000  H
  C231     1.0000 0.56677  0.70963  0.78103  Biso   1.000  C
  H175     1.0000 0.59597  0.74183  0.76753  Biso   1.000  H
  C232     1.0000 0.52097  0.70783  0.80013  Biso   1.000  C
  H176     1.0000 0.51977  0.73953  0.80273  Biso   1.000  H
  C233     1.0000 0.47637  0.62183  0.78093  Biso   1.000  C
  H177     1.0000 0.44357  0.59433  0.76563  Biso   1.000  H
  C234     1.0000 0.52147  0.62013  0.76623  Biso   1.000  C
  H178     1.0000 0.51877  0.59013  0.74533  Biso   1.000  H
  C235     1.0000 0.57317  0.69923  0.82923  Biso   1.000  C
  H179     1.0000 0.60577  0.72293  0.84893  Biso   1.000  H
  C236     1.0000 0.52747  0.69983  0.84483  Biso   1.000  C
  H180     1.0000 0.52867  0.72523  0.87403  Biso   1.000  H
  C237     1.0000 0.77257  0.80323  0.78933  Biso   1.000  C
  H181     1.0000 0.74497  0.79923  0.81663  Biso   1.000  H
  C238     1.0000 0.82157  0.85043  0.79163  Biso   1.000  C
  H182     1.0000 0.82717  0.87583  0.82343  Biso   1.000  H
  O29      1.0000 0.05231  0.95375  0.17258  Biso   1.000  O
  O30      1.0000 0.10382  0.04013  0.19022  Biso   1.000  O
  C239     1.0000 0.09585  0.99614  0.17207  Biso   1.000  C
  C240     1.0000 0.14344  0.99386  0.14907  Biso   1.000  C
  C241     1.0000 0.23653  0.99486  0.11507  Biso   1.000  C
  C242     1.0000 0.28701  0.99727  0.09787  Biso   1.000  C
  C243     1.0000 0.33364  0.04546  0.09767  Biso   1.000  C
  H183     1.0000 0.33323  0.07687  0.10737  Biso   1.000  H
  C244     1.0000 0.47923  0.10017  0.09317  Biso   1.000  C
  H184     1.0000 0.48003  0.06867  0.10087  Biso   1.000  H
  C245     1.0000 0.52563  0.14797  0.09187  Biso   1.000  C
  H185     1.0000 0.55793  0.14827  0.09737  Biso   1.000  H
  C246     1.0000 0.14443  0.94897  0.13767  Biso   1.000  C
  H186     1.0000 0.11323  0.91617  0.14357  Biso   1.000  H
  C247     1.0000 0.18953  0.94937  0.11757  Biso   1.000  C
  H187     1.0000 0.18773  0.91737  0.10537  Biso   1.000  H
  C248     1.0000 0.23343  0.04297  0.11437  Biso   1.000  C
  H188     1.0000 0.26263  0.07517  0.10087  Biso   1.000  H
  C249     1.0000 0.18763  0.04117  0.13347  Biso   1.000  C
  H189     1.0000 0.18643  0.07287  0.13607  Biso   1.000  H
  C250     1.0000 0.14303  0.95517  0.11427  Biso   1.000  C
  H190     1.0000 0.11023  0.92767  0.09897  Biso   1.000  H
  C251     1.0000 0.18813  0.95347  0.09957  Biso   1.000  C
  H191     1.0000 0.18543  0.92347  0.07867  Biso   1.000  H
  C252     1.0000 0.23983  0.03257  0.16257  Biso   1.000  C
  H192     1.0000 0.27243  0.05627  0.18227  Biso   1.000  H
  C253     1.0000 0.19413  0.03317  0.17817  Biso   1.000  C
  H193     1.0000 0.19533  0.05857  0.20737  Biso   1.000  H
  C254     1.0000 0.43923  0.13657  0.12267  Biso   1.000  C
  H194     1.0000 0.41163  0.13257  0.14997  Biso   1.000  H
  C255     1.0000 0.48823  0.18377  0.12497  Biso   1.000  C
  H195     1.0000 0.49383  0.20917  0.15677  Biso   1.000  H
  O31      1.0000 0.56810  0.28102  0.50591  Biso   1.000  O
  O32      1.0000 0.60297  0.22951  0.52355  Biso   1.000  O
  C256     1.0000 0.56695  0.23748  0.50540  Biso   1.000  C
  C257     1.0000 0.51708  0.18989  0.48240  Biso   1.000  C
  C258     1.0000 0.42499  0.09680  0.44840  Biso   1.000  C
  C259     1.0000 0.37692  0.04632  0.43120  Biso   1.000  C
  C260     1.0000 0.37848  0.99969  0.43100  Biso   1.000  C
  H196     1.0000 0.41030  0.00010  0.44070  Biso   1.000  H
  C261     1.0000 0.28760  0.85410  0.42650  Biso   1.000  C
  H197     1.0000 0.25530  0.85330  0.43420  Biso   1.000  H
  C262     1.0000 0.28900  0.80770  0.42520  Biso   1.000  C
  H198     1.0000 0.25700  0.77540  0.43070  Biso   1.000  H
  C263     1.0000 0.47120  0.18890  0.47100  Biso   1.000  C
  H199     1.0000 0.46960  0.22010  0.47690  Biso   1.000  H
  C264     1.0000 0.42650  0.14380  0.45090  Biso   1.000  C
  H200     1.0000 0.39630  0.14560  0.43870  Biso   1.000  H
  C265     1.0000 0.47620  0.09990  0.44770  Biso   1.000  C
  H201     1.0000 0.47920  0.07070  0.43420  Biso   1.000  H
  C266     1.0000 0.52020  0.14570  0.46680  Biso   1.000  C
  H202     1.0000 0.55310  0.14690  0.46940  Biso   1.000  H
  C267     1.0000 0.47880  0.19030  0.44760  Biso   1.000  C
  H203     1.0000 0.48410  0.22310  0.43230  Biso   1.000  H
  C268     1.0000 0.43200  0.14520  0.43290  Biso   1.000  C
  H204     1.0000 0.40470  0.14790  0.41200  Biso   1.000  H
  C269     1.0000 0.45940  0.09350  0.49590  Biso   1.000  C
  H205     1.0000 0.45050  0.06090  0.51560  Biso   1.000  H
  C270     1.0000 0.50570  0.13920  0.51150  Biso   1.000  C
  H206     1.0000 0.52990  0.13800  0.54070  Biso   1.000  H
  C271     1.0000 0.36400  0.89410  0.45600  Biso   1.000  C
  H207     1.0000 0.38760  0.92170  0.48330  Biso   1.000  H
  C272     1.0000 0.36220  0.84510  0.45830  Biso   1.000  C
  H208     1.0000 0.38200  0.83950  0.49010  Biso   1.000  H
  O33      1.0000 0.23477  0.61435  0.83924  Biso   1.000  O
  O34      1.0000 0.26964  0.56284  0.85688  Biso   1.000  O
  C273     1.0000 0.23362  0.57081  0.83873  Biso   1.000  C
  C274     1.0000 0.18375  0.52322  0.81573  Biso   1.000  C
  C275     1.0000 0.09166  0.43013  0.78173  Biso   1.000  C
  C276     1.0000 0.04359  0.37965  0.76453  Biso   1.000  C
  C277     1.0000 0.04515  0.33302  0.76433  Biso   1.000  C
  H209     1.0000 0.07697  0.33343  0.77403  Biso   1.000  H
  C278     1.0000 0.95427  0.18743  0.75983  Biso   1.000  C
  H210     1.0000 0.92197  0.18663  0.76753  Biso   1.000  H
  C279     1.0000 0.95567  0.14103  0.75853  Biso   1.000  C
  H211     1.0000 0.92367  0.10873  0.76403  Biso   1.000  H
  C280     1.0000 0.13787  0.52223  0.80433  Biso   1.000  C
  H212     1.0000 0.13627  0.55343  0.81023  Biso   1.000  H
  C281     1.0000 0.09317  0.47713  0.78423  Biso   1.000  C
  H213     1.0000 0.06297  0.47893  0.77203  Biso   1.000  H
  C282     1.0000 0.14287  0.43323  0.78103  Biso   1.000  C
  H214     1.0000 0.14587  0.40403  0.76753  Biso   1.000  H
  C283     1.0000 0.18687  0.47903  0.80013  Biso   1.000  C
  H215     1.0000 0.21977  0.48023  0.80273  Biso   1.000  H
  C284     1.0000 0.14547  0.52363  0.78093  Biso   1.000  C
  H216     1.0000 0.15077  0.55643  0.76563  Biso   1.000  H
  C285     1.0000 0.09867  0.47853  0.76623  Biso   1.000  C
  H217     1.0000 0.07137  0.48123  0.74533  Biso   1.000  H
  C286     1.0000 0.12607  0.42683  0.82923  Biso   1.000  C
  H218     1.0000 0.11717  0.39423  0.84893  Biso   1.000  H
  C287     1.0000 0.17237  0.47253  0.84483  Biso   1.000  C
  H219     1.0000 0.19657  0.47133  0.87403  Biso   1.000  H
  C288     1.0000 0.03067  0.22743  0.78933  Biso   1.000  C
  H220     1.0000 0.05427  0.25503  0.81663  Biso   1.000  H
  C289     1.0000 0.02887  0.17843  0.79163  Biso   1.000  C
  H221     1.0000 0.04867  0.17283  0.82343  Biso   1.000  H
  O35      1.0000 0.90143  0.94769  0.17258  Biso   1.000  O
  O36      1.0000 0.93630  0.89618  0.19022  Biso   1.000  O
  C290     1.0000 0.90028  0.90415  0.17207  Biso   1.000  C
  C291     1.0000 0.85041  0.85656  0.14907  Biso   1.000  C
  C292     1.0000 0.75832  0.76347  0.11507  Biso   1.000  C
  C293     1.0000 0.71025  0.71299  0.09787  Biso   1.000  C
  C294     1.0000 0.71181  0.66636  0.09767  Biso   1.000  C
  H222     1.0000 0.74363  0.66677  0.10737  Biso   1.000  H
  C295     1.0000 0.62093  0.52077  0.09317  Biso   1.000  C
  H223     1.0000 0.58863  0.51997  0.10087  Biso   1.000  H
  C296     1.0000 0.62233  0.47437  0.09187  Biso   1.000  C
  H224     1.0000 0.59033  0.44207  0.09737  Biso   1.000  H
  C297     1.0000 0.80453  0.85557  0.13767  Biso   1.000  C
  H225     1.0000 0.80293  0.88677  0.14357  Biso   1.000  H
  C298     1.0000 0.75983  0.81047  0.11757  Biso   1.000  C
  H226     1.0000 0.72963  0.81227  0.10537  Biso   1.000  H
  C299     1.0000 0.80953  0.76657  0.11437  Biso   1.000  C
  H227     1.0000 0.81253  0.73737  0.10087  Biso   1.000  H
  C300     1.0000 0.85353  0.81237  0.13347  Biso   1.000  C
  H228     1.0000 0.88643  0.81357  0.13607  Biso   1.000  H
  C301     1.0000 0.81213  0.85697  0.11427  Biso   1.000  C
  H229     1.0000 0.81743  0.88977  0.09897  Biso   1.000  H
  C302     1.0000 0.76533  0.81187  0.09957  Biso   1.000  C
  H230     1.0000 0.73803  0.81457  0.07867  Biso   1.000  H
  C303     1.0000 0.79273  0.76017  0.16257  Biso   1.000  C
  H231     1.0000 0.78383  0.72757  0.18227  Biso   1.000  H
  C304     1.0000 0.83903  0.80587  0.17817  Biso   1.000  C
  H232     1.0000 0.86323  0.80467  0.20737  Biso   1.000  H
  C305     1.0000 0.69733  0.56077  0.12267  Biso   1.000  C
  H233     1.0000 0.72093  0.58837  0.14997  Biso   1.000  H
  C306     1.0000 0.69553  0.51177  0.12497  Biso   1.000  C
  H234     1.0000 0.71533  0.50617  0.15677  Biso   1.000  H
  O37      1.0000 0.56810  0.28708  0.00591  Biso   1.000  O
  O38      1.0000 0.60297  0.37346  0.02355  Biso   1.000  O
  C307     1.0000 0.56695  0.32947  0.00540  Biso   1.000  C
  C308     1.0000 0.51708  0.32719  0.98240  Biso   1.000  C
  C309     1.0000 0.42499  0.32819  0.94840  Biso   1.000  C
  C310     1.0000 0.37692  0.33060  0.93120  Biso   1.000  C
  C311     1.0000 0.37848  0.37879  0.93100  Biso   1.000  C
  H235     1.0000 0.41030  0.41020  0.94070  Biso   1.000  H
  C312     1.0000 0.28760  0.43350  0.92650  Biso   1.000  C
  H236     1.0000 0.25530  0.40200  0.93420  Biso   1.000  H
  C313     1.0000 0.28900  0.48130  0.92520  Biso   1.000  C
  H237     1.0000 0.25700  0.48160  0.93070  Biso   1.000  H
  C314     1.0000 0.47120  0.28230  0.97100  Biso   1.000  C
  H238     1.0000 0.46960  0.24950  0.97690  Biso   1.000  H
  C315     1.0000 0.42650  0.28270  0.95090  Biso   1.000  C
  H239     1.0000 0.39630  0.25070  0.93870  Biso   1.000  H
  C316     1.0000 0.47620  0.37630  0.94770  Biso   1.000  C
  H240     1.0000 0.47920  0.40850  0.93420  Biso   1.000  H
  C317     1.0000 0.52020  0.37450  0.96680  Biso   1.000  C
  H241     1.0000 0.55310  0.40620  0.96940  Biso   1.000  H
  C318     1.0000 0.47880  0.28850  0.94760  Biso   1.000  C
  H242     1.0000 0.48410  0.26100  0.93230  Biso   1.000  H
  C319     1.0000 0.43200  0.28680  0.93290  Biso   1.000  C
  H243     1.0000 0.40470  0.25680  0.91200  Biso   1.000  H
  C320     1.0000 0.45940  0.36590  0.99590  Biso   1.000  C
  H244     1.0000 0.45050  0.38960  0.01560  Biso   1.000  H
  C321     1.0000 0.50570  0.36650  0.01150  Biso   1.000  C
  H245     1.0000 0.52990  0.39190  0.04070  Biso   1.000  H
  C322     1.0000 0.36400  0.46990  0.95600  Biso   1.000  C
  H246     1.0000 0.38760  0.46590  0.98330  Biso   1.000  H
  C323     1.0000 0.36220  0.51710  0.95830  Biso   1.000  C
  H247     1.0000 0.38200  0.54250  0.99010  Biso   1.000  H
  O39      1.0000 0.23477  0.62041  0.33924  Biso   1.000  O
  O40      1.0000 0.26964  0.70679  0.35688  Biso   1.000  O
  C324     1.0000 0.23362  0.66280  0.33873  Biso   1.000  C
  C325     1.0000 0.18375  0.66052  0.31573  Biso   1.000  C
  C326     1.0000 0.09166  0.66152  0.28173  Biso   1.000  C
  C327     1.0000 0.04359  0.66393  0.26453  Biso   1.000  C
  C328     1.0000 0.04515  0.71212  0.26433  Biso   1.000  C
  H248     1.0000 0.07697  0.74353  0.27403  Biso   1.000  H
  C329     1.0000 0.95427  0.76683  0.25983  Biso   1.000  C
  H249     1.0000 0.92197  0.73533  0.26753  Biso   1.000  H
  C330     1.0000 0.95567  0.81463  0.25853  Biso   1.000  C
  H250     1.0000 0.92367  0.81493  0.26403  Biso   1.000  H
  C331     1.0000 0.13787  0.61563  0.30433  Biso   1.000  C
  H251     1.0000 0.13627  0.58283  0.31023  Biso   1.000  H
  C332     1.0000 0.09317  0.61603  0.28423  Biso   1.000  C
  H252     1.0000 0.06297  0.58403  0.27203  Biso   1.000  H
  C333     1.0000 0.14287  0.70963  0.28103  Biso   1.000  C
  H253     1.0000 0.14587  0.74183  0.26753  Biso   1.000  H
  C334     1.0000 0.18687  0.70783  0.30013  Biso   1.000  C
  H254     1.0000 0.21977  0.73953  0.30273  Biso   1.000  H
  C335     1.0000 0.14547  0.62183  0.28093  Biso   1.000  C
  H255     1.0000 0.15077  0.59433  0.26563  Biso   1.000  H
  C336     1.0000 0.09867  0.62013  0.26623  Biso   1.000  C
  H256     1.0000 0.07137  0.59013  0.24533  Biso   1.000  H
  C337     1.0000 0.12607  0.69923  0.32923  Biso   1.000  C
  H257     1.0000 0.11717  0.72293  0.34893  Biso   1.000  H
  C338     1.0000 0.17237  0.69983  0.34483  Biso   1.000  C
  H258     1.0000 0.19657  0.72523  0.37403  Biso   1.000  H
  C339     1.0000 0.03067  0.80323  0.28933  Biso   1.000  C
  H259     1.0000 0.05427  0.79923  0.31663  Biso   1.000  H
  C340     1.0000 0.02887  0.85043  0.29163  Biso   1.000  C
  H260     1.0000 0.04867  0.87583  0.32343  Biso   1.000  H
  O41      1.0000 0.90143  0.95375  0.67258  Biso   1.000  O
  O42      1.0000 0.93630  0.04013  0.69022  Biso   1.000  O
  C341     1.0000 0.90028  0.99614  0.67207  Biso   1.000  C
  C342     1.0000 0.85041  0.99386  0.64907  Biso   1.000  C
  C343     1.0000 0.75832  0.99486  0.61507  Biso   1.000  C
  C344     1.0000 0.71025  0.99727  0.59787  Biso   1.000  C
  C345     1.0000 0.71181  0.04546  0.59767  Biso   1.000  C
  H261     1.0000 0.74363  0.07687  0.60737  Biso   1.000  H
  C346     1.0000 0.62093  0.10017  0.59317  Biso   1.000  C
  H262     1.0000 0.58863  0.06867  0.60087  Biso   1.000  H
  C347     1.0000 0.62233  0.14797  0.59187  Biso   1.000  C
  H263     1.0000 0.59033  0.14827  0.59737  Biso   1.000  H
  C348     1.0000 0.80453  0.94897  0.63767  Biso   1.000  C
  H264     1.0000 0.80293  0.91617  0.64357  Biso   1.000  H
  C349     1.0000 0.75983  0.94937  0.61757  Biso   1.000  C
  H265     1.0000 0.72963  0.91737  0.60537  Biso   1.000  H
  C350     1.0000 0.80953  0.04297  0.61437  Biso   1.000  C
  H266     1.0000 0.81253  0.07517  0.60087  Biso   1.000  H
  C351     1.0000 0.85353  0.04117  0.63347  Biso   1.000  C
  H267     1.0000 0.88643  0.07287  0.63607  Biso   1.000  H
  C352     1.0000 0.81213  0.95517  0.61427  Biso   1.000  C
  H268     1.0000 0.81743  0.92767  0.59897  Biso   1.000  H
  C353     1.0000 0.76533  0.95347  0.59957  Biso   1.000  C
  H269     1.0000 0.73803  0.92347  0.57867  Biso   1.000  H
  C354     1.0000 0.79273  0.03257  0.66257  Biso   1.000  C
  H270     1.0000 0.78383  0.05627  0.68227  Biso   1.000  H
  C355     1.0000 0.83903  0.03317  0.67817  Biso   1.000  C
  H271     1.0000 0.86323  0.05857  0.70737  Biso   1.000  H
  C356     1.0000 0.69733  0.13657  0.62267  Biso   1.000  C
  H272     1.0000 0.72093  0.13257  0.64997  Biso   1.000  H
  C357     1.0000 0.69553  0.18377  0.62497  Biso   1.000  C
  H273     1.0000 0.71533  0.20917  0.65677  Biso   1.000  H
  O43      1.0000 0.71292  0.28102  0.00591  Biso   1.000  O
  O44      1.0000 0.62654  0.22951  0.02355  Biso   1.000  O
  C358     1.0000 0.67053  0.23748  0.00540  Biso   1.000  C
  C359     1.0000 0.67281  0.18989  0.98240  Biso   1.000  C
  C360     1.0000 0.67181  0.09680  0.94840  Biso   1.000  C
  C361     1.0000 0.66940  0.04632  0.93120  Biso   1.000  C
  C362     1.0000 0.62121  0.99969  0.93100  Biso   1.000  C
  H274     1.0000 0.58980  0.00010  0.94070  Biso   1.000  H
  C363     1.0000 0.56650  0.85410  0.92650  Biso   1.000  C
  H275     1.0000 0.59800  0.85330  0.93420  Biso   1.000  H
  C364     1.0000 0.51870  0.80770  0.92520  Biso   1.000  C
  H276     1.0000 0.51840  0.77540  0.93070  Biso   1.000  H
  C365     1.0000 0.71770  0.18890  0.97100  Biso   1.000  C
  H277     1.0000 0.75050  0.22010  0.97690  Biso   1.000  H
  C366     1.0000 0.71730  0.14380  0.95090  Biso   1.000  C
  H278     1.0000 0.74930  0.14560  0.93870  Biso   1.000  H
  C367     1.0000 0.62370  0.09990  0.94770  Biso   1.000  C
  H279     1.0000 0.59150  0.07070  0.93420  Biso   1.000  H
  C368     1.0000 0.62550  0.14570  0.96680  Biso   1.000  C
  H280     1.0000 0.59380  0.14690  0.96940  Biso   1.000  H
  C369     1.0000 0.71150  0.19030  0.94760  Biso   1.000  C
  H281     1.0000 0.73900  0.22310  0.93230  Biso   1.000  H
  C370     1.0000 0.71320  0.14520  0.93290  Biso   1.000  C
  H282     1.0000 0.74320  0.14790  0.91200  Biso   1.000  H
  C371     1.0000 0.63410  0.09350  0.99590  Biso   1.000  C
  H283     1.0000 0.61040  0.06090  0.01560  Biso   1.000  H
  C372     1.0000 0.63350  0.13920  0.01150  Biso   1.000  C
  H284     1.0000 0.60810  0.13800  0.04070  Biso   1.000  H
  C373     1.0000 0.53010  0.89410  0.95600  Biso   1.000  C
  H285     1.0000 0.53410  0.92170  0.98330  Biso   1.000  H
  C374     1.0000 0.48290  0.84510  0.95830  Biso   1.000  C
  H286     1.0000 0.45750  0.83950  0.99010  Biso   1.000  H
  O45      1.0000 0.37959  0.61435  0.33924  Biso   1.000  O
  O46      1.0000 0.29321  0.56284  0.35688  Biso   1.000  O
  C375     1.0000 0.33720  0.57081  0.33873  Biso   1.000  C
  C376     1.0000 0.33948  0.52322  0.31573  Biso   1.000  C
  C377     1.0000 0.33848  0.43013  0.28173  Biso   1.000  C
  C378     1.0000 0.33607  0.37965  0.26453  Biso   1.000  C
  C379     1.0000 0.28788  0.33302  0.26433  Biso   1.000  C
  H287     1.0000 0.25647  0.33343  0.27403  Biso   1.000  H
  C380     1.0000 0.23317  0.18743  0.25983  Biso   1.000  C
  H288     1.0000 0.26467  0.18663  0.26753  Biso   1.000  H
  C381     1.0000 0.18537  0.14103  0.25853  Biso   1.000  C
  H289     1.0000 0.18507  0.10873  0.26403  Biso   1.000  H
  C382     1.0000 0.38437  0.52223  0.30433  Biso   1.000  C
  H290     1.0000 0.41717  0.55343  0.31023  Biso   1.000  H
  C383     1.0000 0.38397  0.47713  0.28423  Biso   1.000  C
  H291     1.0000 0.41597  0.47893  0.27203  Biso   1.000  H
  C384     1.0000 0.29037  0.43323  0.28103  Biso   1.000  C
  H292     1.0000 0.25817  0.40403  0.26753  Biso   1.000  H
  C385     1.0000 0.29217  0.47903  0.30013  Biso   1.000  C
  H293     1.0000 0.26047  0.48023  0.30273  Biso   1.000  H
  C386     1.0000 0.37817  0.52363  0.28093  Biso   1.000  C
  H294     1.0000 0.40567  0.55643  0.26563  Biso   1.000  H
  C387     1.0000 0.37987  0.47853  0.26623  Biso   1.000  C
  H295     1.0000 0.40987  0.48123  0.24533  Biso   1.000  H
  C388     1.0000 0.30077  0.42683  0.32923  Biso   1.000  C
  H296     1.0000 0.27707  0.39423  0.34893  Biso   1.000  H
  C389     1.0000 0.30017  0.47253  0.34483  Biso   1.000  C
  H297     1.0000 0.27477  0.47133  0.37403  Biso   1.000  H
  C390     1.0000 0.19677  0.22743  0.28933  Biso   1.000  C
  H298     1.0000 0.20077  0.25503  0.31663  Biso   1.000  H
  C391     1.0000 0.14957  0.17843  0.29163  Biso   1.000  C
  H299     1.0000 0.12417  0.17283  0.32343  Biso   1.000  H
  O47      1.0000 0.04625  0.94769  0.67258  Biso   1.000  O
  O48      1.0000 0.95987  0.89618  0.69022  Biso   1.000  O
  C392     1.0000 0.00386  0.90415  0.67207  Biso   1.000  C
  C393     1.0000 0.00614  0.85656  0.64907  Biso   1.000  C
  C394     1.0000 0.00514  0.76347  0.61507  Biso   1.000  C
  C395     1.0000 0.00273  0.71299  0.59787  Biso   1.000  C
  C396     1.0000 0.95454  0.66636  0.59767  Biso   1.000  C
  H300     1.0000 0.92313  0.66677  0.60737  Biso   1.000  H
  C397     1.0000 0.89983  0.52077  0.59317  Biso   1.000  C
  H301     1.0000 0.93133  0.51997  0.60087  Biso   1.000  H
  C398     1.0000 0.85203  0.47437  0.59187  Biso   1.000  C
  H302     1.0000 0.85173  0.44207  0.59737  Biso   1.000  H
  C399     1.0000 0.05103  0.85557  0.63767  Biso   1.000  C
  H303     1.0000 0.08383  0.88677  0.64357  Biso   1.000  H
  C400     1.0000 0.05063  0.81047  0.61757  Biso   1.000  C
  H304     1.0000 0.08263  0.81227  0.60537  Biso   1.000  H
  C401     1.0000 0.95703  0.76657  0.61437  Biso   1.000  C
  H305     1.0000 0.92483  0.73737  0.60087  Biso   1.000  H
  C402     1.0000 0.95883  0.81237  0.63347  Biso   1.000  C
  H306     1.0000 0.92713  0.81357  0.63607  Biso   1.000  H
  C403     1.0000 0.04483  0.85697  0.61427  Biso   1.000  C
  H307     1.0000 0.07233  0.88977  0.59897  Biso   1.000  H
  C404     1.0000 0.04653  0.81187  0.59957  Biso   1.000  C
  H308     1.0000 0.07653  0.81457  0.57867  Biso   1.000  H
  C405     1.0000 0.96743  0.76017  0.66257  Biso   1.000  C
  H309     1.0000 0.94373  0.72757  0.68227  Biso   1.000  H
  C406     1.0000 0.96683  0.80587  0.67817  Biso   1.000  C
  H310     1.0000 0.94143  0.80467  0.70737  Biso   1.000  H
  C407     1.0000 0.86343  0.56077  0.62267  Biso   1.000  C
  H311     1.0000 0.86743  0.58837  0.64997  Biso   1.000  H
  C408     1.0000 0.81623  0.51177  0.62497  Biso   1.000  C
  H312     1.0000 0.79083  0.50617  0.65677  Biso   1.000  H
  O49      1.0000 0.71898  0.43190  0.00591  Biso   1.000  O
  O50      1.0000 0.77049  0.39703  0.02355  Biso   1.000  O
  C409     1.0000 0.76252  0.43305  0.00540  Biso   1.000  C
  C410     1.0000 0.81011  0.48292  0.98240  Biso   1.000  C
  C411     1.0000 0.90320  0.57501  0.94840  Biso   1.000  C
  C412     1.0000 0.95368  0.62308  0.93120  Biso   1.000  C
  C413     1.0000 0.00031  0.62152  0.93100  Biso   1.000  C
  H313     1.0000 0.99990  0.58970  0.94070  Biso   1.000  H
  C414     1.0000 0.14590  0.71240  0.92650  Biso   1.000  C
  H314     1.0000 0.14670  0.74470  0.93420  Biso   1.000  H
  C415     1.0000 0.19230  0.71100  0.92520  Biso   1.000  C
  H315     1.0000 0.22460  0.74300  0.93070  Biso   1.000  H
  C416     1.0000 0.81110  0.52880  0.97100  Biso   1.000  C
  H316     1.0000 0.77990  0.53040  0.97690  Biso   1.000  H
  C417     1.0000 0.85620  0.57350  0.95090  Biso   1.000  C
  H317     1.0000 0.85440  0.60370  0.93870  Biso   1.000  H
  C418     1.0000 0.90010  0.52380  0.94770  Biso   1.000  C
  H318     1.0000 0.92930  0.52080  0.93420  Biso   1.000  H
  C419     1.0000 0.85430  0.47980  0.96680  Biso   1.000  C
  H319     1.0000 0.85310  0.44690  0.96940  Biso   1.000  H
  C420     1.0000 0.80970  0.52120  0.94760  Biso   1.000  C
  H320     1.0000 0.77690  0.51590  0.93230  Biso   1.000  H
  C421     1.0000 0.85480  0.56800  0.93290  Biso   1.000  C
  H321     1.0000 0.85210  0.59530  0.91200  Biso   1.000  H
  C422     1.0000 0.90650  0.54060  0.99590  Biso   1.000  C
  H322     1.0000 0.93910  0.54950  0.01560  Biso   1.000  H
  C423     1.0000 0.86080  0.49430  0.01150  Biso   1.000  C
  H323     1.0000 0.86200  0.47010  0.04070  Biso   1.000  H
  C424     1.0000 0.10590  0.63600  0.95600  Biso   1.000  C
  H324     1.0000 0.07830  0.61240  0.98330  Biso   1.000  H
  C425     1.0000 0.15490  0.63780  0.95830  Biso   1.000  C
  H325     1.0000 0.16050  0.61800  0.99010  Biso   1.000  H
  O51      1.0000 0.38565  0.76523  0.33924  Biso   1.000  O
  O52      1.0000 0.43716  0.73036  0.35688  Biso   1.000  O
  C426     1.0000 0.42919  0.76638  0.33873  Biso   1.000  C
  C427     1.0000 0.47678  0.81625  0.31573  Biso   1.000  C
  C428     1.0000 0.56987  0.90834  0.28173  Biso   1.000  C
  C429     1.0000 0.62035  0.95641  0.26453  Biso   1.000  C
  C430     1.0000 0.66698  0.95485  0.26433  Biso   1.000  C
  H326     1.0000 0.66657  0.92303  0.27403  Biso   1.000  H
  C431     1.0000 0.81257  0.04573  0.25983  Biso   1.000  C
  H327     1.0000 0.81337  0.07803  0.26753  Biso   1.000  H
  C432     1.0000 0.85897  0.04433  0.25853  Biso   1.000  C
  H328     1.0000 0.89127  0.07633  0.26403  Biso   1.000  H
  C433     1.0000 0.47777  0.86213  0.30433  Biso   1.000  C
  H329     1.0000 0.44657  0.86373  0.31023  Biso   1.000  H
  C434     1.0000 0.52287  0.90683  0.28423  Biso   1.000  C
  H330     1.0000 0.52107  0.93703  0.27203  Biso   1.000  H
  C435     1.0000 0.56677  0.85713  0.28103  Biso   1.000  C
  H331     1.0000 0.59597  0.85413  0.26753  Biso   1.000  H
  C436     1.0000 0.52097  0.81313  0.30013  Biso   1.000  C
  H332     1.0000 0.51977  0.78023  0.30273  Biso   1.000  H
  C437     1.0000 0.47637  0.85453  0.28093  Biso   1.000  C
  H333     1.0000 0.44357  0.84923  0.26563  Biso   1.000  H
  C438     1.0000 0.52147  0.90133  0.26623  Biso   1.000  C
  H334     1.0000 0.51877  0.92863  0.24533  Biso   1.000  H
  C439     1.0000 0.57317  0.87393  0.32923  Biso   1.000  C
  H335     1.0000 0.60577  0.88283  0.34893  Biso   1.000  H
  C440     1.0000 0.52747  0.82763  0.34483  Biso   1.000  C
  H336     1.0000 0.52867  0.80343  0.37403  Biso   1.000  H
  C441     1.0000 0.77257  0.96933  0.28933  Biso   1.000  C
  H337     1.0000 0.74497  0.94573  0.31663  Biso   1.000  H
  C442     1.0000 0.82157  0.97113  0.29163  Biso   1.000  C
  H338     1.0000 0.82717  0.95133  0.32343  Biso   1.000  H
  O53      1.0000 0.05231  0.09857  0.67258  Biso   1.000  O
  O54      1.0000 0.10382  0.06370  0.69022  Biso   1.000  O
  C443     1.0000 0.09585  0.09972  0.67207  Biso   1.000  C
  C444     1.0000 0.14344  0.14959  0.64907  Biso   1.000  C
  C445     1.0000 0.23653  0.24168  0.61507  Biso   1.000  C
  C446     1.0000 0.28701  0.28975  0.59787  Biso   1.000  C
  C447     1.0000 0.33364  0.28819  0.59767  Biso   1.000  C
  H339     1.0000 0.33323  0.25637  0.60737  Biso   1.000  H
  C448     1.0000 0.47923  0.37907  0.59317  Biso   1.000  C
  H340     1.0000 0.48003  0.41137  0.60087  Biso   1.000  H
  C449     1.0000 0.52563  0.37767  0.59187  Biso   1.000  C
  H341     1.0000 0.55793  0.40967  0.59737  Biso   1.000  H
  C450     1.0000 0.14443  0.19547  0.63767  Biso   1.000  C
  H342     1.0000 0.11323  0.19707  0.64357  Biso   1.000  H
  C451     1.0000 0.18953  0.24017  0.61757  Biso   1.000  C
  H343     1.0000 0.18773  0.27037  0.60537  Biso   1.000  H
  C452     1.0000 0.23343  0.19047  0.61437  Biso   1.000  C
  H344     1.0000 0.26263  0.18747  0.60087  Biso   1.000  H
  C453     1.0000 0.18763  0.14647  0.63347  Biso   1.000  C
  H345     1.0000 0.18643  0.11357  0.63607  Biso   1.000  H
  C454     1.0000 0.14303  0.18787  0.61427  Biso   1.000  C
  H346     1.0000 0.11023  0.18257  0.59897  Biso   1.000  H
  C455     1.0000 0.18813  0.23467  0.59957  Biso   1.000  C
  H347     1.0000 0.18543  0.26197  0.57867  Biso   1.000  H
  C456     1.0000 0.23983  0.20727  0.66257  Biso   1.000  C
  H348     1.0000 0.27243  0.21617  0.68227  Biso   1.000  H
  C457     1.0000 0.19413  0.16097  0.67817  Biso   1.000  C
  H349     1.0000 0.19533  0.13677  0.70737  Biso   1.000  H
  C458     1.0000 0.43923  0.30267  0.62267  Biso   1.000  C
  H350     1.0000 0.41163  0.27907  0.64997  Biso   1.000  H
  C459     1.0000 0.48823  0.30447  0.62497  Biso   1.000  C
  H351     1.0000 0.49383  0.28467  0.65677  Biso   1.000  H
  O55      1.0000 0.28708  0.56810  0.49409  Biso   1.000  O
  O56      1.0000 0.37346  0.60297  0.47645  Biso   1.000  O
  C460     1.0000 0.32947  0.56695  0.49460  Biso   1.000  C
  C461     1.0000 0.32719  0.51708  0.51760  Biso   1.000  C
  C462     1.0000 0.32819  0.42499  0.55160  Biso   1.000  C
  C463     1.0000 0.33060  0.37692  0.56880  Biso   1.000  C
  C464     1.0000 0.37879  0.37848  0.56900  Biso   1.000  C
  H352     1.0000 0.41020  0.41030  0.55930  Biso   1.000  H
  C465     1.0000 0.43350  0.28760  0.57350  Biso   1.000  C
  H353     1.0000 0.40200  0.25530  0.56580  Biso   1.000  H
  C466     1.0000 0.48130  0.28900  0.57480  Biso   1.000  C
  H354     1.0000 0.48160  0.25700  0.56930  Biso   1.000  H
  C467     1.0000 0.28230  0.47120  0.52900  Biso   1.000  C
  H355     1.0000 0.24950  0.46960  0.52310  Biso   1.000  H
  C468     1.0000 0.28270  0.42650  0.54910  Biso   1.000  C
  H356     1.0000 0.25070  0.39630  0.56130  Biso   1.000  H
  C469     1.0000 0.37630  0.47620  0.55230  Biso   1.000  C
  H357     1.0000 0.40850  0.47920  0.56580  Biso   1.000  H
  C470     1.0000 0.37450  0.52020  0.53320  Biso   1.000  C
  H358     1.0000 0.40620  0.55310  0.53060  Biso   1.000  H
  C471     1.0000 0.28850  0.47880  0.55240  Biso   1.000  C
  H359     1.0000 0.26100  0.48410  0.56770  Biso   1.000  H
  C472     1.0000 0.28680  0.43200  0.56710  Biso   1.000  C
  H360     1.0000 0.25680  0.40470  0.58800  Biso   1.000  H
  C473     1.0000 0.36590  0.45940  0.50410  Biso   1.000  C
  H361     1.0000 0.38960  0.45050  0.48440  Biso   1.000  H
  C474     1.0000 0.36650  0.50570  0.48850  Biso   1.000  C
  H362     1.0000 0.39190  0.52990  0.45930  Biso   1.000  H
  C475     1.0000 0.46990  0.36400  0.54400  Biso   1.000  C
  H363     1.0000 0.46590  0.38760  0.51670  Biso   1.000  H
  C476     1.0000 0.51710  0.36220  0.54170  Biso   1.000  C
  H364     1.0000 0.54250  0.38200  0.50990  Biso   1.000  H
  O57      1.0000 0.95375  0.90143  0.82742  Biso   1.000  O
  O58      1.0000 0.04013  0.93630  0.80978  Biso   1.000  O
  C477     1.0000 0.99614  0.90028  0.82793  Biso   1.000  C
  C478     1.0000 0.99386  0.85041  0.85093  Biso   1.000  C
  C479     1.0000 0.99486  0.75832  0.88493  Biso   1.000  C
  C480     1.0000 0.99727  0.71025  0.90213  Biso   1.000  C
  C481     1.0000 0.04546  0.71181  0.90233  Biso   1.000  C
  H365     1.0000 0.07687  0.74363  0.89263  Biso   1.000  H
  C482     1.0000 0.10017  0.62093  0.90683  Biso   1.000  C
  H366     1.0000 0.06867  0.58863  0.89913  Biso   1.000  H
  C483     1.0000 0.14797  0.62233  0.90813  Biso   1.000  C
  H367     1.0000 0.14827  0.59033  0.90263  Biso   1.000  H
  C484     1.0000 0.94897  0.80453  0.86233  Biso   1.000  C
  H368     1.0000 0.91617  0.80293  0.85643  Biso   1.000  H
  C485     1.0000 0.94937  0.75983  0.88243  Biso   1.000  C
  H369     1.0000 0.91737  0.72963  0.89463  Biso   1.000  H
  C486     1.0000 0.04297  0.80953  0.88563  Biso   1.000  C
  H370     1.0000 0.07517  0.81253  0.89913  Biso   1.000  H
  C487     1.0000 0.04117  0.85353  0.86653  Biso   1.000  C
  H371     1.0000 0.07287  0.88643  0.86393  Biso   1.000  H
  C488     1.0000 0.95517  0.81213  0.88573  Biso   1.000  C
  H372     1.0000 0.92767  0.81743  0.90103  Biso   1.000  H
  C489     1.0000 0.95347  0.76533  0.90043  Biso   1.000  C
  H373     1.0000 0.92347  0.73803  0.92133  Biso   1.000  H
  C490     1.0000 0.03257  0.79273  0.83743  Biso   1.000  C
  H374     1.0000 0.05627  0.78383  0.81773  Biso   1.000  H
  C491     1.0000 0.03317  0.83903  0.82183  Biso   1.000  C
  H375     1.0000 0.05857  0.86323  0.79263  Biso   1.000  H
  C492     1.0000 0.13657  0.69733  0.87733  Biso   1.000  C
  H376     1.0000 0.13257  0.72093  0.85003  Biso   1.000  H
  C493     1.0000 0.18377  0.69553  0.87503  Biso   1.000  C
  H377     1.0000 0.20917  0.71533  0.84323  Biso   1.000  H
  O59      1.0000 0.62041  0.23477  0.16076  Biso   1.000  O
  O60      1.0000 0.70679  0.26964  0.14312  Biso   1.000  O
  C494     1.0000 0.66280  0.23362  0.16127  Biso   1.000  C
  C495     1.0000 0.66052  0.18375  0.18427  Biso   1.000  C
  C496     1.0000 0.66152  0.09166  0.21827  Biso   1.000  C
  C497     1.0000 0.66393  0.04359  0.23547  Biso   1.000  C
  C498     1.0000 0.71212  0.04515  0.23567  Biso   1.000  C
  H378     1.0000 0.74353  0.07697  0.22597  Biso   1.000  H
  C499     1.0000 0.76683  0.95427  0.24017  Biso   1.000  C
  H379     1.0000 0.73533  0.92197  0.23247  Biso   1.000  H
  C500     1.0000 0.81463  0.95567  0.24147  Biso   1.000  C
  H380     1.0000 0.81493  0.92367  0.23597  Biso   1.000  H
  C501     1.0000 0.61563  0.13787  0.19567  Biso   1.000  C
  H381     1.0000 0.58283  0.13627  0.18977  Biso   1.000  H
  C502     1.0000 0.61603  0.09317  0.21577  Biso   1.000  C
  H382     1.0000 0.58403  0.06297  0.22797  Biso   1.000  H
  C503     1.0000 0.70963  0.14287  0.21897  Biso   1.000  C
  H383     1.0000 0.74183  0.14587  0.23247  Biso   1.000  H
  C504     1.0000 0.70783  0.18687  0.19987  Biso   1.000  C
  H384     1.0000 0.73953  0.21977  0.19727  Biso   1.000  H
  C505     1.0000 0.62183  0.14547  0.21907  Biso   1.000  C
  H385     1.0000 0.59433  0.15077  0.23437  Biso   1.000  H
  C506     1.0000 0.62013  0.09867  0.23377  Biso   1.000  C
  H386     1.0000 0.59013  0.07137  0.25467  Biso   1.000  H
  C507     1.0000 0.69923  0.12607  0.17077  Biso   1.000  C
  H387     1.0000 0.72293  0.11717  0.15107  Biso   1.000  H
  C508     1.0000 0.69983  0.17237  0.15517  Biso   1.000  C
  H388     1.0000 0.72523  0.19657  0.12597  Biso   1.000  H
  C509     1.0000 0.80323  0.03067  0.21067  Biso   1.000  C
  H389     1.0000 0.79923  0.05427  0.18337  Biso   1.000  H
  C510     1.0000 0.85043  0.02887  0.20837  Biso   1.000  C
  H390     1.0000 0.87583  0.04867  0.17657  Biso   1.000  H
  O61      1.0000 0.28102  0.71292  0.49409  Biso   1.000  O
  O62      1.0000 0.22951  0.62654  0.47645  Biso   1.000  O
  C511     1.0000 0.23748  0.67053  0.49460  Biso   1.000  C
  C512     1.0000 0.18989  0.67281  0.51760  Biso   1.000  C
  C513     1.0000 0.09680  0.67181  0.55160  Biso   1.000  C
  C514     1.0000 0.04632  0.66940  0.56880  Biso   1.000  C
  C515     1.0000 0.99969  0.62121  0.56900  Biso   1.000  C
  H391     1.0000 0.00010  0.58980  0.55930  Biso   1.000  H
  C516     1.0000 0.85410  0.56650  0.57350  Biso   1.000  C
  H392     1.0000 0.85330  0.59800  0.56580  Biso   1.000  H
  C517     1.0000 0.80770  0.51870  0.57480  Biso   1.000  C
  H393     1.0000 0.77540  0.51840  0.56930  Biso   1.000  H
  C518     1.0000 0.18890  0.71770  0.52900  Biso   1.000  C
  H394     1.0000 0.22010  0.75050  0.52310  Biso   1.000  H
  C519     1.0000 0.14380  0.71730  0.54910  Biso   1.000  C
  H395     1.0000 0.14560  0.74930  0.56130  Biso   1.000  H
  C520     1.0000 0.09990  0.62370  0.55230  Biso   1.000  C
  H396     1.0000 0.07070  0.59150  0.56580  Biso   1.000  H
  C521     1.0000 0.14570  0.62550  0.53320  Biso   1.000  C
  H397     1.0000 0.14690  0.59380  0.53060  Biso   1.000  H
  C522     1.0000 0.19030  0.71150  0.55240  Biso   1.000  C
  H398     1.0000 0.22310  0.73900  0.56770  Biso   1.000  H
  C523     1.0000 0.14520  0.71320  0.56710  Biso   1.000  C
  H399     1.0000 0.14790  0.74320  0.58800  Biso   1.000  H
  C524     1.0000 0.09350  0.63410  0.50410  Biso   1.000  C
  H400     1.0000 0.06090  0.61040  0.48440  Biso   1.000  H
  C525     1.0000 0.13920  0.63350  0.48850  Biso   1.000  C
  H401     1.0000 0.13800  0.60810  0.45930  Biso   1.000  H
  C526     1.0000 0.89410  0.53010  0.54400  Biso   1.000  C
  H402     1.0000 0.92170  0.53410  0.51670  Biso   1.000  H
  C527     1.0000 0.84510  0.48290  0.54170  Biso   1.000  C
  H403     1.0000 0.83950  0.45750  0.50990  Biso   1.000  H
  O63      1.0000 0.94769  0.04625  0.82742  Biso   1.000  O
  O64      1.0000 0.89618  0.95987  0.80978  Biso   1.000  O
  C528     1.0000 0.90415  0.00386  0.82793  Biso   1.000  C
  C529     1.0000 0.85656  0.00614  0.85093  Biso   1.000  C
  C530     1.0000 0.76347  0.00514  0.88493  Biso   1.000  C
  C531     1.0000 0.71299  0.00273  0.90213  Biso   1.000  C
  C532     1.0000 0.66636  0.95454  0.90233  Biso   1.000  C
  H404     1.0000 0.66677  0.92313  0.89263  Biso   1.000  H
  C533     1.0000 0.52077  0.89983  0.90683  Biso   1.000  C
  H405     1.0000 0.51997  0.93133  0.89913  Biso   1.000  H
  C534     1.0000 0.47437  0.85203  0.90813  Biso   1.000  C
  H406     1.0000 0.44207  0.85173  0.90263  Biso   1.000  H
  C535     1.0000 0.85557  0.05103  0.86233  Biso   1.000  C
  H407     1.0000 0.88677  0.08383  0.85643  Biso   1.000  H
  C536     1.0000 0.81047  0.05063  0.88243  Biso   1.000  C
  H408     1.0000 0.81227  0.08263  0.89463  Biso   1.000  H
  C537     1.0000 0.76657  0.95703  0.88563  Biso   1.000  C
  H409     1.0000 0.73737  0.92483  0.89913  Biso   1.000  H
  C538     1.0000 0.81237  0.95883  0.86653  Biso   1.000  C
  H410     1.0000 0.81357  0.92713  0.86393  Biso   1.000  H
  C539     1.0000 0.85697  0.04483  0.88573  Biso   1.000  C
  H411     1.0000 0.88977  0.07233  0.90103  Biso   1.000  H
  C540     1.0000 0.81187  0.04653  0.90043  Biso   1.000  C
  H412     1.0000 0.81457  0.07653  0.92133  Biso   1.000  H
  C541     1.0000 0.76017  0.96743  0.83743  Biso   1.000  C
  H413     1.0000 0.72757  0.94373  0.81773  Biso   1.000  H
  C542     1.0000 0.80587  0.96683  0.82183  Biso   1.000  C
  H414     1.0000 0.80467  0.94143  0.79263  Biso   1.000  H
  C543     1.0000 0.56077  0.86343  0.87733  Biso   1.000  C
  H415     1.0000 0.58837  0.86743  0.85003  Biso   1.000  H
  C544     1.0000 0.51177  0.81623  0.87503  Biso   1.000  C
  H416     1.0000 0.50617  0.79083  0.84323  Biso   1.000  H
  O65      1.0000 0.61435  0.37959  0.16076  Biso   1.000  O
  O66      1.0000 0.56284  0.29321  0.14312  Biso   1.000  O
  C545     1.0000 0.57081  0.33720  0.16127  Biso   1.000  C
  C546     1.0000 0.52322  0.33948  0.18427  Biso   1.000  C
  C547     1.0000 0.43013  0.33848  0.21827  Biso   1.000  C
  C548     1.0000 0.37965  0.33607  0.23547  Biso   1.000  C
  C549     1.0000 0.33302  0.28788  0.23567  Biso   1.000  C
  H417     1.0000 0.33343  0.25647  0.22597  Biso   1.000  H
  C550     1.0000 0.18743  0.23317  0.24017  Biso   1.000  C
  H418     1.0000 0.18663  0.26467  0.23247  Biso   1.000  H
  C551     1.0000 0.14103  0.18537  0.24147  Biso   1.000  C
  H419     1.0000 0.10873  0.18507  0.23597  Biso   1.000  H
  C552     1.0000 0.52223  0.38437  0.19567  Biso   1.000  C
  H420     1.0000 0.55343  0.41717  0.18977  Biso   1.000  H
  C553     1.0000 0.47713  0.38397  0.21577  Biso   1.000  C
  H421     1.0000 0.47893  0.41597  0.22797  Biso   1.000  H
  C554     1.0000 0.43323  0.29037  0.21897  Biso   1.000  C
  H422     1.0000 0.40403  0.25817  0.23247  Biso   1.000  H
  C555     1.0000 0.47903  0.29217  0.19987  Biso   1.000  C
  H423     1.0000 0.48023  0.26047  0.19727  Biso   1.000  H
  C556     1.0000 0.52363  0.37817  0.21907  Biso   1.000  C
  H424     1.0000 0.55643  0.40567  0.23437  Biso   1.000  H
  C557     1.0000 0.47853  0.37987  0.23377  Biso   1.000  C
  H425     1.0000 0.48123  0.40987  0.25467  Biso   1.000  H
  C558     1.0000 0.42683  0.30077  0.17077  Biso   1.000  C
  H426     1.0000 0.39423  0.27707  0.15107  Biso   1.000  H
  C559     1.0000 0.47253  0.30017  0.15517  Biso   1.000  C
  H427     1.0000 0.47133  0.27477  0.12597  Biso   1.000  H
  C560     1.0000 0.22743  0.19677  0.21067  Biso   1.000  C
  H428     1.0000 0.25503  0.20077  0.18337  Biso   1.000  H
  C561     1.0000 0.17843  0.14957  0.20837  Biso   1.000  C
  H429     1.0000 0.17283  0.12417  0.17657  Biso   1.000  H
  O67      1.0000 0.43190  0.71898  0.49409  Biso   1.000  O
  O68      1.0000 0.39703  0.77049  0.47645  Biso   1.000  O
  C562     1.0000 0.43305  0.76252  0.49460  Biso   1.000  C
  C563     1.0000 0.48292  0.81011  0.51760  Biso   1.000  C
  C564     1.0000 0.57501  0.90320  0.55160  Biso   1.000  C
  C565     1.0000 0.62308  0.95368  0.56880  Biso   1.000  C
  C566     1.0000 0.62152  0.00031  0.56900  Biso   1.000  C
  H430     1.0000 0.58970  0.99990  0.55930  Biso   1.000  H
  C567     1.0000 0.71240  0.14590  0.57350  Biso   1.000  C
  H431     1.0000 0.74470  0.14670  0.56580  Biso   1.000  H
  C568     1.0000 0.71100  0.19230  0.57480  Biso   1.000  C
  H432     1.0000 0.74300  0.22460  0.56930  Biso   1.000  H
  C569     1.0000 0.52880  0.81110  0.52900  Biso   1.000  C
  H433     1.0000 0.53040  0.77990  0.52310  Biso   1.000  H
  C570     1.0000 0.57350  0.85620  0.54910  Biso   1.000  C
  H434     1.0000 0.60370  0.85440  0.56130  Biso   1.000  H
  C571     1.0000 0.52380  0.90010  0.55230  Biso   1.000  C
  H435     1.0000 0.52080  0.92930  0.56580  Biso   1.000  H
  C572     1.0000 0.47980  0.85430  0.53320  Biso   1.000  C
  H436     1.0000 0.44690  0.85310  0.53060  Biso   1.000  H
  C573     1.0000 0.52120  0.80970  0.55240  Biso   1.000  C
  H437     1.0000 0.51590  0.77690  0.56770  Biso   1.000  H
  C574     1.0000 0.56800  0.85480  0.56710  Biso   1.000  C
  H438     1.0000 0.59530  0.85210  0.58800  Biso   1.000  H
  C575     1.0000 0.54060  0.90650  0.50410  Biso   1.000  C
  H439     1.0000 0.54950  0.93910  0.48440  Biso   1.000  H
  C576     1.0000 0.49430  0.86080  0.48850  Biso   1.000  C
  H440     1.0000 0.47010  0.86200  0.45930  Biso   1.000  H
  C577     1.0000 0.63600  0.10590  0.54400  Biso   1.000  C
  H441     1.0000 0.61240  0.07830  0.51670  Biso   1.000  H
  C578     1.0000 0.63780  0.15490  0.54170  Biso   1.000  C
  H442     1.0000 0.61800  0.16050  0.50990  Biso   1.000  H
  O69      1.0000 0.09857  0.05231  0.82742  Biso   1.000  O
  O70      1.0000 0.06370  0.10382  0.80978  Biso   1.000  O
  C579     1.0000 0.09972  0.09585  0.82793  Biso   1.000  C
  C580     1.0000 0.14959  0.14344  0.85093  Biso   1.000  C
  C581     1.0000 0.24168  0.23653  0.88493  Biso   1.000  C
  C582     1.0000 0.28975  0.28701  0.90213  Biso   1.000  C
  C583     1.0000 0.28819  0.33364  0.90233  Biso   1.000  C
  H443     1.0000 0.25637  0.33323  0.89263  Biso   1.000  H
  C584     1.0000 0.37907  0.47923  0.90683  Biso   1.000  C
  H444     1.0000 0.41137  0.48003  0.89913  Biso   1.000  H
  C585     1.0000 0.37767  0.52563  0.90813  Biso   1.000  C
  H445     1.0000 0.40967  0.55793  0.90263  Biso   1.000  H
  C586     1.0000 0.19547  0.14443  0.86233  Biso   1.000  C
  H446     1.0000 0.19707  0.11323  0.85643  Biso   1.000  H
  C587     1.0000 0.24017  0.18953  0.88243  Biso   1.000  C
  H447     1.0000 0.27037  0.18773  0.89463  Biso   1.000  H
  C588     1.0000 0.19047  0.23343  0.88563  Biso   1.000  C
  H448     1.0000 0.18747  0.26263  0.89913  Biso   1.000  H
  C589     1.0000 0.14647  0.18763  0.86653  Biso   1.000  C
  H449     1.0000 0.11357  0.18643  0.86393  Biso   1.000  H
  C590     1.0000 0.18787  0.14303  0.88573  Biso   1.000  C
  H450     1.0000 0.18257  0.11023  0.90103  Biso   1.000  H
  C591     1.0000 0.23467  0.18813  0.90043  Biso   1.000  C
  H451     1.0000 0.26197  0.18543  0.92133  Biso   1.000  H
  C592     1.0000 0.20727  0.23983  0.83743  Biso   1.000  C
  H452     1.0000 0.21617  0.27243  0.81773  Biso   1.000  H
  C593     1.0000 0.16097  0.19413  0.82183  Biso   1.000  C
  H453     1.0000 0.13677  0.19533  0.79263  Biso   1.000  H
  C594     1.0000 0.30267  0.43923  0.87733  Biso   1.000  C
  H454     1.0000 0.27907  0.41163  0.85003  Biso   1.000  H
  C595     1.0000 0.30447  0.48823  0.87503  Biso   1.000  C
  H455     1.0000 0.28467  0.49383  0.84323  Biso   1.000  H
  O71      1.0000 0.76523  0.38565  0.16076  Biso   1.000  O
  O72      1.0000 0.73036  0.43716  0.14312  Biso   1.000  O
  C596     1.0000 0.76638  0.42919  0.16127  Biso   1.000  C
  C597     1.0000 0.81625  0.47678  0.18427  Biso   1.000  C
  C598     1.0000 0.90834  0.56987  0.21827  Biso   1.000  C
  C599     1.0000 0.95641  0.62035  0.23547  Biso   1.000  C
  C600     1.0000 0.95485  0.66698  0.23567  Biso   1.000  C
  H456     1.0000 0.92303  0.66657  0.22597  Biso   1.000  H
  C601     1.0000 0.04573  0.81257  0.24017  Biso   1.000  C
  H457     1.0000 0.07803  0.81337  0.23247  Biso   1.000  H
  C602     1.0000 0.04433  0.85897  0.24147  Biso   1.000  C
  H458     1.0000 0.07633  0.89127  0.23597  Biso   1.000  H
  C603     1.0000 0.86213  0.47777  0.19567  Biso   1.000  C
  H459     1.0000 0.86373  0.44657  0.18977  Biso   1.000  H
  C604     1.0000 0.90683  0.52287  0.21577  Biso   1.000  C
  H460     1.0000 0.93703  0.52107  0.22797  Biso   1.000  H
  C605     1.0000 0.85713  0.56677  0.21897  Biso   1.000  C
  H461     1.0000 0.85413  0.59597  0.23247  Biso   1.000  H
  C606     1.0000 0.81313  0.52097  0.19987  Biso   1.000  C
  H462     1.0000 0.78023  0.51977  0.19727  Biso   1.000  H
  C607     1.0000 0.85453  0.47637  0.21907  Biso   1.000  C
  H463     1.0000 0.84923  0.44357  0.23437  Biso   1.000  H
  C608     1.0000 0.90133  0.52147  0.23377  Biso   1.000  C
  H464     1.0000 0.92863  0.51877  0.25467  Biso   1.000  H
  C609     1.0000 0.87393  0.57317  0.17077  Biso   1.000  C
  H465     1.0000 0.88283  0.60577  0.15107  Biso   1.000  H
  C610     1.0000 0.82763  0.52747  0.15517  Biso   1.000  C
  H466     1.0000 0.80343  0.52867  0.12597  Biso   1.000  H
  C611     1.0000 0.96933  0.77257  0.21067  Biso   1.000  C
  H467     1.0000 0.94573  0.74497  0.18337  Biso   1.000  H
  C612     1.0000 0.97113  0.82157  0.20837  Biso   1.000  C
  H468     1.0000 0.95133  0.82717  0.17657  Biso   1.000  H
  Ni1      1.0000 0.66667  0.40174  0.08333  Biso   1.000  Ni
  N1       1.0000 0.66667  0.47306  0.08333  Biso   1.000  N
  N2       1.0000 0.66667  0.71479  0.08333  Biso   1.000  N
  C613     1.0000 0.66667  0.61928  0.08333  Biso   1.000  C
  C614     1.0000 0.66667  0.56868  0.08333  Biso   1.000  C
  Ni2      1.0000 0.59826  0.26492  0.08333  Biso   1.000  Ni
  N3       1.0000 0.52694  0.19360  0.08333  Biso   1.000  N
  N4       1.0000 0.28521  0.95187  0.08333  Biso   1.000  N
  C615     1.0000 0.38072  0.04738  0.08333  Biso   1.000  C
  C616     1.0000 0.43132  0.09798  0.08333  Biso   1.000  C
  Ni3      1.0000 0.73508  0.33333  0.08333  Biso   1.000  Ni
  N5       1.0000 0.80640  0.33333  0.08333  Biso   1.000  N
  N6       1.0000 0.04813  0.33333  0.08333  Biso   1.000  N
  C617     1.0000 0.95262  0.33333  0.08333  Biso   1.000  C
  C618     1.0000 0.90202  0.33333  0.08333  Biso   1.000  C
  Ni4      1.0000 0.40174  0.66667  0.41667  Biso   1.000  Ni
  N7       1.0000 0.47306  0.66667  0.41667  Biso   1.000  N
  N8       1.0000 0.71479  0.66667  0.41667  Biso   1.000  N
  C619     1.0000 0.61928  0.66667  0.41667  Biso   1.000  C
  C620     1.0000 0.56868  0.66667  0.41667  Biso   1.000  C
  Ni5      1.0000 0.06841  0.00000  0.75000  Biso   1.000  Ni
  N9       1.0000 0.13973  0.00000  0.75000  Biso   1.000  N
  N10      1.0000 0.38146  0.00000  0.75000  Biso   1.000  N
  C621     1.0000 0.28595  0.00000  0.75000  Biso   1.000  C
  C622     1.0000 0.23535  0.00000  0.75000  Biso   1.000  C
  Ni6      1.0000 0.26492  0.59826  0.41667  Biso   1.000  Ni
  N11      1.0000 0.19360  0.52694  0.41667  Biso   1.000  N
  N12      1.0000 0.95187  0.28521  0.41667  Biso   1.000  N
  C623     1.0000 0.04738  0.38072  0.41667  Biso   1.000  C
  C624     1.0000 0.09798  0.43132  0.41667  Biso   1.000  C
  Ni7      1.0000 0.93159  0.93159  0.75000  Biso   1.000  Ni
  N13      1.0000 0.86027  0.86027  0.75000  Biso   1.000  N
  N14      1.0000 0.61854  0.61854  0.75000  Biso   1.000  N
  C625     1.0000 0.71405  0.71405  0.75000  Biso   1.000  C
  C626     1.0000 0.76465  0.76465  0.75000  Biso   1.000  C
  Ni8      1.0000 0.33333  0.73508  0.41667  Biso   1.000  Ni
  N15      1.0000 0.33333  0.80640  0.41667  Biso   1.000  N
  N16      1.0000 0.33333  0.04813  0.41667  Biso   1.000  N
  C627     1.0000 0.33333  0.95262  0.41667  Biso   1.000  C
  C628     1.0000 0.33333  0.90202  0.41667  Biso   1.000  C
  Ni9      1.0000 0.00000  0.06841  0.75000  Biso   1.000  Ni
  N17      1.0000 0.00000  0.13973  0.75000  Biso   1.000  N
  N18      1.0000 0.00000  0.38146  0.75000  Biso   1.000  N
  C629     1.0000 0.00000  0.28595  0.75000  Biso   1.000  C
  C630     1.0000 0.00000  0.23535  0.75000  Biso   1.000  C
  Ni10     1.0000 0.33333  0.59826  0.91667  Biso   1.000  Ni
  N19      1.0000 0.33333  0.52694  0.91667  Biso   1.000  N
  N20      1.0000 0.33333  0.28521  0.91667  Biso   1.000  N
  C631     1.0000 0.33333  0.38072  0.91667  Biso   1.000  C
  C632     1.0000 0.33333  0.43132  0.91667  Biso   1.000  C
  Ni11     1.0000 0.00000  0.93159  0.25000  Biso   1.000  Ni
  N21      1.0000 0.00000  0.86027  0.25000  Biso   1.000  N
  N22      1.0000 0.00000  0.61854  0.25000  Biso   1.000  N
  C633     1.0000 0.00000  0.71405  0.25000  Biso   1.000  C
  C634     1.0000 1.00000  0.76465  0.25000  Biso   1.000  C
  Ni12     1.0000 0.40174  0.73508  0.91667  Biso   1.000  Ni
  N23      1.0000 0.47306  0.80640  0.91667  Biso   1.000  N
  N24      1.0000 0.71479  0.04813  0.91667  Biso   1.000  N
  C635     1.0000 0.61928  0.95262  0.91667  Biso   1.000  C
  C636     1.0000 0.56868  0.90202  0.91667  Biso   1.000  C
  Ni13     1.0000 0.06841  0.06841  0.25000  Biso   1.000  Ni
  N25      1.0000 0.13973  0.13973  0.25000  Biso   1.000  N
  N26      1.0000 0.38146  0.38146  0.25000  Biso   1.000  N
  C637     1.0000 0.28595  0.28595  0.25000  Biso   1.000  C
  C638     1.0000 0.23535  0.23535  0.25000  Biso   1.000  C
  Ni14     1.0000 0.26492  0.66667  0.91667  Biso   1.000  Ni
  N27      1.0000 0.19360  0.66667  0.91667  Biso   1.000  N
  N28      1.0000 0.95187  0.66667  0.91667  Biso   1.000  N
  C639     1.0000 0.04738  0.66667  0.91667  Biso   1.000  C
  C640     1.0000 0.09798  0.66667  0.91667  Biso   1.000  C
  Ni15     1.0000 0.93159  0.00000  0.25000  Biso   1.000  Ni
  N29      1.0000 0.86027  0.00000  0.25000  Biso   1.000  N
  N30      1.0000 0.61854  0.00000  0.25000  Biso   1.000  N
  C641     1.0000 0.71405  0.00000  0.25000  Biso   1.000  C
  C642     1.0000 0.76465  0.00000  0.25000  Biso   1.000  C
  Ni16     1.0000 0.59826  0.33333  0.58333  Biso   1.000  Ni
  N31      1.0000 0.52694  0.33333  0.58333  Biso   1.000  N
  N32      1.0000 0.28521  0.33333  0.58333  Biso   1.000  N
  C643     1.0000 0.38072  0.33333  0.58333  Biso   1.000  C
  C644     1.0000 0.43132  0.33333  0.58333  Biso   1.000  C
  Ni17     1.0000 0.73508  0.40174  0.58333  Biso   1.000  Ni
  N33      1.0000 0.80640  0.47306  0.58333  Biso   1.000  N
  N34      1.0000 0.04813  0.71479  0.58333  Biso   1.000  N
  C645     1.0000 0.95262  0.61928  0.58333  Biso   1.000  C
  C646     1.0000 0.90202  0.56868  0.58333  Biso   1.000  C
  Ni18     1.0000 0.66667  0.26492  0.58333  Biso   1.000  Ni
  N35      1.0000 0.66667  0.19360  0.58333  Biso   1.000  N
  N36      1.0000 0.66667  0.95187  0.58333  Biso   1.000  N
  C647     1.0000 0.66667  0.04738  0.58333  Biso   1.000  C
  C648     1.0000 0.66667  0.09798  0.58333  Biso   1.000  C
  O73      1.0000 0.66667  0.33333  0.08333  Biso   1.000  O
  O74      1.0000 0.00000  0.00000  0.75000  Biso   1.000  O
  O75      1.0000 0.33333  0.66667  0.41667  Biso   1.000  O
  O76      1.0000 0.33333  0.66667  0.91667  Biso   1.000  O
  O77      1.0000 0.00000  0.00000  0.25000  Biso   1.000  O
  O78      1.0000 0.66667  0.33333  0.58333  Biso   1.000  O
  H469     1.0000 0.66667  0.33333  0.13130  Biso   1.000  H
  H470     1.0000 0.33333  0.66667  0.46463  Biso   1.000  H
  H471     1.0000 0.00000  0.00000  0.79797  Biso   1.000  H
  H472     1.0000 0.33333  0.66667  0.36870  Biso   1.000  H
  H473     1.0000 0.00000  0.00000  0.70203  Biso   1.000  H
  H474     1.0000 0.66667  0.33333  0.03537  Biso   1.000  H
  H475     1.0000 0.33333  0.66667  0.86870  Biso   1.000  H
  H476     1.0000 0.00000  0.00000  0.20203  Biso   1.000  H
  H477     1.0000 0.66667  0.33333  0.53537  Biso   1.000  H
  H478     1.0000 0.66667  0.33333  0.63130  Biso   1.000  H
  H479     1.0000 0.33333  0.66667  0.96463  Biso   1.000  H
  H480     1.0000 0.00000  0.00000  0.29797  Biso   1.000  H
