data_image0
_cell_length_a       29.347
_cell_length_b       29.347
_cell_length_c       21.287
_cell_angle_alpha    90
_cell_angle_beta     90
_cell_angle_gamma    120

_symmetry_space_group_name_H-M    "P 1"
_symmetry_int_tables_number       1

loop_
  _symmetry_equiv_pos_as_xyz
  'x, y, z'

loop_
  _atom_site_label
  _atom_site_occupancy
  _atom_site_fract_x
  _atom_site_fract_y
  _atom_site_fract_z
  _atom_site_thermal_displace_type
  _atom_site_B_iso_or_equiv
  _atom_site_type_symbol
  O1       1.0000 0.43218  0.71219  0.99194  Biso   1.000  O
  O2       1.0000 0.39639  0.62596  0.97687  Biso   1.000  O
  C1       1.0000 0.43289  0.67015  0.99388  Biso   1.000  C
  C2       1.0000 0.48273  0.67218  0.01700  Biso   1.000  C
  C3       1.0000 0.52090  0.71180  0.05160  Biso   1.000  C
  H1       1.0000 0.51560  0.73890  0.06530  Biso   1.000  H
  C4       1.0000 0.56720  0.71310  0.06710  Biso   1.000  C
  H2       1.0000 0.59340  0.74210  0.08840  Biso   1.000  H
  C5       1.0000 0.53990  0.63420  0.00880  Biso   1.000  C
  H3       1.0000 0.54810  0.61020  0.99140  Biso   1.000  H
  C6       1.0000 0.49450  0.63190  0.99240  Biso   1.000  C
  H4       1.0000 0.47080  0.60540  0.96590  Biso   1.000  H
  C7       1.0000 0.57502  0.67191  0.05130  Biso   1.000  C
  C8       1.0000 0.62332  0.66988  0.06810  Biso   1.000  C
  C9       1.0000 0.62188  0.62181  0.06850  Biso   1.000  C
  H5       1.0000 0.59080  0.59110  0.05880  Biso   1.000  H
  C10      1.0000 0.71230  0.56680  0.07400  Biso   1.000  C
  H6       1.0000 0.74410  0.59760  0.06700  Biso   1.000  H
  C11      1.0000 0.71090  0.51930  0.07510  Biso   1.000  C
  H7       1.0000 0.74220  0.51920  0.06980  Biso   1.000  H
  C12      1.0000 0.52940  0.71810  0.02590  Biso   1.000  C
  H8       1.0000 0.53080  0.75010  0.01910  Biso   1.000  H
  C13      1.0000 0.57500  0.71790  0.04500  Biso   1.000  C
  H9       1.0000 0.60560  0.74950  0.05340  Biso   1.000  H
  C14      1.0000 0.52370  0.62300  0.04940  Biso   1.000  C
  H10      1.0000 0.52100  0.59100  0.06010  Biso   1.000  H
  C15      1.0000 0.47960  0.62550  0.03160  Biso   1.000  C
  H11      1.0000 0.44710  0.59470  0.02960  Biso   1.000  H
  C16      1.0000 0.64250  0.53340  0.03900  Biso   1.000  C
  H12      1.0000 0.62530  0.53970  0.00650  Biso   1.000  H
  C17      1.0000 0.64300  0.48450  0.04200  Biso   1.000  C
  H13      1.0000 0.62510  0.45960  0.01070  Biso   1.000  H
  O3       1.0000 0.09885  0.04552  0.32527  Biso   1.000  O
  O4       1.0000 0.06306  0.95929  0.31020  Biso   1.000  O
  C18      1.0000 0.09956  0.00348  0.32721  Biso   1.000  C
  C19      1.0000 0.14940  0.00551  0.35033  Biso   1.000  C
  C20      1.0000 0.18757  0.04513  0.38493  Biso   1.000  C
  H14      1.0000 0.18227  0.07223  0.39863  Biso   1.000  H
  C21      1.0000 0.23387  0.04643  0.40043  Biso   1.000  C
  H15      1.0000 0.26007  0.07543  0.42173  Biso   1.000  H
  C22      1.0000 0.20657  0.96753  0.34213  Biso   1.000  C
  H16      1.0000 0.21477  0.94353  0.32473  Biso   1.000  H
  C23      1.0000 0.16117  0.96523  0.32573  Biso   1.000  C
  H17      1.0000 0.13747  0.93873  0.29923  Biso   1.000  H
  C24      1.0000 0.24169  0.00524  0.38463  Biso   1.000  C
  C25      1.0000 0.28999  0.00321  0.40143  Biso   1.000  C
  C26      1.0000 0.28855  0.95514  0.40183  Biso   1.000  C
  H18      1.0000 0.25747  0.92443  0.39213  Biso   1.000  H
  C27      1.0000 0.37897  0.90013  0.40733  Biso   1.000  C
  H19      1.0000 0.41077  0.93093  0.40033  Biso   1.000  H
  C28      1.0000 0.37757  0.85263  0.40843  Biso   1.000  C
  H20      1.0000 0.40887  0.85253  0.40313  Biso   1.000  H
  C29      1.0000 0.19607  0.05143  0.35923  Biso   1.000  C
  H21      1.0000 0.19747  0.08343  0.35243  Biso   1.000  H
  C30      1.0000 0.24167  0.05123  0.37833  Biso   1.000  C
  H22      1.0000 0.27227  0.08283  0.38673  Biso   1.000  H
  C31      1.0000 0.19037  0.95633  0.38273  Biso   1.000  C
  H23      1.0000 0.18767  0.92433  0.39343  Biso   1.000  H
  C32      1.0000 0.14627  0.95883  0.36493  Biso   1.000  C
  H24      1.0000 0.11377  0.92803  0.36293  Biso   1.000  H
  C33      1.0000 0.30917  0.86673  0.37233  Biso   1.000  C
  H25      1.0000 0.29197  0.87303  0.33983  Biso   1.000  H
  C34      1.0000 0.30967  0.81783  0.37533  Biso   1.000  C
  H26      1.0000 0.29177  0.79293  0.34403  Biso   1.000  H
  O5       1.0000 0.76551  0.37886  0.65861  Biso   1.000  O
  O6       1.0000 0.72972  0.29263  0.64354  Biso   1.000  O
  C35      1.0000 0.76622  0.33682  0.66055  Biso   1.000  C
  C36      1.0000 0.81606  0.33885  0.68367  Biso   1.000  C
  C37      1.0000 0.85423  0.37847  0.71827  Biso   1.000  C
  H27      1.0000 0.84893  0.40557  0.73197  Biso   1.000  H
  C38      1.0000 0.90053  0.37977  0.73377  Biso   1.000  C
  H28      1.0000 0.92673  0.40877  0.75507  Biso   1.000  H
  C39      1.0000 0.87323  0.30087  0.67547  Biso   1.000  C
  H29      1.0000 0.88143  0.27687  0.65807  Biso   1.000  H
  C40      1.0000 0.82783  0.29857  0.65907  Biso   1.000  C
  H30      1.0000 0.80413  0.27207  0.63257  Biso   1.000  H
  C41      1.0000 0.90835  0.33858  0.71797  Biso   1.000  C
  C42      1.0000 0.95665  0.33655  0.73477  Biso   1.000  C
  C43      1.0000 0.95521  0.28848  0.73517  Biso   1.000  C
  H31      1.0000 0.92413  0.25777  0.72547  Biso   1.000  H
  C44      1.0000 0.04563  0.23347  0.74067  Biso   1.000  C
  H32      1.0000 0.07743  0.26427  0.73367  Biso   1.000  H
  C45      1.0000 0.04423  0.18597  0.74177  Biso   1.000  C
  H33      1.0000 0.07553  0.18587  0.73647  Biso   1.000  H
  C46      1.0000 0.86273  0.38477  0.69257  Biso   1.000  C
  H34      1.0000 0.86413  0.41677  0.68577  Biso   1.000  H
  C47      1.0000 0.90833  0.38457  0.71167  Biso   1.000  C
  H35      1.0000 0.93893  0.41617  0.72007  Biso   1.000  H
  C48      1.0000 0.85703  0.28967  0.71607  Biso   1.000  C
  H36      1.0000 0.85433  0.25767  0.72677  Biso   1.000  H
  C49      1.0000 0.81293  0.29217  0.69827  Biso   1.000  C
  H37      1.0000 0.78043  0.26137  0.69627  Biso   1.000  H
  C50      1.0000 0.97583  0.20007  0.70567  Biso   1.000  C
  H38      1.0000 0.95863  0.20637  0.67317  Biso   1.000  H
  C51      1.0000 0.97633  0.15117  0.70867  Biso   1.000  C
  H39      1.0000 0.95843  0.12627  0.67737  Biso   1.000  H
  O7       1.0000 0.28781  0.71999  0.99194  Biso   1.000  O
  O8       1.0000 0.37404  0.77043  0.97687  Biso   1.000  O
  C52      1.0000 0.32985  0.76274  0.99388  Biso   1.000  C
  C53      1.0000 0.32782  0.81055  0.01700  Biso   1.000  C
  C54      1.0000 0.28820  0.80910  0.05160  Biso   1.000  C
  H40      1.0000 0.26110  0.77670  0.06530  Biso   1.000  H
  C55      1.0000 0.28690  0.85410  0.06710  Biso   1.000  C
  H41      1.0000 0.25790  0.85130  0.08840  Biso   1.000  H
  C56      1.0000 0.36580  0.90570  0.00880  Biso   1.000  C
  H42      1.0000 0.38980  0.93790  0.99140  Biso   1.000  H
  C57      1.0000 0.36810  0.86260  0.99240  Biso   1.000  C
  H43      1.0000 0.39460  0.86540  0.96590  Biso   1.000  H
  C58      1.0000 0.32809  0.90311  0.05130  Biso   1.000  C
  C59      1.0000 0.33012  0.95344  0.06810  Biso   1.000  C
  C60      1.0000 0.37819  0.00007  0.06850  Biso   1.000  C
  H44      1.0000 0.40890  0.99970  0.05880  Biso   1.000  H
  C61      1.0000 0.43320  0.14550  0.07400  Biso   1.000  C
  H45      1.0000 0.40240  0.14650  0.06700  Biso   1.000  H
  C62      1.0000 0.48070  0.19160  0.07510  Biso   1.000  C
  H46      1.0000 0.48080  0.22300  0.06980  Biso   1.000  H
  C63      1.0000 0.28190  0.81130  0.02590  Biso   1.000  C
  H47      1.0000 0.24990  0.78070  0.01910  Biso   1.000  H
  C64      1.0000 0.28210  0.85710  0.04500  Biso   1.000  C
  H48      1.0000 0.25050  0.85610  0.05340  Biso   1.000  H
  C65      1.0000 0.37700  0.90070  0.04940  Biso   1.000  C
  H49      1.0000 0.40900  0.93000  0.06010  Biso   1.000  H
  C66      1.0000 0.37450  0.85410  0.03160  Biso   1.000  C
  H50      1.0000 0.40530  0.85240  0.02960  Biso   1.000  H
  C67      1.0000 0.46660  0.10910  0.03900  Biso   1.000  C
  H51      1.0000 0.46030  0.08560  0.00650  Biso   1.000  H
  C68      1.0000 0.51550  0.15850  0.04200  Biso   1.000  C
  H52      1.0000 0.54040  0.16550  0.01070  Biso   1.000  H
  O9       1.0000 0.95448  0.05332  0.32527  Biso   1.000  O
  O10      1.0000 0.04071  0.10376  0.31020  Biso   1.000  O
  C69      1.0000 0.99652  0.09607  0.32721  Biso   1.000  C
  C70      1.0000 0.99449  0.14388  0.35033  Biso   1.000  C
  C71      1.0000 0.95487  0.14243  0.38493  Biso   1.000  C
  H53      1.0000 0.92777  0.11003  0.39863  Biso   1.000  H
  C72      1.0000 0.95357  0.18743  0.40043  Biso   1.000  C
  H54      1.0000 0.92457  0.18463  0.42173  Biso   1.000  H
  C73      1.0000 0.03247  0.23903  0.34213  Biso   1.000  C
  H55      1.0000 0.05647  0.27123  0.32473  Biso   1.000  H
  C74      1.0000 0.03477  0.19593  0.32573  Biso   1.000  C
  H56      1.0000 0.06127  0.19873  0.29923  Biso   1.000  H
  C75      1.0000 0.99476  0.23644  0.38463  Biso   1.000  C
  C76      1.0000 0.99679  0.28677  0.40143  Biso   1.000  C
  C77      1.0000 0.04486  0.33340  0.40183  Biso   1.000  C
  H57      1.0000 0.07557  0.33303  0.39213  Biso   1.000  H
  C78      1.0000 0.09987  0.47883  0.40733  Biso   1.000  C
  H58      1.0000 0.06907  0.47983  0.40033  Biso   1.000  H
  C79      1.0000 0.14737  0.52493  0.40843  Biso   1.000  C
  H59      1.0000 0.14747  0.55633  0.40313  Biso   1.000  H
  C80      1.0000 0.94857  0.14463  0.35923  Biso   1.000  C
  H60      1.0000 0.91657  0.11403  0.35243  Biso   1.000  H
  C81      1.0000 0.94877  0.19043  0.37833  Biso   1.000  C
  H61      1.0000 0.91717  0.18943  0.38673  Biso   1.000  H
  C82      1.0000 0.04367  0.23403  0.38273  Biso   1.000  C
  H62      1.0000 0.07567  0.26333  0.39343  Biso   1.000  H
  C83      1.0000 0.04117  0.18743  0.36493  Biso   1.000  C
  H63      1.0000 0.07197  0.18573  0.36293  Biso   1.000  H
  C84      1.0000 0.13327  0.44243  0.37233  Biso   1.000  C
  H64      1.0000 0.12697  0.41893  0.33983  Biso   1.000  H
  C85      1.0000 0.18217  0.49183  0.37533  Biso   1.000  C
  H65      1.0000 0.20707  0.49883  0.34403  Biso   1.000  H
  O11      1.0000 0.62114  0.38666  0.65861  Biso   1.000  O
  O12      1.0000 0.70737  0.43710  0.64354  Biso   1.000  O
  C86      1.0000 0.66318  0.42941  0.66055  Biso   1.000  C
  C87      1.0000 0.66115  0.47722  0.68367  Biso   1.000  C
  C88      1.0000 0.62153  0.47577  0.71827  Biso   1.000  C
  H66      1.0000 0.59443  0.44337  0.73197  Biso   1.000  H
  C89      1.0000 0.62023  0.52077  0.73377  Biso   1.000  C
  H67      1.0000 0.59123  0.51797  0.75507  Biso   1.000  H
  C90      1.0000 0.69913  0.57237  0.67547  Biso   1.000  C
  H68      1.0000 0.72313  0.60457  0.65807  Biso   1.000  H
  C91      1.0000 0.70143  0.52927  0.65907  Biso   1.000  C
  H69      1.0000 0.72793  0.53207  0.63257  Biso   1.000  H
  C92      1.0000 0.66142  0.56978  0.71797  Biso   1.000  C
  C93      1.0000 0.66345  0.62011  0.73477  Biso   1.000  C
  C94      1.0000 0.71152  0.66674  0.73517  Biso   1.000  C
  H70      1.0000 0.74223  0.66637  0.72547  Biso   1.000  H
  C95      1.0000 0.76653  0.81217  0.74067  Biso   1.000  C
  H71      1.0000 0.73573  0.81317  0.73367  Biso   1.000  H
  C96      1.0000 0.81403  0.85827  0.74177  Biso   1.000  C
  H72      1.0000 0.81413  0.88967  0.73647  Biso   1.000  H
  C97      1.0000 0.61523  0.47797  0.69257  Biso   1.000  C
  H73      1.0000 0.58323  0.44737  0.68577  Biso   1.000  H
  C98      1.0000 0.61543  0.52377  0.71167  Biso   1.000  C
  H74      1.0000 0.58383  0.52277  0.72007  Biso   1.000  H
  C99      1.0000 0.71033  0.56737  0.71607  Biso   1.000  C
  H75      1.0000 0.74233  0.59667  0.72677  Biso   1.000  H
  C100     1.0000 0.70783  0.52077  0.69827  Biso   1.000  C
  H76      1.0000 0.73863  0.51907  0.69627  Biso   1.000  H
  C101     1.0000 0.79993  0.77577  0.70567  Biso   1.000  C
  H77      1.0000 0.79363  0.75227  0.67317  Biso   1.000  H
  C102     1.0000 0.84883  0.82517  0.70867  Biso   1.000  C
  H78      1.0000 0.87373  0.83217  0.67737  Biso   1.000  H
  O13      1.0000 0.28001  0.56782  0.99194  Biso   1.000  O
  O14      1.0000 0.22957  0.60361  0.97687  Biso   1.000  O
  C103     1.0000 0.23726  0.56711  0.99388  Biso   1.000  C
  C104     1.0000 0.18945  0.51727  0.01700  Biso   1.000  C
  C105     1.0000 0.19090  0.47910  0.05160  Biso   1.000  C
  H79      1.0000 0.22330  0.48440  0.06530  Biso   1.000  H
  C106     1.0000 0.14590  0.43280  0.06710  Biso   1.000  C
  H80      1.0000 0.14870  0.40660  0.08840  Biso   1.000  H
  C107     1.0000 0.09430  0.46010  0.00880  Biso   1.000  C
  H81      1.0000 0.06210  0.45190  0.99140  Biso   1.000  H
  C108     1.0000 0.13740  0.50550  0.99240  Biso   1.000  C
  H82      1.0000 0.13460  0.52920  0.96590  Biso   1.000  H
  C109     1.0000 0.09689  0.42498  0.05130  Biso   1.000  C
  C110     1.0000 0.04656  0.37668  0.06810  Biso   1.000  C
  C111     1.0000 0.99993  0.37812  0.06850  Biso   1.000  C
  H83      1.0000 0.00030  0.40920  0.05880  Biso   1.000  H
  C112     1.0000 0.85450  0.28770  0.07400  Biso   1.000  C
  H84      1.0000 0.85350  0.25590  0.06700  Biso   1.000  H
  C113     1.0000 0.80840  0.28910  0.07510  Biso   1.000  C
  H85      1.0000 0.77700  0.25780  0.06980  Biso   1.000  H
  C114     1.0000 0.18870  0.47060  0.02590  Biso   1.000  C
  H86      1.0000 0.21930  0.46920  0.01910  Biso   1.000  H
  C115     1.0000 0.14290  0.42500  0.04500  Biso   1.000  C
  H87      1.0000 0.14390  0.39440  0.05340  Biso   1.000  H
  C116     1.0000 0.09930  0.47630  0.04940  Biso   1.000  C
  H88      1.0000 0.07000  0.47900  0.06010  Biso   1.000  H
  C117     1.0000 0.14590  0.52040  0.03160  Biso   1.000  C
  H89      1.0000 0.14760  0.55290  0.02960  Biso   1.000  H
  C118     1.0000 0.89090  0.35750  0.03900  Biso   1.000  C
  H90      1.0000 0.91440  0.37470  0.00650  Biso   1.000  H
  C119     1.0000 0.84150  0.35700  0.04200  Biso   1.000  C
  H91      1.0000 0.83450  0.37490  0.01070  Biso   1.000  H
  O15      1.0000 0.94668  0.90115  0.32527  Biso   1.000  O
  O16      1.0000 0.89624  0.93694  0.31020  Biso   1.000  O
  C120     1.0000 0.90393  0.90044  0.32721  Biso   1.000  C
  C121     1.0000 0.85612  0.85060  0.35033  Biso   1.000  C
  C122     1.0000 0.85757  0.81243  0.38493  Biso   1.000  C
  H92      1.0000 0.88997  0.81773  0.39863  Biso   1.000  H
  C123     1.0000 0.81257  0.76613  0.40043  Biso   1.000  C
  H93      1.0000 0.81537  0.73993  0.42173  Biso   1.000  H
  C124     1.0000 0.76097  0.79343  0.34213  Biso   1.000  C
  H94      1.0000 0.72877  0.78523  0.32473  Biso   1.000  H
  C125     1.0000 0.80407  0.83883  0.32573  Biso   1.000  C
  H95      1.0000 0.80127  0.86253  0.29923  Biso   1.000  H
  C126     1.0000 0.76356  0.75831  0.38463  Biso   1.000  C
  C127     1.0000 0.71323  0.71001  0.40143  Biso   1.000  C
  C128     1.0000 0.66660  0.71145  0.40183  Biso   1.000  C
  H96      1.0000 0.66697  0.74253  0.39213  Biso   1.000  H
  C129     1.0000 0.52117  0.62103  0.40733  Biso   1.000  C
  H97      1.0000 0.52017  0.58923  0.40033  Biso   1.000  H
  C130     1.0000 0.47507  0.62243  0.40843  Biso   1.000  C
  H98      1.0000 0.44367  0.59113  0.40313  Biso   1.000  H
  C131     1.0000 0.85537  0.80393  0.35923  Biso   1.000  C
  H99      1.0000 0.88597  0.80253  0.35243  Biso   1.000  H
  C132     1.0000 0.80957  0.75833  0.37833  Biso   1.000  C
  H100     1.0000 0.81057  0.72773  0.38673  Biso   1.000  H
  C133     1.0000 0.76597  0.80963  0.38273  Biso   1.000  C
  H101     1.0000 0.73667  0.81233  0.39343  Biso   1.000  H
  C134     1.0000 0.81257  0.85373  0.36493  Biso   1.000  C
  H102     1.0000 0.81427  0.88623  0.36293  Biso   1.000  H
  C135     1.0000 0.55757  0.69083  0.37233  Biso   1.000  C
  H103     1.0000 0.58107  0.70803  0.33983  Biso   1.000  H
  C136     1.0000 0.50817  0.69033  0.37533  Biso   1.000  C
  H104     1.0000 0.50117  0.70823  0.34403  Biso   1.000  H
  O17      1.0000 0.61334  0.23449  0.65861  Biso   1.000  O
  O18      1.0000 0.56290  0.27028  0.64354  Biso   1.000  O
  C137     1.0000 0.57059  0.23378  0.66055  Biso   1.000  C
  C138     1.0000 0.52278  0.18394  0.68367  Biso   1.000  C
  C139     1.0000 0.52423  0.14577  0.71827  Biso   1.000  C
  H105     1.0000 0.55663  0.15107  0.73197  Biso   1.000  H
  C140     1.0000 0.47923  0.09947  0.73377  Biso   1.000  C
  H106     1.0000 0.48203  0.07327  0.75507  Biso   1.000  H
  C141     1.0000 0.42763  0.12677  0.67547  Biso   1.000  C
  H107     1.0000 0.39543  0.11857  0.65807  Biso   1.000  H
  C142     1.0000 0.47073  0.17217  0.65907  Biso   1.000  C
  H108     1.0000 0.46793  0.19587  0.63257  Biso   1.000  H
  C143     1.0000 0.43022  0.09165  0.71797  Biso   1.000  C
  C144     1.0000 0.37989  0.04335  0.73477  Biso   1.000  C
  C145     1.0000 0.33326  0.04479  0.73517  Biso   1.000  C
  H109     1.0000 0.33363  0.07587  0.72547  Biso   1.000  H
  C146     1.0000 0.18783  0.95437  0.74067  Biso   1.000  C
  H110     1.0000 0.18683  0.92257  0.73367  Biso   1.000  H
  C147     1.0000 0.14173  0.95577  0.74177  Biso   1.000  C
  H111     1.0000 0.11033  0.92447  0.73647  Biso   1.000  H
  C148     1.0000 0.52203  0.13727  0.69257  Biso   1.000  C
  H112     1.0000 0.55263  0.13587  0.68577  Biso   1.000  H
  C149     1.0000 0.47623  0.09167  0.71167  Biso   1.000  C
  H113     1.0000 0.47723  0.06107  0.72007  Biso   1.000  H
  C150     1.0000 0.43263  0.14297  0.71607  Biso   1.000  C
  H114     1.0000 0.40333  0.14567  0.72677  Biso   1.000  H
  C151     1.0000 0.47923  0.18707  0.69827  Biso   1.000  C
  H115     1.0000 0.48093  0.21957  0.69627  Biso   1.000  H
  C152     1.0000 0.22423  0.02417  0.70567  Biso   1.000  C
  H116     1.0000 0.24773  0.04137  0.67317  Biso   1.000  H
  C153     1.0000 0.17483  0.02367  0.70867  Biso   1.000  C
  H117     1.0000 0.16783  0.04157  0.67737  Biso   1.000  H
  O19      1.0000 0.71219  0.43218  0.50806  Biso   1.000  O
  O20      1.0000 0.62596  0.39639  0.52313  Biso   1.000  O
  C154     1.0000 0.67015  0.43289  0.50612  Biso   1.000  C
  C155     1.0000 0.67218  0.48273  0.48300  Biso   1.000  C
  C156     1.0000 0.71180  0.52090  0.44840  Biso   1.000  C
  H118     1.0000 0.73890  0.51560  0.43470  Biso   1.000  H
  C157     1.0000 0.71310  0.56720  0.43290  Biso   1.000  C
  H119     1.0000 0.74210  0.59340  0.41160  Biso   1.000  H
  C158     1.0000 0.63420  0.53990  0.49120  Biso   1.000  C
  H120     1.0000 0.61020  0.54810  0.50860  Biso   1.000  H
  C159     1.0000 0.63190  0.49450  0.50760  Biso   1.000  C
  H121     1.0000 0.60540  0.47080  0.53410  Biso   1.000  H
  C160     1.0000 0.67191  0.57502  0.44870  Biso   1.000  C
  C161     1.0000 0.66988  0.62332  0.43190  Biso   1.000  C
  C162     1.0000 0.62181  0.62188  0.43150  Biso   1.000  C
  H122     1.0000 0.59110  0.59080  0.44120  Biso   1.000  H
  C163     1.0000 0.56680  0.71230  0.42600  Biso   1.000  C
  H123     1.0000 0.59760  0.74410  0.43300  Biso   1.000  H
  C164     1.0000 0.51930  0.71090  0.42490  Biso   1.000  C
  H124     1.0000 0.51920  0.74220  0.43020  Biso   1.000  H
  C165     1.0000 0.71810  0.52940  0.47410  Biso   1.000  C
  H125     1.0000 0.75010  0.53080  0.48090  Biso   1.000  H
  C166     1.0000 0.71790  0.57500  0.45500  Biso   1.000  C
  H126     1.0000 0.74950  0.60560  0.44660  Biso   1.000  H
  C167     1.0000 0.62300  0.52370  0.45060  Biso   1.000  C
  H127     1.0000 0.59100  0.52100  0.43990  Biso   1.000  H
  C168     1.0000 0.62550  0.47960  0.46840  Biso   1.000  C
  H128     1.0000 0.59470  0.44710  0.47040  Biso   1.000  H
  C169     1.0000 0.53340  0.64250  0.46100  Biso   1.000  C
  H129     1.0000 0.53970  0.62530  0.49350  Biso   1.000  H
  C170     1.0000 0.48450  0.64300  0.45800  Biso   1.000  C
  H130     1.0000 0.45960  0.62510  0.48930  Biso   1.000  H
  O21      1.0000 0.37886  0.76551  0.84139  Biso   1.000  O
  O22      1.0000 0.29263  0.72972  0.85646  Biso   1.000  O
  C171     1.0000 0.33682  0.76622  0.83945  Biso   1.000  C
  C172     1.0000 0.33885  0.81606  0.81633  Biso   1.000  C
  C173     1.0000 0.37847  0.85423  0.78173  Biso   1.000  C
  H131     1.0000 0.40557  0.84893  0.76803  Biso   1.000  H
  C174     1.0000 0.37977  0.90053  0.76623  Biso   1.000  C
  H132     1.0000 0.40877  0.92673  0.74493  Biso   1.000  H
  C175     1.0000 0.30087  0.87323  0.82453  Biso   1.000  C
  H133     1.0000 0.27687  0.88143  0.84193  Biso   1.000  H
  C176     1.0000 0.29857  0.82783  0.84093  Biso   1.000  C
  H134     1.0000 0.27207  0.80413  0.86743  Biso   1.000  H
  C177     1.0000 0.33858  0.90835  0.78203  Biso   1.000  C
  C178     1.0000 0.33655  0.95665  0.76523  Biso   1.000  C
  C179     1.0000 0.28848  0.95521  0.76483  Biso   1.000  C
  H135     1.0000 0.25777  0.92413  0.77453  Biso   1.000  H
  C180     1.0000 0.23347  0.04563  0.75933  Biso   1.000  C
  H136     1.0000 0.26427  0.07743  0.76633  Biso   1.000  H
  C181     1.0000 0.18597  0.04423  0.75823  Biso   1.000  C
  H137     1.0000 0.18587  0.07553  0.76353  Biso   1.000  H
  C182     1.0000 0.38477  0.86273  0.80743  Biso   1.000  C
  H138     1.0000 0.41677  0.86413  0.81423  Biso   1.000  H
  C183     1.0000 0.38457  0.90833  0.78833  Biso   1.000  C
  H139     1.0000 0.41617  0.93893  0.77993  Biso   1.000  H
  C184     1.0000 0.28967  0.85703  0.78393  Biso   1.000  C
  H140     1.0000 0.25767  0.85433  0.77323  Biso   1.000  H
  C185     1.0000 0.29217  0.81293  0.80173  Biso   1.000  C
  H141     1.0000 0.26137  0.78043  0.80373  Biso   1.000  H
  C186     1.0000 0.20007  0.97583  0.79433  Biso   1.000  C
  H142     1.0000 0.20637  0.95863  0.82683  Biso   1.000  H
  C187     1.0000 0.15117  0.97633  0.79133  Biso   1.000  C
  H143     1.0000 0.12627  0.95843  0.82263  Biso   1.000  H
  O23      1.0000 0.04552  0.09885  0.17473  Biso   1.000  O
  O24      1.0000 0.95929  0.06306  0.18980  Biso   1.000  O
  C188     1.0000 0.00348  0.09956  0.17279  Biso   1.000  C
  C189     1.0000 0.00551  0.14940  0.14967  Biso   1.000  C
  C190     1.0000 0.04513  0.18757  0.11507  Biso   1.000  C
  H144     1.0000 0.07223  0.18227  0.10137  Biso   1.000  H
  C191     1.0000 0.04643  0.23387  0.09957  Biso   1.000  C
  H145     1.0000 0.07543  0.26007  0.07827  Biso   1.000  H
  C192     1.0000 0.96753  0.20657  0.15787  Biso   1.000  C
  H146     1.0000 0.94353  0.21477  0.17527  Biso   1.000  H
  C193     1.0000 0.96523  0.16117  0.17427  Biso   1.000  C
  H147     1.0000 0.93873  0.13747  0.20077  Biso   1.000  H
  C194     1.0000 0.00524  0.24169  0.11537  Biso   1.000  C
  C195     1.0000 0.00321  0.28999  0.09857  Biso   1.000  C
  C196     1.0000 0.95514  0.28855  0.09817  Biso   1.000  C
  H148     1.0000 0.92443  0.25747  0.10787  Biso   1.000  H
  C197     1.0000 0.90013  0.37897  0.09267  Biso   1.000  C
  H149     1.0000 0.93093  0.41077  0.09967  Biso   1.000  H
  C198     1.0000 0.85263  0.37757  0.09157  Biso   1.000  C
  H150     1.0000 0.85253  0.40887  0.09687  Biso   1.000  H
  C199     1.0000 0.05143  0.19607  0.14077  Biso   1.000  C
  H151     1.0000 0.08343  0.19747  0.14757  Biso   1.000  H
  C200     1.0000 0.05123  0.24167  0.12167  Biso   1.000  C
  H152     1.0000 0.08283  0.27227  0.11327  Biso   1.000  H
  C201     1.0000 0.95633  0.19037  0.11727  Biso   1.000  C
  H153     1.0000 0.92433  0.18767  0.10657  Biso   1.000  H
  C202     1.0000 0.95883  0.14627  0.13507  Biso   1.000  C
  H154     1.0000 0.92803  0.11377  0.13707  Biso   1.000  H
  C203     1.0000 0.86673  0.30917  0.12767  Biso   1.000  C
  H155     1.0000 0.87303  0.29197  0.16017  Biso   1.000  H
  C204     1.0000 0.81783  0.30967  0.12467  Biso   1.000  C
  H156     1.0000 0.79293  0.29177  0.15597  Biso   1.000  H
  O25      1.0000 0.71999  0.28781  0.50806  Biso   1.000  O
  O26      1.0000 0.77043  0.37404  0.52313  Biso   1.000  O
  C205     1.0000 0.76274  0.32985  0.50612  Biso   1.000  C
  C206     1.0000 0.81055  0.32782  0.48300  Biso   1.000  C
  C207     1.0000 0.80910  0.28820  0.44840  Biso   1.000  C
  H157     1.0000 0.77670  0.26110  0.43470  Biso   1.000  H
  C208     1.0000 0.85410  0.28690  0.43290  Biso   1.000  C
  H158     1.0000 0.85130  0.25790  0.41160  Biso   1.000  H
  C209     1.0000 0.90570  0.36580  0.49120  Biso   1.000  C
  H159     1.0000 0.93790  0.38980  0.50860  Biso   1.000  H
  C210     1.0000 0.86260  0.36810  0.50760  Biso   1.000  C
  H160     1.0000 0.86540  0.39460  0.53410  Biso   1.000  H
  C211     1.0000 0.90311  0.32809  0.44870  Biso   1.000  C
  C212     1.0000 0.95344  0.33012  0.43190  Biso   1.000  C
  C213     1.0000 0.00007  0.37819  0.43150  Biso   1.000  C
  H161     1.0000 0.99970  0.40890  0.44120  Biso   1.000  H
  C214     1.0000 0.14550  0.43320  0.42600  Biso   1.000  C
  H162     1.0000 0.14650  0.40240  0.43300  Biso   1.000  H
  C215     1.0000 0.19160  0.48070  0.42490  Biso   1.000  C
  H163     1.0000 0.22300  0.48080  0.43020  Biso   1.000  H
  C216     1.0000 0.81130  0.28190  0.47410  Biso   1.000  C
  H164     1.0000 0.78070  0.24990  0.48090  Biso   1.000  H
  C217     1.0000 0.85710  0.28210  0.45500  Biso   1.000  C
  H165     1.0000 0.85610  0.25050  0.44660  Biso   1.000  H
  C218     1.0000 0.90070  0.37700  0.45060  Biso   1.000  C
  H166     1.0000 0.93000  0.40900  0.43990  Biso   1.000  H
  C219     1.0000 0.85410  0.37450  0.46840  Biso   1.000  C
  H167     1.0000 0.85240  0.40530  0.47040  Biso   1.000  H
  C220     1.0000 0.10910  0.46660  0.46100  Biso   1.000  C
  H168     1.0000 0.08560  0.46030  0.49350  Biso   1.000  H
  C221     1.0000 0.15850  0.51550  0.45800  Biso   1.000  C
  H169     1.0000 0.16550  0.54040  0.48930  Biso   1.000  H
  O27      1.0000 0.38666  0.62114  0.84139  Biso   1.000  O
  O28      1.0000 0.43710  0.70737  0.85646  Biso   1.000  O
  C222     1.0000 0.42941  0.66318  0.83945  Biso   1.000  C
  C223     1.0000 0.47722  0.66115  0.81633  Biso   1.000  C
  C224     1.0000 0.47577  0.62153  0.78173  Biso   1.000  C
  H170     1.0000 0.44337  0.59443  0.76803  Biso   1.000  H
  C225     1.0000 0.52077  0.62023  0.76623  Biso   1.000  C
  H171     1.0000 0.51797  0.59123  0.74493  Biso   1.000  H
  C226     1.0000 0.57237  0.69913  0.82453  Biso   1.000  C
  H172     1.0000 0.60457  0.72313  0.84193  Biso   1.000  H
  C227     1.0000 0.52927  0.70143  0.84093  Biso   1.000  C
  H173     1.0000 0.53207  0.72793  0.86743  Biso   1.000  H
  C228     1.0000 0.56978  0.66142  0.78203  Biso   1.000  C
  C229     1.0000 0.62011  0.66345  0.76523  Biso   1.000  C
  C230     1.0000 0.66674  0.71152  0.76483  Biso   1.000  C
  H174     1.0000 0.66637  0.74223  0.77453  Biso   1.000  H
  C231     1.0000 0.81217  0.76653  0.75933  Biso   1.000  C
  H175     1.0000 0.81317  0.73573  0.76633  Biso   1.000  H
  C232     1.0000 0.85827  0.81403  0.75823  Biso   1.000  C
  H176     1.0000 0.88967  0.81413  0.76353  Biso   1.000  H
  C233     1.0000 0.47797  0.61523  0.80743  Biso   1.000  C
  H177     1.0000 0.44737  0.58323  0.81423  Biso   1.000  H
  C234     1.0000 0.52377  0.61543  0.78833  Biso   1.000  C
  H178     1.0000 0.52277  0.58383  0.77993  Biso   1.000  H
  C235     1.0000 0.56737  0.71033  0.78393  Biso   1.000  C
  H179     1.0000 0.59667  0.74233  0.77323  Biso   1.000  H
  C236     1.0000 0.52077  0.70783  0.80173  Biso   1.000  C
  H180     1.0000 0.51907  0.73863  0.80373  Biso   1.000  H
  C237     1.0000 0.77577  0.79993  0.79433  Biso   1.000  C
  H181     1.0000 0.75227  0.79363  0.82683  Biso   1.000  H
  C238     1.0000 0.82517  0.84883  0.79133  Biso   1.000  C
  H182     1.0000 0.83217  0.87373  0.82263  Biso   1.000  H
  O29      1.0000 0.05332  0.95448  0.17473  Biso   1.000  O
  O30      1.0000 0.10376  0.04071  0.18980  Biso   1.000  O
  C239     1.0000 0.09607  0.99652  0.17279  Biso   1.000  C
  C240     1.0000 0.14388  0.99449  0.14967  Biso   1.000  C
  C241     1.0000 0.14243  0.95487  0.11507  Biso   1.000  C
  H183     1.0000 0.11003  0.92777  0.10137  Biso   1.000  H
  C242     1.0000 0.18743  0.95357  0.09957  Biso   1.000  C
  H184     1.0000 0.18463  0.92457  0.07827  Biso   1.000  H
  C243     1.0000 0.23903  0.03247  0.15787  Biso   1.000  C
  H185     1.0000 0.27123  0.05647  0.17527  Biso   1.000  H
  C244     1.0000 0.19593  0.03477  0.17427  Biso   1.000  C
  H186     1.0000 0.19873  0.06127  0.20077  Biso   1.000  H
  C245     1.0000 0.23644  0.99476  0.11537  Biso   1.000  C
  C246     1.0000 0.28677  0.99679  0.09857  Biso   1.000  C
  C247     1.0000 0.33340  0.04486  0.09817  Biso   1.000  C
  H187     1.0000 0.33303  0.07557  0.10787  Biso   1.000  H
  C248     1.0000 0.47883  0.09987  0.09267  Biso   1.000  C
  H188     1.0000 0.47983  0.06907  0.09967  Biso   1.000  H
  C249     1.0000 0.52493  0.14737  0.09157  Biso   1.000  C
  H189     1.0000 0.55633  0.14747  0.09687  Biso   1.000  H
  C250     1.0000 0.14463  0.94857  0.14077  Biso   1.000  C
  H190     1.0000 0.11403  0.91657  0.14757  Biso   1.000  H
  C251     1.0000 0.19043  0.94877  0.12167  Biso   1.000  C
  H191     1.0000 0.18943  0.91717  0.11327  Biso   1.000  H
  C252     1.0000 0.23403  0.04367  0.11727  Biso   1.000  C
  H192     1.0000 0.26333  0.07567  0.10657  Biso   1.000  H
  C253     1.0000 0.18743  0.04117  0.13507  Biso   1.000  C
  H193     1.0000 0.18573  0.07197  0.13707  Biso   1.000  H
  C254     1.0000 0.44243  0.13327  0.12767  Biso   1.000  C
  H194     1.0000 0.41893  0.12697  0.16017  Biso   1.000  H
  C255     1.0000 0.49183  0.18217  0.12467  Biso   1.000  C
  H195     1.0000 0.49883  0.20707  0.15597  Biso   1.000  H
  O31      1.0000 0.56782  0.28001  0.50806  Biso   1.000  O
  O32      1.0000 0.60361  0.22957  0.52313  Biso   1.000  O
  C256     1.0000 0.56711  0.23726  0.50612  Biso   1.000  C
  C257     1.0000 0.51727  0.18945  0.48300  Biso   1.000  C
  C258     1.0000 0.47910  0.19090  0.44840  Biso   1.000  C
  H196     1.0000 0.48440  0.22330  0.43470  Biso   1.000  H
  C259     1.0000 0.43280  0.14590  0.43290  Biso   1.000  C
  H197     1.0000 0.40660  0.14870  0.41160  Biso   1.000  H
  C260     1.0000 0.46010  0.09430  0.49120  Biso   1.000  C
  H198     1.0000 0.45190  0.06210  0.50860  Biso   1.000  H
  C261     1.0000 0.50550  0.13740  0.50760  Biso   1.000  C
  H199     1.0000 0.52920  0.13460  0.53410  Biso   1.000  H
  C262     1.0000 0.42498  0.09689  0.44870  Biso   1.000  C
  C263     1.0000 0.37668  0.04656  0.43190  Biso   1.000  C
  C264     1.0000 0.37812  0.99993  0.43150  Biso   1.000  C
  H200     1.0000 0.40920  0.00030  0.44120  Biso   1.000  H
  C265     1.0000 0.28770  0.85450  0.42600  Biso   1.000  C
  H201     1.0000 0.25590  0.85350  0.43300  Biso   1.000  H
  C266     1.0000 0.28910  0.80840  0.42490  Biso   1.000  C
  H202     1.0000 0.25780  0.77700  0.43020  Biso   1.000  H
  C267     1.0000 0.47060  0.18870  0.47410  Biso   1.000  C
  H203     1.0000 0.46920  0.21930  0.48090  Biso   1.000  H
  C268     1.0000 0.42500  0.14290  0.45500  Biso   1.000  C
  H204     1.0000 0.39440  0.14390  0.44660  Biso   1.000  H
  C269     1.0000 0.47630  0.09930  0.45060  Biso   1.000  C
  H205     1.0000 0.47900  0.07000  0.43990  Biso   1.000  H
  C270     1.0000 0.52040  0.14590  0.46840  Biso   1.000  C
  H206     1.0000 0.55290  0.14760  0.47040  Biso   1.000  H
  C271     1.0000 0.35750  0.89090  0.46100  Biso   1.000  C
  H207     1.0000 0.37470  0.91440  0.49350  Biso   1.000  H
  C272     1.0000 0.35700  0.84150  0.45800  Biso   1.000  C
  H208     1.0000 0.37490  0.83450  0.48930  Biso   1.000  H
  O33      1.0000 0.23449  0.61334  0.84139  Biso   1.000  O
  O34      1.0000 0.27028  0.56290  0.85646  Biso   1.000  O
  C273     1.0000 0.23378  0.57059  0.83945  Biso   1.000  C
  C274     1.0000 0.18394  0.52278  0.81633  Biso   1.000  C
  C275     1.0000 0.14577  0.52423  0.78173  Biso   1.000  C
  H209     1.0000 0.15107  0.55663  0.76803  Biso   1.000  H
  C276     1.0000 0.09947  0.47923  0.76623  Biso   1.000  C
  H210     1.0000 0.07327  0.48203  0.74493  Biso   1.000  H
  C277     1.0000 0.12677  0.42763  0.82453  Biso   1.000  C
  H211     1.0000 0.11857  0.39543  0.84193  Biso   1.000  H
  C278     1.0000 0.17217  0.47073  0.84093  Biso   1.000  C
  H212     1.0000 0.19587  0.46793  0.86743  Biso   1.000  H
  C279     1.0000 0.09165  0.43022  0.78203  Biso   1.000  C
  C280     1.0000 0.04335  0.37989  0.76523  Biso   1.000  C
  C281     1.0000 0.04479  0.33326  0.76483  Biso   1.000  C
  H213     1.0000 0.07587  0.33363  0.77453  Biso   1.000  H
  C282     1.0000 0.95437  0.18783  0.75933  Biso   1.000  C
  H214     1.0000 0.92257  0.18683  0.76633  Biso   1.000  H
  C283     1.0000 0.95577  0.14173  0.75823  Biso   1.000  C
  H215     1.0000 0.92447  0.11033  0.76353  Biso   1.000  H
  C284     1.0000 0.13727  0.52203  0.80743  Biso   1.000  C
  H216     1.0000 0.13587  0.55263  0.81423  Biso   1.000  H
  C285     1.0000 0.09167  0.47623  0.78833  Biso   1.000  C
  H217     1.0000 0.06107  0.47723  0.77993  Biso   1.000  H
  C286     1.0000 0.14297  0.43263  0.78393  Biso   1.000  C
  H218     1.0000 0.14567  0.40333  0.77323  Biso   1.000  H
  C287     1.0000 0.18707  0.47923  0.80173  Biso   1.000  C
  H219     1.0000 0.21957  0.48093  0.80373  Biso   1.000  H
  C288     1.0000 0.02417  0.22423  0.79433  Biso   1.000  C
  H220     1.0000 0.04137  0.24773  0.82683  Biso   1.000  H
  C289     1.0000 0.02367  0.17483  0.79133  Biso   1.000  C
  H221     1.0000 0.04157  0.16783  0.82263  Biso   1.000  H
  O35      1.0000 0.90115  0.94668  0.17473  Biso   1.000  O
  O36      1.0000 0.93694  0.89624  0.18980  Biso   1.000  O
  C290     1.0000 0.90044  0.90393  0.17279  Biso   1.000  C
  C291     1.0000 0.85060  0.85612  0.14967  Biso   1.000  C
  C292     1.0000 0.81243  0.85757  0.11507  Biso   1.000  C
  H222     1.0000 0.81773  0.88997  0.10137  Biso   1.000  H
  C293     1.0000 0.76613  0.81257  0.09957  Biso   1.000  C
  H223     1.0000 0.73993  0.81537  0.07827  Biso   1.000  H
  C294     1.0000 0.79343  0.76097  0.15787  Biso   1.000  C
  H224     1.0000 0.78523  0.72877  0.17527  Biso   1.000  H
  C295     1.0000 0.83883  0.80407  0.17427  Biso   1.000  C
  H225     1.0000 0.86253  0.80127  0.20077  Biso   1.000  H
  C296     1.0000 0.75831  0.76356  0.11537  Biso   1.000  C
  C297     1.0000 0.71001  0.71323  0.09857  Biso   1.000  C
  C298     1.0000 0.71145  0.66660  0.09817  Biso   1.000  C
  H226     1.0000 0.74253  0.66697  0.10787  Biso   1.000  H
  C299     1.0000 0.62103  0.52117  0.09267  Biso   1.000  C
  H227     1.0000 0.58923  0.52017  0.09967  Biso   1.000  H
  C300     1.0000 0.62243  0.47507  0.09157  Biso   1.000  C
  H228     1.0000 0.59113  0.44367  0.09687  Biso   1.000  H
  C301     1.0000 0.80393  0.85537  0.14077  Biso   1.000  C
  H229     1.0000 0.80253  0.88597  0.14757  Biso   1.000  H
  C302     1.0000 0.75833  0.80957  0.12167  Biso   1.000  C
  H230     1.0000 0.72773  0.81057  0.11327  Biso   1.000  H
  C303     1.0000 0.80963  0.76597  0.11727  Biso   1.000  C
  H231     1.0000 0.81233  0.73667  0.10657  Biso   1.000  H
  C304     1.0000 0.85373  0.81257  0.13507  Biso   1.000  C
  H232     1.0000 0.88623  0.81427  0.13707  Biso   1.000  H
  C305     1.0000 0.69083  0.55757  0.12767  Biso   1.000  C
  H233     1.0000 0.70803  0.58107  0.16017  Biso   1.000  H
  C306     1.0000 0.69033  0.50817  0.12467  Biso   1.000  C
  H234     1.0000 0.70823  0.50117  0.15597  Biso   1.000  H
  O37      1.0000 0.56782  0.28781  0.00806  Biso   1.000  O
  O38      1.0000 0.60361  0.37404  0.02313  Biso   1.000  O
  C307     1.0000 0.56711  0.32985  0.00612  Biso   1.000  C
  C308     1.0000 0.51727  0.32782  0.98300  Biso   1.000  C
  C309     1.0000 0.47910  0.28820  0.94840  Biso   1.000  C
  H235     1.0000 0.48440  0.26110  0.93470  Biso   1.000  H
  C310     1.0000 0.43280  0.28690  0.93290  Biso   1.000  C
  H236     1.0000 0.40660  0.25790  0.91160  Biso   1.000  H
  C311     1.0000 0.46010  0.36580  0.99120  Biso   1.000  C
  H237     1.0000 0.45190  0.38980  0.00860  Biso   1.000  H
  C312     1.0000 0.50550  0.36810  0.00760  Biso   1.000  C
  H238     1.0000 0.52920  0.39460  0.03410  Biso   1.000  H
  C313     1.0000 0.42498  0.32809  0.94870  Biso   1.000  C
  C314     1.0000 0.37668  0.33012  0.93190  Biso   1.000  C
  C315     1.0000 0.37812  0.37819  0.93150  Biso   1.000  C
  H239     1.0000 0.40920  0.40890  0.94120  Biso   1.000  H
  C316     1.0000 0.28770  0.43320  0.92600  Biso   1.000  C
  H240     1.0000 0.25590  0.40240  0.93300  Biso   1.000  H
  C317     1.0000 0.28910  0.48070  0.92490  Biso   1.000  C
  H241     1.0000 0.25780  0.48080  0.93020  Biso   1.000  H
  C318     1.0000 0.47060  0.28190  0.97410  Biso   1.000  C
  H242     1.0000 0.46920  0.24990  0.98090  Biso   1.000  H
  C319     1.0000 0.42500  0.28210  0.95500  Biso   1.000  C
  H243     1.0000 0.39440  0.25050  0.94660  Biso   1.000  H
  C320     1.0000 0.47630  0.37700  0.95060  Biso   1.000  C
  H244     1.0000 0.47900  0.40900  0.93990  Biso   1.000  H
  C321     1.0000 0.52040  0.37450  0.96840  Biso   1.000  C
  H245     1.0000 0.55290  0.40530  0.97040  Biso   1.000  H
  C322     1.0000 0.35750  0.46660  0.96100  Biso   1.000  C
  H246     1.0000 0.37470  0.46030  0.99350  Biso   1.000  H
  C323     1.0000 0.35700  0.51550  0.95800  Biso   1.000  C
  H247     1.0000 0.37490  0.54040  0.98930  Biso   1.000  H
  O39      1.0000 0.23449  0.62114  0.34139  Biso   1.000  O
  O40      1.0000 0.27028  0.70737  0.35646  Biso   1.000  O
  C324     1.0000 0.23378  0.66318  0.33945  Biso   1.000  C
  C325     1.0000 0.18394  0.66115  0.31633  Biso   1.000  C
  C326     1.0000 0.14577  0.62153  0.28173  Biso   1.000  C
  H248     1.0000 0.15107  0.59443  0.26803  Biso   1.000  H
  C327     1.0000 0.09947  0.62023  0.26623  Biso   1.000  C
  H249     1.0000 0.07327  0.59123  0.24493  Biso   1.000  H
  C328     1.0000 0.12677  0.69913  0.32453  Biso   1.000  C
  H250     1.0000 0.11857  0.72313  0.34193  Biso   1.000  H
  C329     1.0000 0.17217  0.70143  0.34093  Biso   1.000  C
  H251     1.0000 0.19587  0.72793  0.36743  Biso   1.000  H
  C330     1.0000 0.09165  0.66142  0.28203  Biso   1.000  C
  C331     1.0000 0.04335  0.66345  0.26523  Biso   1.000  C
  C332     1.0000 0.04479  0.71152  0.26483  Biso   1.000  C
  H252     1.0000 0.07587  0.74223  0.27453  Biso   1.000  H
  C333     1.0000 0.95437  0.76653  0.25933  Biso   1.000  C
  H253     1.0000 0.92257  0.73573  0.26633  Biso   1.000  H
  C334     1.0000 0.95577  0.81403  0.25823  Biso   1.000  C
  H254     1.0000 0.92447  0.81413  0.26353  Biso   1.000  H
  C335     1.0000 0.13727  0.61523  0.30743  Biso   1.000  C
  H255     1.0000 0.13587  0.58323  0.31423  Biso   1.000  H
  C336     1.0000 0.09167  0.61543  0.28833  Biso   1.000  C
  H256     1.0000 0.06107  0.58383  0.27993  Biso   1.000  H
  C337     1.0000 0.14297  0.71033  0.28393  Biso   1.000  C
  H257     1.0000 0.14567  0.74233  0.27323  Biso   1.000  H
  C338     1.0000 0.18707  0.70783  0.30173  Biso   1.000  C
  H258     1.0000 0.21957  0.73863  0.30373  Biso   1.000  H
  C339     1.0000 0.02417  0.79993  0.29433  Biso   1.000  C
  H259     1.0000 0.04137  0.79363  0.32683  Biso   1.000  H
  C340     1.0000 0.02367  0.84883  0.29133  Biso   1.000  C
  H260     1.0000 0.04157  0.87373  0.32263  Biso   1.000  H
  O41      1.0000 0.90115  0.95448  0.67473  Biso   1.000  O
  O42      1.0000 0.93694  0.04071  0.68980  Biso   1.000  O
  C341     1.0000 0.90044  0.99652  0.67279  Biso   1.000  C
  C342     1.0000 0.85060  0.99449  0.64967  Biso   1.000  C
  C343     1.0000 0.81243  0.95487  0.61507  Biso   1.000  C
  H261     1.0000 0.81773  0.92777  0.60137  Biso   1.000  H
  C344     1.0000 0.76613  0.95357  0.59957  Biso   1.000  C
  H262     1.0000 0.73993  0.92457  0.57827  Biso   1.000  H
  C345     1.0000 0.79343  0.03247  0.65787  Biso   1.000  C
  H263     1.0000 0.78523  0.05647  0.67527  Biso   1.000  H
  C346     1.0000 0.83883  0.03477  0.67427  Biso   1.000  C
  H264     1.0000 0.86253  0.06127  0.70077  Biso   1.000  H
  C347     1.0000 0.75831  0.99476  0.61537  Biso   1.000  C
  C348     1.0000 0.71001  0.99679  0.59857  Biso   1.000  C
  C349     1.0000 0.71145  0.04486  0.59817  Biso   1.000  C
  H265     1.0000 0.74253  0.07557  0.60787  Biso   1.000  H
  C350     1.0000 0.62103  0.09987  0.59267  Biso   1.000  C
  H266     1.0000 0.58923  0.06907  0.59967  Biso   1.000  H
  C351     1.0000 0.62243  0.14737  0.59157  Biso   1.000  C
  H267     1.0000 0.59113  0.14747  0.59687  Biso   1.000  H
  C352     1.0000 0.80393  0.94857  0.64077  Biso   1.000  C
  H268     1.0000 0.80253  0.91657  0.64757  Biso   1.000  H
  C353     1.0000 0.75833  0.94877  0.62167  Biso   1.000  C
  H269     1.0000 0.72773  0.91717  0.61327  Biso   1.000  H
  C354     1.0000 0.80963  0.04367  0.61727  Biso   1.000  C
  H270     1.0000 0.81233  0.07567  0.60657  Biso   1.000  H
  C355     1.0000 0.85373  0.04117  0.63507  Biso   1.000  C
  H271     1.0000 0.88623  0.07197  0.63707  Biso   1.000  H
  C356     1.0000 0.69083  0.13327  0.62767  Biso   1.000  C
  H272     1.0000 0.70803  0.12697  0.66017  Biso   1.000  H
  C357     1.0000 0.69033  0.18217  0.62467  Biso   1.000  C
  H273     1.0000 0.70823  0.20707  0.65597  Biso   1.000  H
  O43      1.0000 0.71219  0.28001  0.00806  Biso   1.000  O
  O44      1.0000 0.62596  0.22957  0.02313  Biso   1.000  O
  C358     1.0000 0.67015  0.23726  0.00612  Biso   1.000  C
  C359     1.0000 0.67218  0.18945  0.98300  Biso   1.000  C
  C360     1.0000 0.71180  0.19090  0.94840  Biso   1.000  C
  H274     1.0000 0.73890  0.22330  0.93470  Biso   1.000  H
  C361     1.0000 0.71310  0.14590  0.93290  Biso   1.000  C
  H275     1.0000 0.74210  0.14870  0.91160  Biso   1.000  H
  C362     1.0000 0.63420  0.09430  0.99120  Biso   1.000  C
  H276     1.0000 0.61020  0.06210  0.00860  Biso   1.000  H
  C363     1.0000 0.63190  0.13740  0.00760  Biso   1.000  C
  H277     1.0000 0.60540  0.13460  0.03410  Biso   1.000  H
  C364     1.0000 0.67191  0.09689  0.94870  Biso   1.000  C
  C365     1.0000 0.66988  0.04656  0.93190  Biso   1.000  C
  C366     1.0000 0.62181  0.99993  0.93150  Biso   1.000  C
  H278     1.0000 0.59110  0.00030  0.94120  Biso   1.000  H
  C367     1.0000 0.56680  0.85450  0.92600  Biso   1.000  C
  H279     1.0000 0.59760  0.85350  0.93300  Biso   1.000  H
  C368     1.0000 0.51930  0.80840  0.92490  Biso   1.000  C
  H280     1.0000 0.51920  0.77700  0.93020  Biso   1.000  H
  C369     1.0000 0.71810  0.18870  0.97410  Biso   1.000  C
  H281     1.0000 0.75010  0.21930  0.98090  Biso   1.000  H
  C370     1.0000 0.71790  0.14290  0.95500  Biso   1.000  C
  H282     1.0000 0.74950  0.14390  0.94660  Biso   1.000  H
  C371     1.0000 0.62300  0.09930  0.95060  Biso   1.000  C
  H283     1.0000 0.59100  0.07000  0.93990  Biso   1.000  H
  C372     1.0000 0.62550  0.14590  0.96840  Biso   1.000  C
  H284     1.0000 0.59470  0.14760  0.97040  Biso   1.000  H
  C373     1.0000 0.53340  0.89090  0.96100  Biso   1.000  C
  H285     1.0000 0.53970  0.91440  0.99350  Biso   1.000  H
  C374     1.0000 0.48450  0.84150  0.95800  Biso   1.000  C
  H286     1.0000 0.45960  0.83450  0.98930  Biso   1.000  H
  O45      1.0000 0.37886  0.61334  0.34139  Biso   1.000  O
  O46      1.0000 0.29263  0.56290  0.35646  Biso   1.000  O
  C375     1.0000 0.33682  0.57059  0.33945  Biso   1.000  C
  C376     1.0000 0.33885  0.52278  0.31633  Biso   1.000  C
  C377     1.0000 0.37847  0.52423  0.28173  Biso   1.000  C
  H287     1.0000 0.40557  0.55663  0.26803  Biso   1.000  H
  C378     1.0000 0.37977  0.47923  0.26623  Biso   1.000  C
  H288     1.0000 0.40877  0.48203  0.24493  Biso   1.000  H
  C379     1.0000 0.30087  0.42763  0.32453  Biso   1.000  C
  H289     1.0000 0.27687  0.39543  0.34193  Biso   1.000  H
  C380     1.0000 0.29857  0.47073  0.34093  Biso   1.000  C
  H290     1.0000 0.27207  0.46793  0.36743  Biso   1.000  H
  C381     1.0000 0.33858  0.43022  0.28203  Biso   1.000  C
  C382     1.0000 0.33655  0.37989  0.26523  Biso   1.000  C
  C383     1.0000 0.28848  0.33326  0.26483  Biso   1.000  C
  H291     1.0000 0.25777  0.33363  0.27453  Biso   1.000  H
  C384     1.0000 0.23347  0.18783  0.25933  Biso   1.000  C
  H292     1.0000 0.26427  0.18683  0.26633  Biso   1.000  H
  C385     1.0000 0.18597  0.14173  0.25823  Biso   1.000  C
  H293     1.0000 0.18587  0.11033  0.26353  Biso   1.000  H
  C386     1.0000 0.38477  0.52203  0.30743  Biso   1.000  C
  H294     1.0000 0.41677  0.55263  0.31423  Biso   1.000  H
  C387     1.0000 0.38457  0.47623  0.28833  Biso   1.000  C
  H295     1.0000 0.41617  0.47723  0.27993  Biso   1.000  H
  C388     1.0000 0.28967  0.43263  0.28393  Biso   1.000  C
  H296     1.0000 0.25767  0.40333  0.27323  Biso   1.000  H
  C389     1.0000 0.29217  0.47923  0.30173  Biso   1.000  C
  H297     1.0000 0.26137  0.48093  0.30373  Biso   1.000  H
  C390     1.0000 0.20007  0.22423  0.29433  Biso   1.000  C
  H298     1.0000 0.20637  0.24773  0.32683  Biso   1.000  H
  C391     1.0000 0.15117  0.17483  0.29133  Biso   1.000  C
  H299     1.0000 0.12627  0.16783  0.32263  Biso   1.000  H
  O47      1.0000 0.04552  0.94668  0.67473  Biso   1.000  O
  O48      1.0000 0.95929  0.89624  0.68980  Biso   1.000  O
  C392     1.0000 0.00348  0.90393  0.67279  Biso   1.000  C
  C393     1.0000 0.00551  0.85612  0.64967  Biso   1.000  C
  C394     1.0000 0.04513  0.85757  0.61507  Biso   1.000  C
  H300     1.0000 0.07223  0.88997  0.60137  Biso   1.000  H
  C395     1.0000 0.04643  0.81257  0.59957  Biso   1.000  C
  H301     1.0000 0.07543  0.81537  0.57827  Biso   1.000  H
  C396     1.0000 0.96753  0.76097  0.65787  Biso   1.000  C
  H302     1.0000 0.94353  0.72877  0.67527  Biso   1.000  H
  C397     1.0000 0.96523  0.80407  0.67427  Biso   1.000  C
  H303     1.0000 0.93873  0.80127  0.70077  Biso   1.000  H
  C398     1.0000 0.00524  0.76356  0.61537  Biso   1.000  C
  C399     1.0000 0.00321  0.71323  0.59857  Biso   1.000  C
  C400     1.0000 0.95514  0.66660  0.59817  Biso   1.000  C
  H304     1.0000 0.92443  0.66697  0.60787  Biso   1.000  H
  C401     1.0000 0.90013  0.52117  0.59267  Biso   1.000  C
  H305     1.0000 0.93093  0.52017  0.59967  Biso   1.000  H
  C402     1.0000 0.85263  0.47507  0.59157  Biso   1.000  C
  H306     1.0000 0.85253  0.44367  0.59687  Biso   1.000  H
  C403     1.0000 0.05143  0.85537  0.64077  Biso   1.000  C
  H307     1.0000 0.08343  0.88597  0.64757  Biso   1.000  H
  C404     1.0000 0.05123  0.80957  0.62167  Biso   1.000  C
  H308     1.0000 0.08283  0.81057  0.61327  Biso   1.000  H
  C405     1.0000 0.95633  0.76597  0.61727  Biso   1.000  C
  H309     1.0000 0.92433  0.73667  0.60657  Biso   1.000  H
  C406     1.0000 0.95883  0.81257  0.63507  Biso   1.000  C
  H310     1.0000 0.92803  0.81427  0.63707  Biso   1.000  H
  C407     1.0000 0.86673  0.55757  0.62767  Biso   1.000  C
  H311     1.0000 0.87303  0.58107  0.66017  Biso   1.000  H
  C408     1.0000 0.81783  0.50817  0.62467  Biso   1.000  C
  H312     1.0000 0.79293  0.50117  0.65597  Biso   1.000  H
  O49      1.0000 0.71999  0.43218  0.00806  Biso   1.000  O
  O50      1.0000 0.77043  0.39639  0.02313  Biso   1.000  O
  C409     1.0000 0.76274  0.43289  0.00612  Biso   1.000  C
  C410     1.0000 0.81055  0.48273  0.98300  Biso   1.000  C
  C411     1.0000 0.80910  0.52090  0.94840  Biso   1.000  C
  H313     1.0000 0.77670  0.51560  0.93470  Biso   1.000  H
  C412     1.0000 0.85410  0.56720  0.93290  Biso   1.000  C
  H314     1.0000 0.85130  0.59340  0.91160  Biso   1.000  H
  C413     1.0000 0.90570  0.53990  0.99120  Biso   1.000  C
  H315     1.0000 0.93790  0.54810  0.00860  Biso   1.000  H
  C414     1.0000 0.86260  0.49450  0.00760  Biso   1.000  C
  H316     1.0000 0.86540  0.47080  0.03410  Biso   1.000  H
  C415     1.0000 0.90311  0.57502  0.94870  Biso   1.000  C
  C416     1.0000 0.95344  0.62332  0.93190  Biso   1.000  C
  C417     1.0000 0.00007  0.62188  0.93150  Biso   1.000  C
  H317     1.0000 0.99970  0.59080  0.94120  Biso   1.000  H
  C418     1.0000 0.14550  0.71230  0.92600  Biso   1.000  C
  H318     1.0000 0.14650  0.74410  0.93300  Biso   1.000  H
  C419     1.0000 0.19160  0.71090  0.92490  Biso   1.000  C
  H319     1.0000 0.22300  0.74220  0.93020  Biso   1.000  H
  C420     1.0000 0.81130  0.52940  0.97410  Biso   1.000  C
  H320     1.0000 0.78070  0.53080  0.98090  Biso   1.000  H
  C421     1.0000 0.85710  0.57500  0.95500  Biso   1.000  C
  H321     1.0000 0.85610  0.60560  0.94660  Biso   1.000  H
  C422     1.0000 0.90070  0.52370  0.95060  Biso   1.000  C
  H322     1.0000 0.93000  0.52100  0.93990  Biso   1.000  H
  C423     1.0000 0.85410  0.47960  0.96840  Biso   1.000  C
  H323     1.0000 0.85240  0.44710  0.97040  Biso   1.000  H
  C424     1.0000 0.10910  0.64250  0.96100  Biso   1.000  C
  H324     1.0000 0.08560  0.62530  0.99350  Biso   1.000  H
  C425     1.0000 0.15850  0.64300  0.95800  Biso   1.000  C
  H325     1.0000 0.16550  0.62510  0.98930  Biso   1.000  H
  O51      1.0000 0.38666  0.76551  0.34139  Biso   1.000  O
  O52      1.0000 0.43710  0.72972  0.35646  Biso   1.000  O
  C426     1.0000 0.42941  0.76622  0.33945  Biso   1.000  C
  C427     1.0000 0.47722  0.81606  0.31633  Biso   1.000  C
  C428     1.0000 0.47577  0.85423  0.28173  Biso   1.000  C
  H326     1.0000 0.44337  0.84893  0.26803  Biso   1.000  H
  C429     1.0000 0.52077  0.90053  0.26623  Biso   1.000  C
  H327     1.0000 0.51797  0.92673  0.24493  Biso   1.000  H
  C430     1.0000 0.57237  0.87323  0.32453  Biso   1.000  C
  H328     1.0000 0.60457  0.88143  0.34193  Biso   1.000  H
  C431     1.0000 0.52927  0.82783  0.34093  Biso   1.000  C
  H329     1.0000 0.53207  0.80413  0.36743  Biso   1.000  H
  C432     1.0000 0.56978  0.90835  0.28203  Biso   1.000  C
  C433     1.0000 0.62011  0.95665  0.26523  Biso   1.000  C
  C434     1.0000 0.66674  0.95521  0.26483  Biso   1.000  C
  H330     1.0000 0.66637  0.92413  0.27453  Biso   1.000  H
  C435     1.0000 0.81217  0.04563  0.25933  Biso   1.000  C
  H331     1.0000 0.81317  0.07743  0.26633  Biso   1.000  H
  C436     1.0000 0.85827  0.04423  0.25823  Biso   1.000  C
  H332     1.0000 0.88967  0.07553  0.26353  Biso   1.000  H
  C437     1.0000 0.47797  0.86273  0.30743  Biso   1.000  C
  H333     1.0000 0.44737  0.86413  0.31423  Biso   1.000  H
  C438     1.0000 0.52377  0.90833  0.28833  Biso   1.000  C
  H334     1.0000 0.52277  0.93893  0.27993  Biso   1.000  H
  C439     1.0000 0.56737  0.85703  0.28393  Biso   1.000  C
  H335     1.0000 0.59667  0.85433  0.27323  Biso   1.000  H
  C440     1.0000 0.52077  0.81293  0.30173  Biso   1.000  C
  H336     1.0000 0.51907  0.78043  0.30373  Biso   1.000  H
  C441     1.0000 0.77577  0.97583  0.29433  Biso   1.000  C
  H337     1.0000 0.75227  0.95863  0.32683  Biso   1.000  H
  C442     1.0000 0.82517  0.97633  0.29133  Biso   1.000  C
  H338     1.0000 0.83217  0.95843  0.32263  Biso   1.000  H
  O53      1.0000 0.05332  0.09885  0.67473  Biso   1.000  O
  O54      1.0000 0.10376  0.06306  0.68980  Biso   1.000  O
  C443     1.0000 0.09607  0.09956  0.67279  Biso   1.000  C
  C444     1.0000 0.14388  0.14940  0.64967  Biso   1.000  C
  C445     1.0000 0.14243  0.18757  0.61507  Biso   1.000  C
  H339     1.0000 0.11003  0.18227  0.60137  Biso   1.000  H
  C446     1.0000 0.18743  0.23387  0.59957  Biso   1.000  C
  H340     1.0000 0.18463  0.26007  0.57827  Biso   1.000  H
  C447     1.0000 0.23903  0.20657  0.65787  Biso   1.000  C
  H341     1.0000 0.27123  0.21477  0.67527  Biso   1.000  H
  C448     1.0000 0.19593  0.16117  0.67427  Biso   1.000  C
  H342     1.0000 0.19873  0.13747  0.70077  Biso   1.000  H
  C449     1.0000 0.23644  0.24169  0.61537  Biso   1.000  C
  C450     1.0000 0.28677  0.28999  0.59857  Biso   1.000  C
  C451     1.0000 0.33340  0.28855  0.59817  Biso   1.000  C
  H343     1.0000 0.33303  0.25747  0.60787  Biso   1.000  H
  C452     1.0000 0.47883  0.37897  0.59267  Biso   1.000  C
  H344     1.0000 0.47983  0.41077  0.59967  Biso   1.000  H
  C453     1.0000 0.52493  0.37757  0.59157  Biso   1.000  C
  H345     1.0000 0.55633  0.40887  0.59687  Biso   1.000  H
  C454     1.0000 0.14463  0.19607  0.64077  Biso   1.000  C
  H346     1.0000 0.11403  0.19747  0.64757  Biso   1.000  H
  C455     1.0000 0.19043  0.24167  0.62167  Biso   1.000  C
  H347     1.0000 0.18943  0.27227  0.61327  Biso   1.000  H
  C456     1.0000 0.23403  0.19037  0.61727  Biso   1.000  C
  H348     1.0000 0.26333  0.18767  0.60657  Biso   1.000  H
  C457     1.0000 0.18743  0.14627  0.63507  Biso   1.000  C
  H349     1.0000 0.18573  0.11377  0.63707  Biso   1.000  H
  C458     1.0000 0.44243  0.30917  0.62767  Biso   1.000  C
  H350     1.0000 0.41893  0.29197  0.66017  Biso   1.000  H
  C459     1.0000 0.49183  0.30967  0.62467  Biso   1.000  C
  H351     1.0000 0.49883  0.29177  0.65597  Biso   1.000  H
  O55      1.0000 0.28781  0.56782  0.49194  Biso   1.000  O
  O56      1.0000 0.37404  0.60361  0.47687  Biso   1.000  O
  C460     1.0000 0.32985  0.56711  0.49388  Biso   1.000  C
  C461     1.0000 0.32782  0.51727  0.51700  Biso   1.000  C
  C462     1.0000 0.28820  0.47910  0.55160  Biso   1.000  C
  H352     1.0000 0.26110  0.48440  0.56530  Biso   1.000  H
  C463     1.0000 0.28690  0.43280  0.56710  Biso   1.000  C
  H353     1.0000 0.25790  0.40660  0.58840  Biso   1.000  H
  C464     1.0000 0.36580  0.46010  0.50880  Biso   1.000  C
  H354     1.0000 0.38980  0.45190  0.49140  Biso   1.000  H
  C465     1.0000 0.36810  0.50550  0.49240  Biso   1.000  C
  H355     1.0000 0.39460  0.52920  0.46590  Biso   1.000  H
  C466     1.0000 0.32809  0.42498  0.55130  Biso   1.000  C
  C467     1.0000 0.33012  0.37668  0.56810  Biso   1.000  C
  C468     1.0000 0.37819  0.37812  0.56850  Biso   1.000  C
  H356     1.0000 0.40890  0.40920  0.55880  Biso   1.000  H
  C469     1.0000 0.43320  0.28770  0.57400  Biso   1.000  C
  H357     1.0000 0.40240  0.25590  0.56700  Biso   1.000  H
  C470     1.0000 0.48070  0.28910  0.57510  Biso   1.000  C
  H358     1.0000 0.48080  0.25780  0.56980  Biso   1.000  H
  C471     1.0000 0.28190  0.47060  0.52590  Biso   1.000  C
  H359     1.0000 0.24990  0.46920  0.51910  Biso   1.000  H
  C472     1.0000 0.28210  0.42500  0.54500  Biso   1.000  C
  H360     1.0000 0.25050  0.39440  0.55340  Biso   1.000  H
  C473     1.0000 0.37700  0.47630  0.54940  Biso   1.000  C
  H361     1.0000 0.40900  0.47900  0.56010  Biso   1.000  H
  C474     1.0000 0.37450  0.52040  0.53160  Biso   1.000  C
  H362     1.0000 0.40530  0.55290  0.52960  Biso   1.000  H
  C475     1.0000 0.46660  0.35750  0.53900  Biso   1.000  C
  H363     1.0000 0.46030  0.37470  0.50650  Biso   1.000  H
  C476     1.0000 0.51550  0.35700  0.54200  Biso   1.000  C
  H364     1.0000 0.54040  0.37490  0.51070  Biso   1.000  H
  O57      1.0000 0.95448  0.90115  0.82527  Biso   1.000  O
  O58      1.0000 0.04071  0.93694  0.81020  Biso   1.000  O
  C477     1.0000 0.99652  0.90044  0.82721  Biso   1.000  C
  C478     1.0000 0.99449  0.85060  0.85033  Biso   1.000  C
  C479     1.0000 0.95487  0.81243  0.88493  Biso   1.000  C
  H365     1.0000 0.92777  0.81773  0.89863  Biso   1.000  H
  C480     1.0000 0.95357  0.76613  0.90043  Biso   1.000  C
  H366     1.0000 0.92457  0.73993  0.92173  Biso   1.000  H
  C481     1.0000 0.03247  0.79343  0.84213  Biso   1.000  C
  H367     1.0000 0.05647  0.78523  0.82473  Biso   1.000  H
  C482     1.0000 0.03477  0.83883  0.82573  Biso   1.000  C
  H368     1.0000 0.06127  0.86253  0.79923  Biso   1.000  H
  C483     1.0000 0.99476  0.75831  0.88463  Biso   1.000  C
  C484     1.0000 0.99679  0.71001  0.90143  Biso   1.000  C
  C485     1.0000 0.04486  0.71145  0.90183  Biso   1.000  C
  H369     1.0000 0.07557  0.74253  0.89213  Biso   1.000  H
  C486     1.0000 0.09987  0.62103  0.90733  Biso   1.000  C
  H370     1.0000 0.06907  0.58923  0.90033  Biso   1.000  H
  C487     1.0000 0.14737  0.62243  0.90843  Biso   1.000  C
  H371     1.0000 0.14747  0.59113  0.90313  Biso   1.000  H
  C488     1.0000 0.94857  0.80393  0.85923  Biso   1.000  C
  H372     1.0000 0.91657  0.80253  0.85243  Biso   1.000  H
  C489     1.0000 0.94877  0.75833  0.87833  Biso   1.000  C
  H373     1.0000 0.91717  0.72773  0.88673  Biso   1.000  H
  C490     1.0000 0.04367  0.80963  0.88273  Biso   1.000  C
  H374     1.0000 0.07567  0.81233  0.89343  Biso   1.000  H
  C491     1.0000 0.04117  0.85373  0.86493  Biso   1.000  C
  H375     1.0000 0.07197  0.88623  0.86293  Biso   1.000  H
  C492     1.0000 0.13327  0.69083  0.87233  Biso   1.000  C
  H376     1.0000 0.12697  0.70803  0.83983  Biso   1.000  H
  C493     1.0000 0.18217  0.69033  0.87533  Biso   1.000  C
  H377     1.0000 0.20707  0.70823  0.84403  Biso   1.000  H
  O59      1.0000 0.62114  0.23449  0.15861  Biso   1.000  O
  O60      1.0000 0.70737  0.27028  0.14354  Biso   1.000  O
  C494     1.0000 0.66318  0.23378  0.16055  Biso   1.000  C
  C495     1.0000 0.66115  0.18394  0.18367  Biso   1.000  C
  C496     1.0000 0.62153  0.14577  0.21827  Biso   1.000  C
  H378     1.0000 0.59443  0.15107  0.23197  Biso   1.000  H
  C497     1.0000 0.62023  0.09947  0.23377  Biso   1.000  C
  H379     1.0000 0.59123  0.07327  0.25507  Biso   1.000  H
  C498     1.0000 0.69913  0.12677  0.17547  Biso   1.000  C
  H380     1.0000 0.72313  0.11857  0.15807  Biso   1.000  H
  C499     1.0000 0.70143  0.17217  0.15907  Biso   1.000  C
  H381     1.0000 0.72793  0.19587  0.13257  Biso   1.000  H
  C500     1.0000 0.66142  0.09165  0.21797  Biso   1.000  C
  C501     1.0000 0.66345  0.04335  0.23477  Biso   1.000  C
  C502     1.0000 0.71152  0.04479  0.23517  Biso   1.000  C
  H382     1.0000 0.74223  0.07587  0.22547  Biso   1.000  H
  C503     1.0000 0.76653  0.95437  0.24067  Biso   1.000  C
  H383     1.0000 0.73573  0.92257  0.23367  Biso   1.000  H
  C504     1.0000 0.81403  0.95577  0.24177  Biso   1.000  C
  H384     1.0000 0.81413  0.92447  0.23647  Biso   1.000  H
  C505     1.0000 0.61523  0.13727  0.19257  Biso   1.000  C
  H385     1.0000 0.58323  0.13587  0.18577  Biso   1.000  H
  C506     1.0000 0.61543  0.09167  0.21167  Biso   1.000  C
  H386     1.0000 0.58383  0.06107  0.22007  Biso   1.000  H
  C507     1.0000 0.71033  0.14297  0.21607  Biso   1.000  C
  H387     1.0000 0.74233  0.14567  0.22677  Biso   1.000  H
  C508     1.0000 0.70783  0.18707  0.19827  Biso   1.000  C
  H388     1.0000 0.73863  0.21957  0.19627  Biso   1.000  H
  C509     1.0000 0.79993  0.02417  0.20567  Biso   1.000  C
  H389     1.0000 0.79363  0.04137  0.17317  Biso   1.000  H
  C510     1.0000 0.84883  0.02367  0.20867  Biso   1.000  C
  H390     1.0000 0.87373  0.04157  0.17737  Biso   1.000  H
  O61      1.0000 0.28001  0.71219  0.49194  Biso   1.000  O
  O62      1.0000 0.22957  0.62596  0.47687  Biso   1.000  O
  C511     1.0000 0.23726  0.67015  0.49388  Biso   1.000  C
  C512     1.0000 0.18945  0.67218  0.51700  Biso   1.000  C
  C513     1.0000 0.19090  0.71180  0.55160  Biso   1.000  C
  H391     1.0000 0.22330  0.73890  0.56530  Biso   1.000  H
  C514     1.0000 0.14590  0.71310  0.56710  Biso   1.000  C
  H392     1.0000 0.14870  0.74210  0.58840  Biso   1.000  H
  C515     1.0000 0.09430  0.63420  0.50880  Biso   1.000  C
  H393     1.0000 0.06210  0.61020  0.49140  Biso   1.000  H
  C516     1.0000 0.13740  0.63190  0.49240  Biso   1.000  C
  H394     1.0000 0.13460  0.60540  0.46590  Biso   1.000  H
  C517     1.0000 0.09689  0.67191  0.55130  Biso   1.000  C
  C518     1.0000 0.04656  0.66988  0.56810  Biso   1.000  C
  C519     1.0000 0.99993  0.62181  0.56850  Biso   1.000  C
  H395     1.0000 0.00030  0.59110  0.55880  Biso   1.000  H
  C520     1.0000 0.85450  0.56680  0.57400  Biso   1.000  C
  H396     1.0000 0.85350  0.59760  0.56700  Biso   1.000  H
  C521     1.0000 0.80840  0.51930  0.57510  Biso   1.000  C
  H397     1.0000 0.77700  0.51920  0.56980  Biso   1.000  H
  C522     1.0000 0.18870  0.71810  0.52590  Biso   1.000  C
  H398     1.0000 0.21930  0.75010  0.51910  Biso   1.000  H
  C523     1.0000 0.14290  0.71790  0.54500  Biso   1.000  C
  H399     1.0000 0.14390  0.74950  0.55340  Biso   1.000  H
  C524     1.0000 0.09930  0.62300  0.54940  Biso   1.000  C
  H400     1.0000 0.07000  0.59100  0.56010  Biso   1.000  H
  C525     1.0000 0.14590  0.62550  0.53160  Biso   1.000  C
  H401     1.0000 0.14760  0.59470  0.52960  Biso   1.000  H
  C526     1.0000 0.89090  0.53340  0.53900  Biso   1.000  C
  H402     1.0000 0.91440  0.53970  0.50650  Biso   1.000  H
  C527     1.0000 0.84150  0.48450  0.54200  Biso   1.000  C
  H403     1.0000 0.83450  0.45960  0.51070  Biso   1.000  H
  O63      1.0000 0.94668  0.04552  0.82527  Biso   1.000  O
  O64      1.0000 0.89624  0.95929  0.81020  Biso   1.000  O
  C528     1.0000 0.90393  0.00348  0.82721  Biso   1.000  C
  C529     1.0000 0.85612  0.00551  0.85033  Biso   1.000  C
  C530     1.0000 0.85757  0.04513  0.88493  Biso   1.000  C
  H404     1.0000 0.88997  0.07223  0.89863  Biso   1.000  H
  C531     1.0000 0.81257  0.04643  0.90043  Biso   1.000  C
  H405     1.0000 0.81537  0.07543  0.92173  Biso   1.000  H
  C532     1.0000 0.76097  0.96753  0.84213  Biso   1.000  C
  H406     1.0000 0.72877  0.94353  0.82473  Biso   1.000  H
  C533     1.0000 0.80407  0.96523  0.82573  Biso   1.000  C
  H407     1.0000 0.80127  0.93873  0.79923  Biso   1.000  H
  C534     1.0000 0.76356  0.00524  0.88463  Biso   1.000  C
  C535     1.0000 0.71323  0.00321  0.90143  Biso   1.000  C
  C536     1.0000 0.66660  0.95514  0.90183  Biso   1.000  C
  H408     1.0000 0.66697  0.92443  0.89213  Biso   1.000  H
  C537     1.0000 0.52117  0.90013  0.90733  Biso   1.000  C
  H409     1.0000 0.52017  0.93093  0.90033  Biso   1.000  H
  C538     1.0000 0.47507  0.85263  0.90843  Biso   1.000  C
  H410     1.0000 0.44367  0.85253  0.90313  Biso   1.000  H
  C539     1.0000 0.85537  0.05143  0.85923  Biso   1.000  C
  H411     1.0000 0.88597  0.08343  0.85243  Biso   1.000  H
  C540     1.0000 0.80957  0.05123  0.87833  Biso   1.000  C
  H412     1.0000 0.81057  0.08283  0.88673  Biso   1.000  H
  C541     1.0000 0.76597  0.95633  0.88273  Biso   1.000  C
  H413     1.0000 0.73667  0.92433  0.89343  Biso   1.000  H
  C542     1.0000 0.81257  0.95883  0.86493  Biso   1.000  C
  H414     1.0000 0.81427  0.92803  0.86293  Biso   1.000  H
  C543     1.0000 0.55757  0.86673  0.87233  Biso   1.000  C
  H415     1.0000 0.58107  0.87303  0.83983  Biso   1.000  H
  C544     1.0000 0.50817  0.81783  0.87533  Biso   1.000  C
  H416     1.0000 0.50117  0.79293  0.84403  Biso   1.000  H
  O65      1.0000 0.61334  0.37886  0.15861  Biso   1.000  O
  O66      1.0000 0.56290  0.29263  0.14354  Biso   1.000  O
  C545     1.0000 0.57059  0.33682  0.16055  Biso   1.000  C
  C546     1.0000 0.52278  0.33885  0.18367  Biso   1.000  C
  C547     1.0000 0.52423  0.37847  0.21827  Biso   1.000  C
  H417     1.0000 0.55663  0.40557  0.23197  Biso   1.000  H
  C548     1.0000 0.47923  0.37977  0.23377  Biso   1.000  C
  H418     1.0000 0.48203  0.40877  0.25507  Biso   1.000  H
  C549     1.0000 0.42763  0.30087  0.17547  Biso   1.000  C
  H419     1.0000 0.39543  0.27687  0.15807  Biso   1.000  H
  C550     1.0000 0.47073  0.29857  0.15907  Biso   1.000  C
  H420     1.0000 0.46793  0.27207  0.13257  Biso   1.000  H
  C551     1.0000 0.43022  0.33858  0.21797  Biso   1.000  C
  C552     1.0000 0.37989  0.33655  0.23477  Biso   1.000  C
  C553     1.0000 0.33326  0.28848  0.23517  Biso   1.000  C
  H421     1.0000 0.33363  0.25777  0.22547  Biso   1.000  H
  C554     1.0000 0.18783  0.23347  0.24067  Biso   1.000  C
  H422     1.0000 0.18683  0.26427  0.23367  Biso   1.000  H
  C555     1.0000 0.14173  0.18597  0.24177  Biso   1.000  C
  H423     1.0000 0.11033  0.18587  0.23647  Biso   1.000  H
  C556     1.0000 0.52203  0.38477  0.19257  Biso   1.000  C
  H424     1.0000 0.55263  0.41677  0.18577  Biso   1.000  H
  C557     1.0000 0.47623  0.38457  0.21167  Biso   1.000  C
  H425     1.0000 0.47723  0.41617  0.22007  Biso   1.000  H
  C558     1.0000 0.43263  0.28967  0.21607  Biso   1.000  C
  H426     1.0000 0.40333  0.25767  0.22677  Biso   1.000  H
  C559     1.0000 0.47923  0.29217  0.19827  Biso   1.000  C
  H427     1.0000 0.48093  0.26137  0.19627  Biso   1.000  H
  C560     1.0000 0.22423  0.20007  0.20567  Biso   1.000  C
  H428     1.0000 0.24773  0.20637  0.17317  Biso   1.000  H
  C561     1.0000 0.17483  0.15117  0.20867  Biso   1.000  C
  H429     1.0000 0.16783  0.12627  0.17737  Biso   1.000  H
  O67      1.0000 0.43218  0.71999  0.49194  Biso   1.000  O
  O68      1.0000 0.39639  0.77043  0.47687  Biso   1.000  O
  C562     1.0000 0.43289  0.76274  0.49388  Biso   1.000  C
  C563     1.0000 0.48273  0.81055  0.51700  Biso   1.000  C
  C564     1.0000 0.52090  0.80910  0.55160  Biso   1.000  C
  H430     1.0000 0.51560  0.77670  0.56530  Biso   1.000  H
  C565     1.0000 0.56720  0.85410  0.56710  Biso   1.000  C
  H431     1.0000 0.59340  0.85130  0.58840  Biso   1.000  H
  C566     1.0000 0.53990  0.90570  0.50880  Biso   1.000  C
  H432     1.0000 0.54810  0.93790  0.49140  Biso   1.000  H
  C567     1.0000 0.49450  0.86260  0.49240  Biso   1.000  C
  H433     1.0000 0.47080  0.86540  0.46590  Biso   1.000  H
  C568     1.0000 0.57502  0.90311  0.55130  Biso   1.000  C
  C569     1.0000 0.62332  0.95344  0.56810  Biso   1.000  C
  C570     1.0000 0.62188  0.00007  0.56850  Biso   1.000  C
  H434     1.0000 0.59080  0.99970  0.55880  Biso   1.000  H
  C571     1.0000 0.71230  0.14550  0.57400  Biso   1.000  C
  H435     1.0000 0.74410  0.14650  0.56700  Biso   1.000  H
  C572     1.0000 0.71090  0.19160  0.57510  Biso   1.000  C
  H436     1.0000 0.74220  0.22300  0.56980  Biso   1.000  H
  C573     1.0000 0.52940  0.81130  0.52590  Biso   1.000  C
  H437     1.0000 0.53080  0.78070  0.51910  Biso   1.000  H
  C574     1.0000 0.57500  0.85710  0.54500  Biso   1.000  C
  H438     1.0000 0.60560  0.85610  0.55340  Biso   1.000  H
  C575     1.0000 0.52370  0.90070  0.54940  Biso   1.000  C
  H439     1.0000 0.52100  0.93000  0.56010  Biso   1.000  H
  C576     1.0000 0.47960  0.85410  0.53160  Biso   1.000  C
  H440     1.0000 0.44710  0.85240  0.52960  Biso   1.000  H
  C577     1.0000 0.64250  0.10910  0.53900  Biso   1.000  C
  H441     1.0000 0.62530  0.08560  0.50650  Biso   1.000  H
  C578     1.0000 0.64300  0.15850  0.54200  Biso   1.000  C
  H442     1.0000 0.62510  0.16550  0.51070  Biso   1.000  H
  O69      1.0000 0.09885  0.05332  0.82527  Biso   1.000  O
  O70      1.0000 0.06306  0.10376  0.81020  Biso   1.000  O
  C579     1.0000 0.09956  0.09607  0.82721  Biso   1.000  C
  C580     1.0000 0.14940  0.14388  0.85033  Biso   1.000  C
  C581     1.0000 0.18757  0.14243  0.88493  Biso   1.000  C
  H443     1.0000 0.18227  0.11003  0.89863  Biso   1.000  H
  C582     1.0000 0.23387  0.18743  0.90043  Biso   1.000  C
  H444     1.0000 0.26007  0.18463  0.92173  Biso   1.000  H
  C583     1.0000 0.20657  0.23903  0.84213  Biso   1.000  C
  H445     1.0000 0.21477  0.27123  0.82473  Biso   1.000  H
  C584     1.0000 0.16117  0.19593  0.82573  Biso   1.000  C
  H446     1.0000 0.13747  0.19873  0.79923  Biso   1.000  H
  C585     1.0000 0.24169  0.23644  0.88463  Biso   1.000  C
  C586     1.0000 0.28999  0.28677  0.90143  Biso   1.000  C
  C587     1.0000 0.28855  0.33340  0.90183  Biso   1.000  C
  H447     1.0000 0.25747  0.33303  0.89213  Biso   1.000  H
  C588     1.0000 0.37897  0.47883  0.90733  Biso   1.000  C
  H448     1.0000 0.41077  0.47983  0.90033  Biso   1.000  H
  C589     1.0000 0.37757  0.52493  0.90843  Biso   1.000  C
  H449     1.0000 0.40887  0.55633  0.90313  Biso   1.000  H
  C590     1.0000 0.19607  0.14463  0.85923  Biso   1.000  C
  H450     1.0000 0.19747  0.11403  0.85243  Biso   1.000  H
  C591     1.0000 0.24167  0.19043  0.87833  Biso   1.000  C
  H451     1.0000 0.27227  0.18943  0.88673  Biso   1.000  H
  C592     1.0000 0.19037  0.23403  0.88273  Biso   1.000  C
  H452     1.0000 0.18767  0.26333  0.89343  Biso   1.000  H
  C593     1.0000 0.14627  0.18743  0.86493  Biso   1.000  C
  H453     1.0000 0.11377  0.18573  0.86293  Biso   1.000  H
  C594     1.0000 0.30917  0.44243  0.87233  Biso   1.000  C
  H454     1.0000 0.29197  0.41893  0.83983  Biso   1.000  H
  C595     1.0000 0.30967  0.49183  0.87533  Biso   1.000  C
  H455     1.0000 0.29177  0.49883  0.84403  Biso   1.000  H
  O71      1.0000 0.76551  0.38666  0.15861  Biso   1.000  O
  O72      1.0000 0.72972  0.43710  0.14354  Biso   1.000  O
  C596     1.0000 0.76622  0.42941  0.16055  Biso   1.000  C
  C597     1.0000 0.81606  0.47722  0.18367  Biso   1.000  C
  C598     1.0000 0.85423  0.47577  0.21827  Biso   1.000  C
  H456     1.0000 0.84893  0.44337  0.23197  Biso   1.000  H
  C599     1.0000 0.90053  0.52077  0.23377  Biso   1.000  C
  H457     1.0000 0.92673  0.51797  0.25507  Biso   1.000  H
  C600     1.0000 0.87323  0.57237  0.17547  Biso   1.000  C
  H458     1.0000 0.88143  0.60457  0.15807  Biso   1.000  H
  C601     1.0000 0.82783  0.52927  0.15907  Biso   1.000  C
  H459     1.0000 0.80413  0.53207  0.13257  Biso   1.000  H
  C602     1.0000 0.90835  0.56978  0.21797  Biso   1.000  C
  C603     1.0000 0.95665  0.62011  0.23477  Biso   1.000  C
  C604     1.0000 0.95521  0.66674  0.23517  Biso   1.000  C
  H460     1.0000 0.92413  0.66637  0.22547  Biso   1.000  H
  C605     1.0000 0.04563  0.81217  0.24067  Biso   1.000  C
  H461     1.0000 0.07743  0.81317  0.23367  Biso   1.000  H
  C606     1.0000 0.04423  0.85827  0.24177  Biso   1.000  C
  H462     1.0000 0.07553  0.88967  0.23647  Biso   1.000  H
  C607     1.0000 0.86273  0.47797  0.19257  Biso   1.000  C
  H463     1.0000 0.86413  0.44737  0.18577  Biso   1.000  H
  C608     1.0000 0.90833  0.52377  0.21167  Biso   1.000  C
  H464     1.0000 0.93893  0.52277  0.22007  Biso   1.000  H
  C609     1.0000 0.85703  0.56737  0.21607  Biso   1.000  C
  H465     1.0000 0.85433  0.59667  0.22677  Biso   1.000  H
  C610     1.0000 0.81293  0.52077  0.19827  Biso   1.000  C
  H466     1.0000 0.78043  0.51907  0.19627  Biso   1.000  H
  C611     1.0000 0.97583  0.77577  0.20567  Biso   1.000  C
  H467     1.0000 0.95863  0.75227  0.17317  Biso   1.000  H
  C612     1.0000 0.97633  0.82517  0.20867  Biso   1.000  C
  H468     1.0000 0.95843  0.83217  0.17737  Biso   1.000  H
  Ni1      1.0000 0.66667  0.40200  0.08333  Biso   1.000  Ni
  N1       1.0000 0.66667  0.47344  0.08333  Biso   1.000  N
  N2       1.0000 0.66667  0.71515  0.08333  Biso   1.000  N
  C613     1.0000 0.66667  0.61957  0.08333  Biso   1.000  C
  C614     1.0000 0.66667  0.56916  0.08333  Biso   1.000  C
  Ni2      1.0000 0.59800  0.26467  0.08333  Biso   1.000  Ni
  N3       1.0000 0.52656  0.19322  0.08333  Biso   1.000  N
  N4       1.0000 0.28485  0.95151  0.08333  Biso   1.000  N
  C615     1.0000 0.38043  0.04709  0.08333  Biso   1.000  C
  C616     1.0000 0.43084  0.09750  0.08333  Biso   1.000  C
  Ni3      1.0000 0.73533  0.33333  0.08333  Biso   1.000  Ni
  N5       1.0000 0.80678  0.33333  0.08333  Biso   1.000  N
  N6       1.0000 0.04849  0.33333  0.08333  Biso   1.000  N
  C617     1.0000 0.95291  0.33333  0.08333  Biso   1.000  C
  C618     1.0000 0.90250  0.33333  0.08333  Biso   1.000  C
  Ni4      1.0000 0.40200  0.66667  0.41667  Biso   1.000  Ni
  N7       1.0000 0.47344  0.66667  0.41667  Biso   1.000  N
  N8       1.0000 0.71515  0.66667  0.41667  Biso   1.000  N
  C619     1.0000 0.61957  0.66667  0.41667  Biso   1.000  C
  C620     1.0000 0.56916  0.66667  0.41667  Biso   1.000  C
  Ni5      1.0000 0.06866  0.00000  0.75000  Biso   1.000  Ni
  N9       1.0000 0.14011  0.00000  0.75000  Biso   1.000  N
  N10      1.0000 0.38182  0.00000  0.75000  Biso   1.000  N
  C621     1.0000 0.28624  0.00000  0.75000  Biso   1.000  C
  C622     1.0000 0.23583  0.00000  0.75000  Biso   1.000  C
  Ni6      1.0000 0.26467  0.59800  0.41667  Biso   1.000  Ni
  N11      1.0000 0.19322  0.52656  0.41667  Biso   1.000  N
  N12      1.0000 0.95151  0.28485  0.41667  Biso   1.000  N
  C623     1.0000 0.04709  0.38043  0.41667  Biso   1.000  C
  C624     1.0000 0.09750  0.43084  0.41667  Biso   1.000  C
  Ni7      1.0000 0.93134  0.93134  0.75000  Biso   1.000  Ni
  N13      1.0000 0.85989  0.85989  0.75000  Biso   1.000  N
  N14      1.0000 0.61818  0.61818  0.75000  Biso   1.000  N
  C625     1.0000 0.71376  0.71376  0.75000  Biso   1.000  C
  C626     1.0000 0.76417  0.76417  0.75000  Biso   1.000  C
  Ni8      1.0000 0.33333  0.73533  0.41667  Biso   1.000  Ni
  N15      1.0000 0.33333  0.80678  0.41667  Biso   1.000  N
  N16      1.0000 0.33333  0.04849  0.41667  Biso   1.000  N
  C627     1.0000 0.33333  0.95291  0.41667  Biso   1.000  C
  C628     1.0000 0.33333  0.90250  0.41667  Biso   1.000  C
  Ni9      1.0000 0.00000  0.06866  0.75000  Biso   1.000  Ni
  N17      1.0000 0.00000  0.14011  0.75000  Biso   1.000  N
  N18      1.0000 0.00000  0.38182  0.75000  Biso   1.000  N
  C629     1.0000 0.00000  0.28624  0.75000  Biso   1.000  C
  C630     1.0000 0.00000  0.23583  0.75000  Biso   1.000  C
  Ni10     1.0000 0.33333  0.59800  0.91667  Biso   1.000  Ni
  N19      1.0000 0.33333  0.52656  0.91667  Biso   1.000  N
  N20      1.0000 0.33333  0.28485  0.91667  Biso   1.000  N
  C631     1.0000 0.33333  0.38043  0.91667  Biso   1.000  C
  C632     1.0000 0.33333  0.43084  0.91667  Biso   1.000  C
  Ni11     1.0000 0.00000  0.93134  0.25000  Biso   1.000  Ni
  N21      1.0000 0.00000  0.85989  0.25000  Biso   1.000  N
  N22      1.0000 0.00000  0.61818  0.25000  Biso   1.000  N
  C633     1.0000 0.00000  0.71376  0.25000  Biso   1.000  C
  C634     1.0000 0.00000  0.76417  0.25000  Biso   1.000  C
  Ni12     1.0000 0.40200  0.73533  0.91667  Biso   1.000  Ni
  N23      1.0000 0.47344  0.80678  0.91667  Biso   1.000  N
  N24      1.0000 0.71515  0.04849  0.91667  Biso   1.000  N
  C635     1.0000 0.61957  0.95291  0.91667  Biso   1.000  C
  C636     1.0000 0.56916  0.90250  0.91667  Biso   1.000  C
  Ni13     1.0000 0.06866  0.06866  0.25000  Biso   1.000  Ni
  N25      1.0000 0.14011  0.14011  0.25000  Biso   1.000  N
  N26      1.0000 0.38182  0.38182  0.25000  Biso   1.000  N
  C637     1.0000 0.28624  0.28624  0.25000  Biso   1.000  C
  C638     1.0000 0.23583  0.23583  0.25000  Biso   1.000  C
  Ni14     1.0000 0.26467  0.66667  0.91667  Biso   1.000  Ni
  N27      1.0000 0.19322  0.66667  0.91667  Biso   1.000  N
  N28      1.0000 0.95151  0.66667  0.91667  Biso   1.000  N
  C639     1.0000 0.04709  0.66667  0.91667  Biso   1.000  C
  C640     1.0000 0.09750  0.66667  0.91667  Biso   1.000  C
  Ni15     1.0000 0.93134  0.00000  0.25000  Biso   1.000  Ni
  N29      1.0000 0.85989  0.00000  0.25000  Biso   1.000  N
  N30      1.0000 0.61818  0.00000  0.25000  Biso   1.000  N
  C641     1.0000 0.71376  0.00000  0.25000  Biso   1.000  C
  C642     1.0000 0.76417  0.00000  0.25000  Biso   1.000  C
  Ni16     1.0000 0.59800  0.33333  0.58333  Biso   1.000  Ni
  N31      1.0000 0.52656  0.33333  0.58333  Biso   1.000  N
  N32      1.0000 0.28485  0.33333  0.58333  Biso   1.000  N
  C643     1.0000 0.38043  0.33333  0.58333  Biso   1.000  C
  C644     1.0000 0.43084  0.33333  0.58333  Biso   1.000  C
  Ni17     1.0000 0.73533  0.40200  0.58333  Biso   1.000  Ni
  N33      1.0000 0.80678  0.47344  0.58333  Biso   1.000  N
  N34      1.0000 0.04849  0.71515  0.58333  Biso   1.000  N
  C645     1.0000 0.95291  0.61957  0.58333  Biso   1.000  C
  C646     1.0000 0.90250  0.56916  0.58333  Biso   1.000  C
  Ni18     1.0000 0.66667  0.26467  0.58333  Biso   1.000  Ni
  N35      1.0000 0.66667  0.19322  0.58333  Biso   1.000  N
  N36      1.0000 0.66667  0.95151  0.58333  Biso   1.000  N
  C647     1.0000 0.66667  0.04709  0.58333  Biso   1.000  C
  C648     1.0000 0.66667  0.09750  0.58333  Biso   1.000  C
  O73      1.0000 0.66667  0.33333  0.08333  Biso   1.000  O
  O74      1.0000 0.00000  0.00000  0.75000  Biso   1.000  O
  O75      1.0000 0.33333  0.66667  0.41667  Biso   1.000  O
  O76      1.0000 0.33333  0.66667  0.91667  Biso   1.000  O
  O77      1.0000 0.00000  0.00000  0.25000  Biso   1.000  O
  O78      1.0000 0.66667  0.33333  0.58333  Biso   1.000  O
  H469     1.0000 0.66667  0.33333  0.03730  Biso   1.000  H
  H470     1.0000 0.33333  0.66667  0.37063  Biso   1.000  H
  H471     1.0000 0.00000  0.00000  0.70397  Biso   1.000  H
  H472     1.0000 0.33333  0.66667  0.46270  Biso   1.000  H
  H473     1.0000 0.00000  0.00000  0.79603  Biso   1.000  H
  H474     1.0000 0.66667  0.33333  0.12937  Biso   1.000  H
  H475     1.0000 0.33333  0.66667  0.96270  Biso   1.000  H
  H476     1.0000 0.00000  0.00000  0.29603  Biso   1.000  H
  H477     1.0000 0.66667  0.33333  0.62937  Biso   1.000  H
  H478     1.0000 0.66667  0.33333  0.53730  Biso   1.000  H
  H479     1.0000 0.33333  0.66667  0.87063  Biso   1.000  H
  H480     1.0000 0.00000  0.00000  0.20397  Biso   1.000  H
