data_image0
_cell_length_a       18.812
_cell_length_b       18.812
_cell_length_c       34.892
_cell_angle_alpha    90
_cell_angle_beta     90
_cell_angle_gamma    120

_symmetry_space_group_name_H-M    "P 1"
_symmetry_int_tables_number       1

loop_
  _symmetry_equiv_pos_as_xyz
  'x, y, z'

loop_
  _atom_site_label
  _atom_site_occupancy
  _atom_site_fract_x
  _atom_site_fract_y
  _atom_site_fract_z
  _atom_site_thermal_displace_type
  _atom_site_B_iso_or_equiv
  _atom_site_type_symbol
  C1       1.0000 0.22760  0.17180  0.93250  Biso   1.000  C
  H1       1.0000 0.20780  0.19940  0.91690  Biso   1.000  H
  C2       1.0000 0.30860  0.21210  0.94690  Biso   1.000  C
  H2       1.0000 0.34310  0.26910  0.94210  Biso   1.000  H
  C3       1.0000 0.28660  0.09480  0.98300  Biso   1.000  C
  H3       1.0000 0.30130  0.07250  0.00390  Biso   1.000  H
  C4       1.0000 0.21040  0.05290  0.96650  Biso   1.000  C
  H4       1.0000 0.17770  0.99580  0.97160  Biso   1.000  H
  C5       1.0000 0.03390  0.96430  0.80630  Biso   1.000  C
  H5       1.0000 0.05830  0.93860  0.82030  Biso   1.000  H
  C6       1.0000 0.03490  0.96310  0.76830  Biso   1.000  C
  H6       1.0000 0.06000  0.93650  0.75570  Biso   1.000  H
  C7       1.0000 0.21020  0.15700  0.96670  Biso   1.000  C
  H7       1.0000 0.17640  0.17960  0.97300  Biso   1.000  H
  C8       1.0000 0.28760  0.19320  0.98220  Biso   1.000  C
  H8       1.0000 0.30390  0.23340  0.00180  Biso   1.000  H
  C9       1.0000 0.30800  0.09560  0.94720  Biso   1.000  C
  H9       1.0000 0.34230  0.07290  0.94240  Biso   1.000  H
  C10      1.0000 0.22660  0.05430  0.93280  Biso   1.000  C
  H10      1.0000 0.20610  0.00620  0.91750  Biso   1.000  H
  C11      1.0000 0.96160  0.03880  0.76490  Biso   1.000  C
  H11      1.0000 0.93760  0.06430  0.75050  Biso   1.000  H
  C12      1.0000 0.95930  0.03910  0.80560  Biso   1.000  C
  H12      1.0000 0.93310  0.06320  0.81940  Biso   1.000  H
  C13      1.0000 0.04360  0.95580  0.94289  Biso   1.000  C
  H13      1.0000 0.07230  0.92680  0.93400  Biso   1.000  H
  H14      1.0000 0.04370  0.95570  0.97130  Biso   1.000  H
  C14      1.0000 0.09000  0.04470  0.92850  Biso   1.000  C
  C15      1.0000 0.08700  0.04360  0.88357  Biso   1.000  C
  H15      1.0000 0.11560  0.10070  0.87380  Biso   1.000  H
  H16      1.0000 0.11600  0.01580  0.87360  Biso   1.000  H
  C16      1.0000 0.17810  0.08920  0.94254  Biso   1.000  C
  C17      1.0000 0.33990  0.16950  0.96835  Biso   1.000  C
  O1       1.0000 0.48250  0.17460  0.96940  Biso   1.000  O
  O2       1.0000 0.48420  0.30840  0.96940  Biso   1.000  O
  O3       1.0000 0.44370  0.22110  0.03140  Biso   1.000  O
  H17      1.0000 0.42240  0.24800  0.03970  Biso   1.000  H
  O4       1.0000 0.95682  0.91283  0.68244  Biso   1.000  O
  P1       1.0000 0.44372  0.22210  0.98700  Biso   1.000  P
  Cu1      1.0000 0.59404  0.18806  0.96703  Biso   1.000  Cu
  C18      1.0000 0.89427  0.50513  0.26583  Biso   1.000  C
  H18      1.0000 0.87447  0.53273  0.25023  Biso   1.000  H
  C19      1.0000 0.97527  0.54543  0.28023  Biso   1.000  C
  H19      1.0000 0.00977  0.60243  0.27543  Biso   1.000  H
  C20      1.0000 0.95327  0.42813  0.31633  Biso   1.000  C
  H20      1.0000 0.96797  0.40583  0.33723  Biso   1.000  H
  C21      1.0000 0.87707  0.38623  0.29983  Biso   1.000  C
  H21      1.0000 0.84437  0.32913  0.30493  Biso   1.000  H
  C22      1.0000 0.70057  0.29763  0.13963  Biso   1.000  C
  H22      1.0000 0.72497  0.27193  0.15363  Biso   1.000  H
  C23      1.0000 0.70157  0.29643  0.10163  Biso   1.000  C
  H23      1.0000 0.72667  0.26983  0.08903  Biso   1.000  H
  C24      1.0000 0.87687  0.49033  0.30003  Biso   1.000  C
  H24      1.0000 0.84307  0.51293  0.30633  Biso   1.000  H
  C25      1.0000 0.95427  0.52653  0.31553  Biso   1.000  C
  H25      1.0000 0.97057  0.56673  0.33513  Biso   1.000  H
  C26      1.0000 0.97467  0.42893  0.28053  Biso   1.000  C
  H26      1.0000 0.00897  0.40623  0.27573  Biso   1.000  H
  C27      1.0000 0.89327  0.38763  0.26613  Biso   1.000  C
  H27      1.0000 0.87277  0.33953  0.25083  Biso   1.000  H
  C28      1.0000 0.62827  0.37213  0.09823  Biso   1.000  C
  H28      1.0000 0.60427  0.39763  0.08383  Biso   1.000  H
  C29      1.0000 0.62597  0.37243  0.13893  Biso   1.000  C
  H29      1.0000 0.59977  0.39653  0.15273  Biso   1.000  H
  C30      1.0000 0.71027  0.28913  0.27622  Biso   1.000  C
  H30      1.0000 0.73897  0.26013  0.26733  Biso   1.000  H
  H31      1.0000 0.71037  0.28903  0.30463  Biso   1.000  H
  C31      1.0000 0.75667  0.37803  0.26183  Biso   1.000  C
  C32      1.0000 0.75367  0.37693  0.21690  Biso   1.000  C
  H32      1.0000 0.78227  0.43403  0.20713  Biso   1.000  H
  H33      1.0000 0.78267  0.34913  0.20693  Biso   1.000  H
  C33      1.0000 0.84477  0.42253  0.27587  Biso   1.000  C
  C34      1.0000 0.00657  0.50283  0.30168  Biso   1.000  C
  O5       1.0000 0.14917  0.50793  0.30273  Biso   1.000  O
  O6       1.0000 0.15087  0.64173  0.30273  Biso   1.000  O
  O7       1.0000 0.11037  0.55443  0.36473  Biso   1.000  O
  H34      1.0000 0.08907  0.58133  0.37303  Biso   1.000  H
  O8       1.0000 0.62349  0.24616  0.01577  Biso   1.000  O
  P2       1.0000 0.11039  0.55543  0.32033  Biso   1.000  P
  Cu2      1.0000 0.26071  0.52139  0.30036  Biso   1.000  Cu
  C35      1.0000 0.56093  0.83847  0.59917  Biso   1.000  C
  H35      1.0000 0.54113  0.86607  0.58357  Biso   1.000  H
  C36      1.0000 0.64193  0.87877  0.61357  Biso   1.000  C
  H36      1.0000 0.67643  0.93577  0.60877  Biso   1.000  H
  C37      1.0000 0.61993  0.76147  0.64967  Biso   1.000  C
  H37      1.0000 0.63463  0.73917  0.67057  Biso   1.000  H
  C38      1.0000 0.54373  0.71957  0.63317  Biso   1.000  C
  H38      1.0000 0.51103  0.66247  0.63827  Biso   1.000  H
  C39      1.0000 0.36723  0.63097  0.47297  Biso   1.000  C
  H39      1.0000 0.39163  0.60527  0.48697  Biso   1.000  H
  C40      1.0000 0.36823  0.62977  0.43497  Biso   1.000  C
  H40      1.0000 0.39333  0.60317  0.42237  Biso   1.000  H
  C41      1.0000 0.54353  0.82367  0.63337  Biso   1.000  C
  H41      1.0000 0.50973  0.84627  0.63967  Biso   1.000  H
  C42      1.0000 0.62093  0.85987  0.64887  Biso   1.000  C
  H42      1.0000 0.63723  0.90007  0.66847  Biso   1.000  H
  C43      1.0000 0.64133  0.76227  0.61387  Biso   1.000  C
  H43      1.0000 0.67563  0.73957  0.60907  Biso   1.000  H
  C44      1.0000 0.55993  0.72097  0.59947  Biso   1.000  C
  H44      1.0000 0.53943  0.67287  0.58417  Biso   1.000  H
  C45      1.0000 0.29493  0.70547  0.43157  Biso   1.000  C
  H45      1.0000 0.27093  0.73097  0.41717  Biso   1.000  H
  C46      1.0000 0.29263  0.70577  0.47227  Biso   1.000  C
  H46      1.0000 0.26643  0.72987  0.48607  Biso   1.000  H
  C47      1.0000 0.37693  0.62247  0.60956  Biso   1.000  C
  H47      1.0000 0.40563  0.59347  0.60067  Biso   1.000  H
  H48      1.0000 0.37703  0.62237  0.63797  Biso   1.000  H
  C48      1.0000 0.42333  0.71137  0.59517  Biso   1.000  C
  C49      1.0000 0.42033  0.71027  0.55024  Biso   1.000  C
  H49      1.0000 0.44893  0.76737  0.54047  Biso   1.000  H
  H50      1.0000 0.44933  0.68247  0.54027  Biso   1.000  H
  C50      1.0000 0.51143  0.75587  0.60921  Biso   1.000  C
  C51      1.0000 0.67323  0.83617  0.63502  Biso   1.000  C
  O9       1.0000 0.81583  0.84127  0.63607  Biso   1.000  O
  O10      1.0000 0.81753  0.97507  0.63607  Biso   1.000  O
  O11      1.0000 0.77703  0.88777  0.69807  Biso   1.000  O
  H51      1.0000 0.75573  0.91467  0.70637  Biso   1.000  H
  O12      1.0000 0.29015  0.57950  0.34911  Biso   1.000  O
  P3       1.0000 0.77705  0.88877  0.65367  Biso   1.000  P
  Cu3      1.0000 0.92737  0.85473  0.63370  Biso   1.000  Cu
  C52      1.0000 0.82820  0.05580  0.93250  Biso   1.000  C
  H52      1.0000 0.80060  0.00840  0.91690  Biso   1.000  H
  C53      1.0000 0.78790  0.09650  0.94690  Biso   1.000  C
  H53      1.0000 0.73090  0.07400  0.94210  Biso   1.000  H
  C54      1.0000 0.90520  0.19180  0.98300  Biso   1.000  C
  H54      1.0000 0.92750  0.22880  0.00390  Biso   1.000  H
  C55      1.0000 0.94710  0.15750  0.96650  Biso   1.000  C
  H55      1.0000 0.00420  0.18190  0.97160  Biso   1.000  H
  C56      1.0000 0.03570  0.06960  0.80630  Biso   1.000  C
  H56      1.0000 0.06140  0.11970  0.82030  Biso   1.000  H
  C57      1.0000 0.03690  0.07180  0.76830  Biso   1.000  C
  H57      1.0000 0.06350  0.12350  0.75570  Biso   1.000  H
  C58      1.0000 0.84300  0.05320  0.96670  Biso   1.000  C
  H58      1.0000 0.82040  0.99680  0.97300  Biso   1.000  H
  C59      1.0000 0.80680  0.09440  0.98220  Biso   1.000  C
  H59      1.0000 0.76660  0.07050  0.00180  Biso   1.000  H
  C60      1.0000 0.90440  0.21240  0.94720  Biso   1.000  C
  H60      1.0000 0.92710  0.26940  0.94240  Biso   1.000  H
  C61      1.0000 0.94570  0.17230  0.93280  Biso   1.000  C
  H61      1.0000 0.99380  0.19990  0.91750  Biso   1.000  H
  C62      1.0000 0.96120  0.92280  0.76490  Biso   1.000  C
  H62      1.0000 0.93570  0.87330  0.75050  Biso   1.000  H
  C63      1.0000 0.96090  0.92020  0.80560  Biso   1.000  C
  H63      1.0000 0.93680  0.86990  0.81940  Biso   1.000  H
  C64      1.0000 0.04420  0.08780  0.94289  Biso   1.000  C
  H64      1.0000 0.07320  0.14550  0.93400  Biso   1.000  H
  H65      1.0000 0.04430  0.08800  0.97130  Biso   1.000  H
  C65      1.0000 0.95530  0.04530  0.92850  Biso   1.000  C
  C66      1.0000 0.95640  0.04340  0.88357  Biso   1.000  C
  H66      1.0000 0.89930  0.01490  0.87380  Biso   1.000  H
  H67      1.0000 0.98420  0.10020  0.87360  Biso   1.000  H
  C67      1.0000 0.91080  0.08890  0.94254  Biso   1.000  C
  C68      1.0000 0.83050  0.17040  0.96835  Biso   1.000  C
  O13      1.0000 0.82540  0.30790  0.96940  Biso   1.000  O
  O14      1.0000 0.69160  0.17580  0.96940  Biso   1.000  O
  O15      1.0000 0.77890  0.22260  0.03140  Biso   1.000  O
  H68      1.0000 0.75200  0.17440  0.03970  Biso   1.000  H
  O16      1.0000 0.08717  0.04399  0.68244  Biso   1.000  O
  P4       1.0000 0.77790  0.22162  0.98700  Biso   1.000  P
  Cu4      1.0000 0.81194  0.40598  0.96703  Biso   1.000  Cu
  C69      1.0000 0.49487  0.38913  0.26583  Biso   1.000  C
  H69      1.0000 0.46727  0.34173  0.25023  Biso   1.000  H
  C70      1.0000 0.45457  0.42983  0.28023  Biso   1.000  C
  H70      1.0000 0.39757  0.40733  0.27543  Biso   1.000  H
  C71      1.0000 0.57187  0.52513  0.31633  Biso   1.000  C
  H71      1.0000 0.59417  0.56213  0.33723  Biso   1.000  H
  C72      1.0000 0.61377  0.49083  0.29983  Biso   1.000  C
  H72      1.0000 0.67087  0.51523  0.30493  Biso   1.000  H
  C73      1.0000 0.70237  0.40293  0.13963  Biso   1.000  C
  H73      1.0000 0.72807  0.45303  0.15363  Biso   1.000  H
  C74      1.0000 0.70357  0.40513  0.10163  Biso   1.000  C
  H74      1.0000 0.73017  0.45683  0.08903  Biso   1.000  H
  C75      1.0000 0.50967  0.38653  0.30003  Biso   1.000  C
  H75      1.0000 0.48707  0.33013  0.30633  Biso   1.000  H
  C76      1.0000 0.47347  0.42773  0.31553  Biso   1.000  C
  H76      1.0000 0.43327  0.40383  0.33513  Biso   1.000  H
  C77      1.0000 0.57107  0.54573  0.28053  Biso   1.000  C
  H77      1.0000 0.59377  0.60273  0.27573  Biso   1.000  H
  C78      1.0000 0.61237  0.50563  0.26613  Biso   1.000  C
  H78      1.0000 0.66047  0.53323  0.25083  Biso   1.000  H
  C79      1.0000 0.62787  0.25613  0.09823  Biso   1.000  C
  H79      1.0000 0.60237  0.20663  0.08383  Biso   1.000  H
  C80      1.0000 0.62757  0.25353  0.13893  Biso   1.000  C
  H80      1.0000 0.60347  0.20323  0.15273  Biso   1.000  H
  C81      1.0000 0.71087  0.42113  0.27622  Biso   1.000  C
  H81      1.0000 0.73987  0.47883  0.26733  Biso   1.000  H
  H82      1.0000 0.71097  0.42133  0.30463  Biso   1.000  H
  C82      1.0000 0.62197  0.37863  0.26183  Biso   1.000  C
  C83      1.0000 0.62307  0.37673  0.21690  Biso   1.000  C
  H83      1.0000 0.56597  0.34823  0.20713  Biso   1.000  H
  H84      1.0000 0.65087  0.43353  0.20693  Biso   1.000  H
  C84      1.0000 0.57747  0.42223  0.27587  Biso   1.000  C
  C85      1.0000 0.49717  0.50373  0.30168  Biso   1.000  C
  O17      1.0000 0.49207  0.64123  0.30273  Biso   1.000  O
  O18      1.0000 0.35827  0.50913  0.30273  Biso   1.000  O
  O19      1.0000 0.44557  0.55593  0.36473  Biso   1.000  O
  H85      1.0000 0.41867  0.50773  0.37303  Biso   1.000  H
  O20      1.0000 0.75384  0.37732  0.01577  Biso   1.000  O
  P5       1.0000 0.44457  0.55495  0.32033  Biso   1.000  P
  Cu5      1.0000 0.47861  0.73931  0.30036  Biso   1.000  Cu
  C86      1.0000 0.16153  0.72247  0.59917  Biso   1.000  C
  H86      1.0000 0.13393  0.67507  0.58357  Biso   1.000  H
  C87      1.0000 0.12123  0.76317  0.61357  Biso   1.000  C
  H87      1.0000 0.06423  0.74067  0.60877  Biso   1.000  H
  C88      1.0000 0.23853  0.85847  0.64967  Biso   1.000  C
  H88      1.0000 0.26083  0.89547  0.67057  Biso   1.000  H
  C89      1.0000 0.28043  0.82417  0.63317  Biso   1.000  C
  H89      1.0000 0.33753  0.84857  0.63827  Biso   1.000  H
  C90      1.0000 0.36903  0.73627  0.47297  Biso   1.000  C
  H90      1.0000 0.39473  0.78637  0.48697  Biso   1.000  H
  C91      1.0000 0.37023  0.73847  0.43497  Biso   1.000  C
  H91      1.0000 0.39683  0.79017  0.42237  Biso   1.000  H
  C92      1.0000 0.17633  0.71987  0.63337  Biso   1.000  C
  H92      1.0000 0.15373  0.66347  0.63967  Biso   1.000  H
  C93      1.0000 0.14013  0.76107  0.64887  Biso   1.000  C
  H93      1.0000 0.09993  0.73717  0.66847  Biso   1.000  H
  C94      1.0000 0.23773  0.87907  0.61387  Biso   1.000  C
  H94      1.0000 0.26043  0.93607  0.60907  Biso   1.000  H
  C95      1.0000 0.27903  0.83897  0.59947  Biso   1.000  C
  H95      1.0000 0.32713  0.86657  0.58417  Biso   1.000  H
  C96      1.0000 0.29453  0.58947  0.43157  Biso   1.000  C
  H96      1.0000 0.26903  0.53997  0.41717  Biso   1.000  H
  C97      1.0000 0.29423  0.58687  0.47227  Biso   1.000  C
  H97      1.0000 0.27013  0.53657  0.48607  Biso   1.000  H
  C98      1.0000 0.37753  0.75447  0.60956  Biso   1.000  C
  H98      1.0000 0.40653  0.81217  0.60067  Biso   1.000  H
  H99      1.0000 0.37763  0.75467  0.63797  Biso   1.000  H
  C99      1.0000 0.28863  0.71197  0.59517  Biso   1.000  C
  C100     1.0000 0.28973  0.71007  0.55024  Biso   1.000  C
  H100     1.0000 0.23263  0.68157  0.54047  Biso   1.000  H
  H101     1.0000 0.31753  0.76687  0.54027  Biso   1.000  H
  C101     1.0000 0.24413  0.75557  0.60921  Biso   1.000  C
  C102     1.0000 0.16383  0.83707  0.63502  Biso   1.000  C
  O21      1.0000 0.15873  0.97457  0.63607  Biso   1.000  O
  O22      1.0000 0.02493  0.84247  0.63607  Biso   1.000  O
  O23      1.0000 0.11223  0.88927  0.69807  Biso   1.000  O
  H102     1.0000 0.08533  0.84107  0.70637  Biso   1.000  H
  O24      1.0000 0.42050  0.71066  0.34911  Biso   1.000  O
  P6       1.0000 0.11123  0.88829  0.65367  Biso   1.000  P
  Cu6      1.0000 0.14527  0.07265  0.63370  Biso   1.000  Cu
  C103     1.0000 0.94420  0.77240  0.93250  Biso   1.000  C
  H103     1.0000 0.99160  0.79220  0.91690  Biso   1.000  H
  C104     1.0000 0.90350  0.69140  0.94690  Biso   1.000  C
  H104     1.0000 0.92600  0.65690  0.94210  Biso   1.000  H
  C105     1.0000 0.80820  0.71340  0.98300  Biso   1.000  C
  H105     1.0000 0.77120  0.69870  0.00390  Biso   1.000  H
  C106     1.0000 0.84250  0.78960  0.96650  Biso   1.000  C
  H106     1.0000 0.81810  0.82230  0.97160  Biso   1.000  H
  C107     1.0000 0.93040  0.96610  0.80630  Biso   1.000  C
  H107     1.0000 0.88030  0.94170  0.82030  Biso   1.000  H
  C108     1.0000 0.92820  0.96510  0.76830  Biso   1.000  C
  H108     1.0000 0.87650  0.94000  0.75570  Biso   1.000  H
  C109     1.0000 0.94680  0.78980  0.96670  Biso   1.000  C
  H109     1.0000 0.00320  0.82360  0.97300  Biso   1.000  H
  C110     1.0000 0.90560  0.71240  0.98220  Biso   1.000  C
  H110     1.0000 0.92950  0.69610  0.00180  Biso   1.000  H
  C111     1.0000 0.78760  0.69200  0.94720  Biso   1.000  C
  H111     1.0000 0.73060  0.65770  0.94240  Biso   1.000  H
  C112     1.0000 0.82770  0.77340  0.93280  Biso   1.000  C
  H112     1.0000 0.80010  0.79390  0.91750  Biso   1.000  H
  C113     1.0000 0.07720  0.03840  0.76490  Biso   1.000  C
  H113     1.0000 0.12670  0.06240  0.75050  Biso   1.000  H
  C114     1.0000 0.07980  0.04070  0.80560  Biso   1.000  C
  H114     1.0000 0.13010  0.06690  0.81940  Biso   1.000  H
  C115     1.0000 0.91220  0.95640  0.94289  Biso   1.000  C
  H115     1.0000 0.85450  0.92770  0.93400  Biso   1.000  H
  H116     1.0000 0.91200  0.95630  0.97130  Biso   1.000  H
  C116     1.0000 0.95470  0.91000  0.92850  Biso   1.000  C
  C117     1.0000 0.95660  0.91300  0.88357  Biso   1.000  C
  H117     1.0000 0.98510  0.88440  0.87380  Biso   1.000  H
  H118     1.0000 0.89980  0.88400  0.87360  Biso   1.000  H
  C118     1.0000 0.91110  0.82190  0.94254  Biso   1.000  C
  C119     1.0000 0.82960  0.66010  0.96835  Biso   1.000  C
  O25      1.0000 0.69210  0.51750  0.96940  Biso   1.000  O
  O26      1.0000 0.82420  0.51580  0.96940  Biso   1.000  O
  O27      1.0000 0.77740  0.55630  0.03140  Biso   1.000  O
  H119     1.0000 0.82560  0.57760  0.03970  Biso   1.000  H
  O28      1.0000 0.95601  0.04318  0.68244  Biso   1.000  O
  P7       1.0000 0.77838  0.55628  0.98700  Biso   1.000  P
  Cu7      1.0000 0.59402  0.40596  0.96703  Biso   1.000  Cu
  C120     1.0000 0.61087  0.10573  0.26583  Biso   1.000  C
  H120     1.0000 0.65827  0.12553  0.25023  Biso   1.000  H
  C121     1.0000 0.57017  0.02473  0.28023  Biso   1.000  C
  H121     1.0000 0.59267  0.99023  0.27543  Biso   1.000  H
  C122     1.0000 0.47487  0.04673  0.31633  Biso   1.000  C
  H122     1.0000 0.43787  0.03203  0.33723  Biso   1.000  H
  C123     1.0000 0.50917  0.12293  0.29983  Biso   1.000  C
  H123     1.0000 0.48477  0.15563  0.30493  Biso   1.000  H
  C124     1.0000 0.59707  0.29943  0.13963  Biso   1.000  C
  H124     1.0000 0.54697  0.27503  0.15363  Biso   1.000  H
  C125     1.0000 0.59487  0.29843  0.10163  Biso   1.000  C
  H125     1.0000 0.54317  0.27333  0.08903  Biso   1.000  H
  C126     1.0000 0.61347  0.12313  0.30003  Biso   1.000  C
  H126     1.0000 0.66987  0.15693  0.30633  Biso   1.000  H
  C127     1.0000 0.57227  0.04573  0.31553  Biso   1.000  C
  H127     1.0000 0.59617  0.02943  0.33513  Biso   1.000  H
  C128     1.0000 0.45427  0.02533  0.28053  Biso   1.000  C
  H128     1.0000 0.39727  0.99103  0.27573  Biso   1.000  H
  C129     1.0000 0.49437  0.10673  0.26613  Biso   1.000  C
  H129     1.0000 0.46677  0.12723  0.25083  Biso   1.000  H
  C130     1.0000 0.74387  0.37173  0.09823  Biso   1.000  C
  H130     1.0000 0.79337  0.39573  0.08383  Biso   1.000  H
  C131     1.0000 0.74647  0.37403  0.13893  Biso   1.000  C
  H131     1.0000 0.79677  0.40023  0.15273  Biso   1.000  H
  C132     1.0000 0.57887  0.28973  0.27622  Biso   1.000  C
  H132     1.0000 0.52117  0.26103  0.26733  Biso   1.000  H
  H133     1.0000 0.57867  0.28963  0.30463  Biso   1.000  H
  C133     1.0000 0.62137  0.24333  0.26183  Biso   1.000  C
  C134     1.0000 0.62327  0.24633  0.21690  Biso   1.000  C
  H134     1.0000 0.65177  0.21773  0.20713  Biso   1.000  H
  H135     1.0000 0.56647  0.21733  0.20693  Biso   1.000  H
  C135     1.0000 0.57777  0.15523  0.27587  Biso   1.000  C
  C136     1.0000 0.49627  0.99343  0.30168  Biso   1.000  C
  O29      1.0000 0.35877  0.85083  0.30273  Biso   1.000  O
  O30      1.0000 0.49087  0.84913  0.30273  Biso   1.000  O
  O31      1.0000 0.44407  0.88963  0.36473  Biso   1.000  O
  H136     1.0000 0.49227  0.91093  0.37303  Biso   1.000  H
  O32      1.0000 0.62268  0.37651  0.01577  Biso   1.000  O
  P8       1.0000 0.44505  0.88961  0.32033  Biso   1.000  P
  Cu8      1.0000 0.26069  0.73929  0.30036  Biso   1.000  Cu
  C137     1.0000 0.27753  0.43907  0.59917  Biso   1.000  C
  H137     1.0000 0.32493  0.45887  0.58357  Biso   1.000  H
  C138     1.0000 0.23683  0.35807  0.61357  Biso   1.000  C
  H138     1.0000 0.25933  0.32357  0.60877  Biso   1.000  H
  C139     1.0000 0.14153  0.38007  0.64967  Biso   1.000  C
  H139     1.0000 0.10453  0.36537  0.67057  Biso   1.000  H
  C140     1.0000 0.17583  0.45627  0.63317  Biso   1.000  C
  H140     1.0000 0.15143  0.48897  0.63827  Biso   1.000  H
  C141     1.0000 0.26373  0.63277  0.47297  Biso   1.000  C
  H141     1.0000 0.21363  0.60837  0.48697  Biso   1.000  H
  C142     1.0000 0.26153  0.63177  0.43497  Biso   1.000  C
  H142     1.0000 0.20983  0.60667  0.42237  Biso   1.000  H
  C143     1.0000 0.28013  0.45647  0.63337  Biso   1.000  C
  H143     1.0000 0.33653  0.49027  0.63967  Biso   1.000  H
  C144     1.0000 0.23893  0.37907  0.64887  Biso   1.000  C
  H144     1.0000 0.26283  0.36277  0.66847  Biso   1.000  H
  C145     1.0000 0.12093  0.35867  0.61387  Biso   1.000  C
  H145     1.0000 0.06393  0.32437  0.60907  Biso   1.000  H
  C146     1.0000 0.16103  0.44007  0.59947  Biso   1.000  C
  H146     1.0000 0.13343  0.46057  0.58417  Biso   1.000  H
  C147     1.0000 0.41053  0.70507  0.43157  Biso   1.000  C
  H147     1.0000 0.46003  0.72907  0.41717  Biso   1.000  H
  C148     1.0000 0.41313  0.70737  0.47227  Biso   1.000  C
  H148     1.0000 0.46343  0.73357  0.48607  Biso   1.000  H
  C149     1.0000 0.24553  0.62307  0.60956  Biso   1.000  C
  H149     1.0000 0.18783  0.59437  0.60067  Biso   1.000  H
  H150     1.0000 0.24533  0.62297  0.63797  Biso   1.000  H
  C150     1.0000 0.28803  0.57667  0.59517  Biso   1.000  C
  C151     1.0000 0.28993  0.57967  0.55024  Biso   1.000  C
  H151     1.0000 0.31843  0.55107  0.54047  Biso   1.000  H
  H152     1.0000 0.23313  0.55067  0.54027  Biso   1.000  H
  C152     1.0000 0.24443  0.48857  0.60921  Biso   1.000  C
  C153     1.0000 0.16293  0.32677  0.63502  Biso   1.000  C
  O33      1.0000 0.02543  0.18417  0.63607  Biso   1.000  O
  O34      1.0000 0.15753  0.18247  0.63607  Biso   1.000  O
  O35      1.0000 0.11073  0.22297  0.69807  Biso   1.000  O
  H153     1.0000 0.15893  0.24427  0.70637  Biso   1.000  H
  O36      1.0000 0.28934  0.70985  0.34911  Biso   1.000  O
  P9       1.0000 0.11171  0.22295  0.65367  Biso   1.000  P
  Cu9      1.0000 0.92735  0.07263  0.63370  Biso   1.000  Cu
  C154     1.0000 0.00000  0.00000  0.86930  Biso   1.000  C
  C155     1.0000 0.00000  0.00000  0.82520  Biso   1.000  C
  C156     1.0000 0.00000  0.00000  0.74590  Biso   1.000  C
  P10      1.0000 0.00000  0.00000  0.69402  Biso   1.000  P
  C157     1.0000 0.66667  0.33333  0.20263  Biso   1.000  C
  C158     1.0000 0.66667  0.33333  0.15853  Biso   1.000  C
  C159     1.0000 0.66667  0.33333  0.07923  Biso   1.000  C
  P11      1.0000 0.66667  0.33333  0.02735  Biso   1.000  P
  C160     1.0000 0.33333  0.66667  0.53597  Biso   1.000  C
  C161     1.0000 0.33333  0.66667  0.49187  Biso   1.000  C
  C162     1.0000 0.33333  0.66667  0.41257  Biso   1.000  C
  P12      1.0000 0.33333  0.66667  0.36069  Biso   1.000  P
  C163     1.0000 0.77240  0.82820  0.06750  Biso   1.000  C
  H154     1.0000 0.79220  0.80060  0.08310  Biso   1.000  H
  C164     1.0000 0.69140  0.78790  0.05310  Biso   1.000  C
  H155     1.0000 0.65690  0.73090  0.05790  Biso   1.000  H
  C165     1.0000 0.71340  0.90520  0.01700  Biso   1.000  C
  H156     1.0000 0.69870  0.92750  0.99610  Biso   1.000  H
  C166     1.0000 0.78960  0.94710  0.03350  Biso   1.000  C
  H157     1.0000 0.82230  0.00420  0.02840  Biso   1.000  H
  C167     1.0000 0.96610  0.03570  0.19370  Biso   1.000  C
  H158     1.0000 0.94170  0.06140  0.17970  Biso   1.000  H
  C168     1.0000 0.96510  0.03690  0.23170  Biso   1.000  C
  H159     1.0000 0.94000  0.06350  0.24430  Biso   1.000  H
  C169     1.0000 0.78980  0.84300  0.03330  Biso   1.000  C
  H160     1.0000 0.82360  0.82040  0.02700  Biso   1.000  H
  C170     1.0000 0.71240  0.80680  0.01780  Biso   1.000  C
  H161     1.0000 0.69610  0.76660  0.99820  Biso   1.000  H
  C171     1.0000 0.69200  0.90440  0.05280  Biso   1.000  C
  H162     1.0000 0.65770  0.92710  0.05760  Biso   1.000  H
  C172     1.0000 0.77340  0.94570  0.06720  Biso   1.000  C
  H163     1.0000 0.79390  0.99380  0.08250  Biso   1.000  H
  C173     1.0000 0.03840  0.96120  0.23510  Biso   1.000  C
  H164     1.0000 0.06240  0.93570  0.24950  Biso   1.000  H
  C174     1.0000 0.04070  0.96090  0.19440  Biso   1.000  C
  H165     1.0000 0.06690  0.93680  0.18060  Biso   1.000  H
  C175     1.0000 0.95640  0.04420  0.05711  Biso   1.000  C
  H166     1.0000 0.92770  0.07320  0.06600  Biso   1.000  H
  H167     1.0000 0.95630  0.04430  0.02870  Biso   1.000  H
  C176     1.0000 0.91000  0.95530  0.07150  Biso   1.000  C
  C177     1.0000 0.91300  0.95640  0.11643  Biso   1.000  C
  H168     1.0000 0.88440  0.89930  0.12620  Biso   1.000  H
  H169     1.0000 0.88400  0.98420  0.12640  Biso   1.000  H
  C178     1.0000 0.82190  0.91080  0.05746  Biso   1.000  C
  C179     1.0000 0.66010  0.83050  0.03165  Biso   1.000  C
  O37      1.0000 0.51750  0.82540  0.03060  Biso   1.000  O
  O38      1.0000 0.51580  0.69160  0.03060  Biso   1.000  O
  O39      1.0000 0.55630  0.77890  0.96860  Biso   1.000  O
  H170     1.0000 0.57760  0.75200  0.96030  Biso   1.000  H
  O40      1.0000 0.04318  0.08717  0.31756  Biso   1.000  O
  P13      1.0000 0.55628  0.77790  0.01300  Biso   1.000  P
  Cu10     1.0000 0.40596  0.81194  0.03297  Biso   1.000  Cu
  C180     1.0000 0.43907  0.16153  0.40083  Biso   1.000  C
  H171     1.0000 0.45887  0.13393  0.41643  Biso   1.000  H
  C181     1.0000 0.35807  0.12123  0.38643  Biso   1.000  C
  H172     1.0000 0.32357  0.06423  0.39123  Biso   1.000  H
  C182     1.0000 0.38007  0.23853  0.35033  Biso   1.000  C
  H173     1.0000 0.36537  0.26083  0.32943  Biso   1.000  H
  C183     1.0000 0.45627  0.28043  0.36683  Biso   1.000  C
  H174     1.0000 0.48897  0.33753  0.36173  Biso   1.000  H
  C184     1.0000 0.63277  0.36903  0.52703  Biso   1.000  C
  H175     1.0000 0.60837  0.39473  0.51303  Biso   1.000  H
  C185     1.0000 0.63177  0.37023  0.56503  Biso   1.000  C
  H176     1.0000 0.60667  0.39683  0.57763  Biso   1.000  H
  C186     1.0000 0.45647  0.17633  0.36663  Biso   1.000  C
  H177     1.0000 0.49027  0.15373  0.36033  Biso   1.000  H
  C187     1.0000 0.37907  0.14013  0.35113  Biso   1.000  C
  H178     1.0000 0.36277  0.09993  0.33153  Biso   1.000  H
  C188     1.0000 0.35867  0.23773  0.38613  Biso   1.000  C
  H179     1.0000 0.32437  0.26043  0.39093  Biso   1.000  H
  C189     1.0000 0.44007  0.27903  0.40053  Biso   1.000  C
  H180     1.0000 0.46057  0.32713  0.41583  Biso   1.000  H
  C190     1.0000 0.70507  0.29453  0.56843  Biso   1.000  C
  H181     1.0000 0.72907  0.26903  0.58283  Biso   1.000  H
  C191     1.0000 0.70737  0.29423  0.52773  Biso   1.000  C
  H182     1.0000 0.73357  0.27013  0.51393  Biso   1.000  H
  C192     1.0000 0.62307  0.37753  0.39044  Biso   1.000  C
  H183     1.0000 0.59437  0.40653  0.39933  Biso   1.000  H
  H184     1.0000 0.62297  0.37763  0.36203  Biso   1.000  H
  C193     1.0000 0.57667  0.28863  0.40483  Biso   1.000  C
  C194     1.0000 0.57967  0.28973  0.44976  Biso   1.000  C
  H185     1.0000 0.55107  0.23263  0.45953  Biso   1.000  H
  H186     1.0000 0.55067  0.31753  0.45973  Biso   1.000  H
  C195     1.0000 0.48857  0.24413  0.39079  Biso   1.000  C
  C196     1.0000 0.32677  0.16383  0.36498  Biso   1.000  C
  O41      1.0000 0.18417  0.15873  0.36393  Biso   1.000  O
  O42      1.0000 0.18247  0.02493  0.36393  Biso   1.000  O
  O43      1.0000 0.22297  0.11223  0.30193  Biso   1.000  O
  H187     1.0000 0.24427  0.08533  0.29363  Biso   1.000  H
  O44      1.0000 0.70985  0.42050  0.65089  Biso   1.000  O
  P14      1.0000 0.22295  0.11123  0.34633  Biso   1.000  P
  Cu11     1.0000 0.07263  0.14527  0.36630  Biso   1.000  Cu
  C197     1.0000 0.10573  0.49487  0.73417  Biso   1.000  C
  H188     1.0000 0.12553  0.46727  0.74977  Biso   1.000  H
  C198     1.0000 0.02473  0.45457  0.71977  Biso   1.000  C
  H189     1.0000 0.99023  0.39757  0.72457  Biso   1.000  H
  C199     1.0000 0.04673  0.57187  0.68367  Biso   1.000  C
  H190     1.0000 0.03203  0.59417  0.66277  Biso   1.000  H
  C200     1.0000 0.12293  0.61377  0.70017  Biso   1.000  C
  H191     1.0000 0.15563  0.67087  0.69507  Biso   1.000  H
  C201     1.0000 0.29943  0.70237  0.86037  Biso   1.000  C
  H192     1.0000 0.27503  0.72807  0.84637  Biso   1.000  H
  C202     1.0000 0.29843  0.70357  0.89837  Biso   1.000  C
  H193     1.0000 0.27333  0.73017  0.91097  Biso   1.000  H
  C203     1.0000 0.12313  0.50967  0.69997  Biso   1.000  C
  H194     1.0000 0.15693  0.48707  0.69367  Biso   1.000  H
  C204     1.0000 0.04573  0.47347  0.68447  Biso   1.000  C
  H195     1.0000 0.02943  0.43327  0.66487  Biso   1.000  H
  C205     1.0000 0.02533  0.57107  0.71947  Biso   1.000  C
  H196     1.0000 0.99103  0.59377  0.72427  Biso   1.000  H
  C206     1.0000 0.10673  0.61237  0.73387  Biso   1.000  C
  H197     1.0000 0.12723  0.66047  0.74917  Biso   1.000  H
  C207     1.0000 0.37173  0.62787  0.90177  Biso   1.000  C
  H198     1.0000 0.39573  0.60237  0.91617  Biso   1.000  H
  C208     1.0000 0.37403  0.62757  0.86107  Biso   1.000  C
  H199     1.0000 0.40023  0.60347  0.84727  Biso   1.000  H
  C209     1.0000 0.28973  0.71087  0.72378  Biso   1.000  C
  H200     1.0000 0.26103  0.73987  0.73267  Biso   1.000  H
  H201     1.0000 0.28963  0.71097  0.69537  Biso   1.000  H
  C210     1.0000 0.24333  0.62197  0.73817  Biso   1.000  C
  C211     1.0000 0.24633  0.62307  0.78310  Biso   1.000  C
  H202     1.0000 0.21773  0.56597  0.79287  Biso   1.000  H
  H203     1.0000 0.21733  0.65087  0.79307  Biso   1.000  H
  C212     1.0000 0.15523  0.57747  0.72413  Biso   1.000  C
  C213     1.0000 0.99343  0.49717  0.69832  Biso   1.000  C
  O45      1.0000 0.85083  0.49207  0.69727  Biso   1.000  O
  O46      1.0000 0.84913  0.35827  0.69727  Biso   1.000  O
  O47      1.0000 0.88963  0.44557  0.63527  Biso   1.000  O
  H204     1.0000 0.91093  0.41867  0.62697  Biso   1.000  H
  O48      1.0000 0.37651  0.75384  0.98423  Biso   1.000  O
  P15      1.0000 0.88961  0.44457  0.67967  Biso   1.000  P
  Cu12     1.0000 0.73929  0.47861  0.69964  Biso   1.000  Cu
  C214     1.0000 0.17180  0.94420  0.06750  Biso   1.000  C
  H205     1.0000 0.19940  0.99160  0.08310  Biso   1.000  H
  C215     1.0000 0.21210  0.90350  0.05310  Biso   1.000  C
  H206     1.0000 0.26910  0.92600  0.05790  Biso   1.000  H
  C216     1.0000 0.09480  0.80820  0.01700  Biso   1.000  C
  H207     1.0000 0.07250  0.77120  0.99610  Biso   1.000  H
  C217     1.0000 0.05290  0.84250  0.03350  Biso   1.000  C
  H208     1.0000 0.99580  0.81810  0.02840  Biso   1.000  H
  C218     1.0000 0.96430  0.93040  0.19370  Biso   1.000  C
  H209     1.0000 0.93860  0.88030  0.17970  Biso   1.000  H
  C219     1.0000 0.96310  0.92820  0.23170  Biso   1.000  C
  H210     1.0000 0.93650  0.87650  0.24430  Biso   1.000  H
  C220     1.0000 0.15700  0.94680  0.03330  Biso   1.000  C
  H211     1.0000 0.17960  0.00320  0.02700  Biso   1.000  H
  C221     1.0000 0.19320  0.90560  0.01780  Biso   1.000  C
  H212     1.0000 0.23340  0.92950  0.99820  Biso   1.000  H
  C222     1.0000 0.09560  0.78760  0.05280  Biso   1.000  C
  H213     1.0000 0.07290  0.73060  0.05760  Biso   1.000  H
  C223     1.0000 0.05430  0.82770  0.06720  Biso   1.000  C
  H214     1.0000 0.00620  0.80010  0.08250  Biso   1.000  H
  C224     1.0000 0.03880  0.07720  0.23510  Biso   1.000  C
  H215     1.0000 0.06430  0.12670  0.24950  Biso   1.000  H
  C225     1.0000 0.03910  0.07980  0.19440  Biso   1.000  C
  H216     1.0000 0.06320  0.13010  0.18060  Biso   1.000  H
  C226     1.0000 0.95580  0.91220  0.05711  Biso   1.000  C
  H217     1.0000 0.92680  0.85450  0.06600  Biso   1.000  H
  H218     1.0000 0.95570  0.91200  0.02870  Biso   1.000  H
  C227     1.0000 0.04470  0.95470  0.07150  Biso   1.000  C
  C228     1.0000 0.04360  0.95660  0.11643  Biso   1.000  C
  H219     1.0000 0.10070  0.98510  0.12620  Biso   1.000  H
  H220     1.0000 0.01580  0.89980  0.12640  Biso   1.000  H
  C229     1.0000 0.08920  0.91110  0.05746  Biso   1.000  C
  C230     1.0000 0.16950  0.82960  0.03165  Biso   1.000  C
  O49      1.0000 0.17460  0.69210  0.03060  Biso   1.000  O
  O50      1.0000 0.30840  0.82420  0.03060  Biso   1.000  O
  O51      1.0000 0.22110  0.77740  0.96860  Biso   1.000  O
  H221     1.0000 0.24800  0.82560  0.96030  Biso   1.000  H
  O52      1.0000 0.91283  0.95601  0.31756  Biso   1.000  O
  P16      1.0000 0.22210  0.77838  0.01300  Biso   1.000  P
  Cu13     1.0000 0.18806  0.59402  0.03297  Biso   1.000  Cu
  C231     1.0000 0.83847  0.27753  0.40083  Biso   1.000  C
  H222     1.0000 0.86607  0.32493  0.41643  Biso   1.000  H
  C232     1.0000 0.87877  0.23683  0.38643  Biso   1.000  C
  H223     1.0000 0.93577  0.25933  0.39123  Biso   1.000  H
  C233     1.0000 0.76147  0.14153  0.35033  Biso   1.000  C
  H224     1.0000 0.73917  0.10453  0.32943  Biso   1.000  H
  C234     1.0000 0.71957  0.17583  0.36683  Biso   1.000  C
  H225     1.0000 0.66247  0.15143  0.36173  Biso   1.000  H
  C235     1.0000 0.63097  0.26373  0.52703  Biso   1.000  C
  H226     1.0000 0.60527  0.21363  0.51303  Biso   1.000  H
  C236     1.0000 0.62977  0.26153  0.56503  Biso   1.000  C
  H227     1.0000 0.60317  0.20983  0.57763  Biso   1.000  H
  C237     1.0000 0.82367  0.28013  0.36663  Biso   1.000  C
  H228     1.0000 0.84627  0.33653  0.36033  Biso   1.000  H
  C238     1.0000 0.85987  0.23893  0.35113  Biso   1.000  C
  H229     1.0000 0.90007  0.26283  0.33153  Biso   1.000  H
  C239     1.0000 0.76227  0.12093  0.38613  Biso   1.000  C
  H230     1.0000 0.73957  0.06393  0.39093  Biso   1.000  H
  C240     1.0000 0.72097  0.16103  0.40053  Biso   1.000  C
  H231     1.0000 0.67287  0.13343  0.41583  Biso   1.000  H
  C241     1.0000 0.70547  0.41053  0.56843  Biso   1.000  C
  H232     1.0000 0.73097  0.46003  0.58283  Biso   1.000  H
  C242     1.0000 0.70577  0.41313  0.52773  Biso   1.000  C
  H233     1.0000 0.72987  0.46343  0.51393  Biso   1.000  H
  C243     1.0000 0.62247  0.24553  0.39044  Biso   1.000  C
  H234     1.0000 0.59347  0.18783  0.39933  Biso   1.000  H
  H235     1.0000 0.62237  0.24533  0.36203  Biso   1.000  H
  C244     1.0000 0.71137  0.28803  0.40483  Biso   1.000  C
  C245     1.0000 0.71027  0.28993  0.44976  Biso   1.000  C
  H236     1.0000 0.76737  0.31843  0.45953  Biso   1.000  H
  H237     1.0000 0.68247  0.23313  0.45973  Biso   1.000  H
  C246     1.0000 0.75587  0.24443  0.39079  Biso   1.000  C
  C247     1.0000 0.83617  0.16293  0.36498  Biso   1.000  C
  O53      1.0000 0.84127  0.02543  0.36393  Biso   1.000  O
  O54      1.0000 0.97507  0.15753  0.36393  Biso   1.000  O
  O55      1.0000 0.88777  0.11073  0.30193  Biso   1.000  O
  H238     1.0000 0.91467  0.15893  0.29363  Biso   1.000  H
  O56      1.0000 0.57950  0.28934  0.65089  Biso   1.000  O
  P17      1.0000 0.88877  0.11171  0.34633  Biso   1.000  P
  Cu14     1.0000 0.85473  0.92735  0.36630  Biso   1.000  Cu
  C248     1.0000 0.50513  0.61087  0.73417  Biso   1.000  C
  H239     1.0000 0.53273  0.65827  0.74977  Biso   1.000  H
  C249     1.0000 0.54543  0.57017  0.71977  Biso   1.000  C
  H240     1.0000 0.60243  0.59267  0.72457  Biso   1.000  H
  C250     1.0000 0.42813  0.47487  0.68367  Biso   1.000  C
  H241     1.0000 0.40583  0.43787  0.66277  Biso   1.000  H
  C251     1.0000 0.38623  0.50917  0.70017  Biso   1.000  C
  H242     1.0000 0.32913  0.48477  0.69507  Biso   1.000  H
  C252     1.0000 0.29763  0.59707  0.86037  Biso   1.000  C
  H243     1.0000 0.27193  0.54697  0.84637  Biso   1.000  H
  C253     1.0000 0.29643  0.59487  0.89837  Biso   1.000  C
  H244     1.0000 0.26983  0.54317  0.91097  Biso   1.000  H
  C254     1.0000 0.49033  0.61347  0.69997  Biso   1.000  C
  H245     1.0000 0.51293  0.66987  0.69367  Biso   1.000  H
  C255     1.0000 0.52653  0.57227  0.68447  Biso   1.000  C
  H246     1.0000 0.56673  0.59617  0.66487  Biso   1.000  H
  C256     1.0000 0.42893  0.45427  0.71947  Biso   1.000  C
  H247     1.0000 0.40623  0.39727  0.72427  Biso   1.000  H
  C257     1.0000 0.38763  0.49437  0.73387  Biso   1.000  C
  H248     1.0000 0.33953  0.46677  0.74917  Biso   1.000  H
  C258     1.0000 0.37213  0.74387  0.90177  Biso   1.000  C
  H249     1.0000 0.39763  0.79337  0.91617  Biso   1.000  H
  C259     1.0000 0.37243  0.74647  0.86107  Biso   1.000  C
  H250     1.0000 0.39653  0.79677  0.84727  Biso   1.000  H
  C260     1.0000 0.28913  0.57887  0.72378  Biso   1.000  C
  H251     1.0000 0.26013  0.52117  0.73267  Biso   1.000  H
  H252     1.0000 0.28903  0.57867  0.69537  Biso   1.000  H
  C261     1.0000 0.37803  0.62137  0.73817  Biso   1.000  C
  C262     1.0000 0.37693  0.62327  0.78310  Biso   1.000  C
  H253     1.0000 0.43403  0.65177  0.79287  Biso   1.000  H
  H254     1.0000 0.34913  0.56647  0.79307  Biso   1.000  H
  C263     1.0000 0.42253  0.57777  0.72413  Biso   1.000  C
  C264     1.0000 0.50283  0.49627  0.69832  Biso   1.000  C
  O57      1.0000 0.50793  0.35877  0.69727  Biso   1.000  O
  O58      1.0000 0.64173  0.49087  0.69727  Biso   1.000  O
  O59      1.0000 0.55443  0.44407  0.63527  Biso   1.000  O
  H255     1.0000 0.58133  0.49227  0.62697  Biso   1.000  H
  O60      1.0000 0.24616  0.62268  0.98423  Biso   1.000  O
  P18      1.0000 0.55543  0.44505  0.67967  Biso   1.000  P
  Cu15     1.0000 0.52139  0.26069  0.69964  Biso   1.000  Cu
  C265     1.0000 0.05580  0.22760  0.06750  Biso   1.000  C
  H256     1.0000 0.00840  0.20780  0.08310  Biso   1.000  H
  C266     1.0000 0.09650  0.30860  0.05310  Biso   1.000  C
  H257     1.0000 0.07400  0.34310  0.05790  Biso   1.000  H
  C267     1.0000 0.19180  0.28660  0.01700  Biso   1.000  C
  H258     1.0000 0.22880  0.30130  0.99610  Biso   1.000  H
  C268     1.0000 0.15750  0.21040  0.03350  Biso   1.000  C
  H259     1.0000 0.18190  0.17770  0.02840  Biso   1.000  H
  C269     1.0000 0.06960  0.03390  0.19370  Biso   1.000  C
  H260     1.0000 0.11970  0.05830  0.17970  Biso   1.000  H
  C270     1.0000 0.07180  0.03490  0.23170  Biso   1.000  C
  H261     1.0000 0.12350  0.06000  0.24430  Biso   1.000  H
  C271     1.0000 0.05320  0.21020  0.03330  Biso   1.000  C
  H262     1.0000 0.99680  0.17640  0.02700  Biso   1.000  H
  C272     1.0000 0.09440  0.28760  0.01780  Biso   1.000  C
  H263     1.0000 0.07050  0.30390  0.99820  Biso   1.000  H
  C273     1.0000 0.21240  0.30800  0.05280  Biso   1.000  C
  H264     1.0000 0.26940  0.34230  0.05760  Biso   1.000  H
  C274     1.0000 0.17230  0.22660  0.06720  Biso   1.000  C
  H265     1.0000 0.19990  0.20610  0.08250  Biso   1.000  H
  C275     1.0000 0.92280  0.96160  0.23510  Biso   1.000  C
  H266     1.0000 0.87330  0.93760  0.24950  Biso   1.000  H
  C276     1.0000 0.92020  0.95930  0.19440  Biso   1.000  C
  H267     1.0000 0.86990  0.93310  0.18060  Biso   1.000  H
  C277     1.0000 0.08780  0.04360  0.05711  Biso   1.000  C
  H268     1.0000 0.14550  0.07230  0.06600  Biso   1.000  H
  H269     1.0000 0.08800  0.04370  0.02870  Biso   1.000  H
  C278     1.0000 0.04530  0.09000  0.07150  Biso   1.000  C
  C279     1.0000 0.04340  0.08700  0.11643  Biso   1.000  C
  H270     1.0000 0.01490  0.11560  0.12620  Biso   1.000  H
  H271     1.0000 0.10020  0.11600  0.12640  Biso   1.000  H
  C280     1.0000 0.08890  0.17810  0.05746  Biso   1.000  C
  C281     1.0000 0.17040  0.33990  0.03165  Biso   1.000  C
  O61      1.0000 0.30790  0.48250  0.03060  Biso   1.000  O
  O62      1.0000 0.17580  0.48420  0.03060  Biso   1.000  O
  O63      1.0000 0.22260  0.44370  0.96860  Biso   1.000  O
  H272     1.0000 0.17440  0.42240  0.96030  Biso   1.000  H
  O64      1.0000 0.04399  0.95682  0.31756  Biso   1.000  O
  P19      1.0000 0.22162  0.44372  0.01300  Biso   1.000  P
  Cu16     1.0000 0.40598  0.59404  0.03297  Biso   1.000  Cu
  C282     1.0000 0.72247  0.56093  0.40083  Biso   1.000  C
  H273     1.0000 0.67507  0.54113  0.41643  Biso   1.000  H
  C283     1.0000 0.76317  0.64193  0.38643  Biso   1.000  C
  H274     1.0000 0.74067  0.67643  0.39123  Biso   1.000  H
  C284     1.0000 0.85847  0.61993  0.35033  Biso   1.000  C
  H275     1.0000 0.89547  0.63463  0.32943  Biso   1.000  H
  C285     1.0000 0.82417  0.54373  0.36683  Biso   1.000  C
  H276     1.0000 0.84857  0.51103  0.36173  Biso   1.000  H
  C286     1.0000 0.73627  0.36723  0.52703  Biso   1.000  C
  H277     1.0000 0.78637  0.39163  0.51303  Biso   1.000  H
  C287     1.0000 0.73847  0.36823  0.56503  Biso   1.000  C
  H278     1.0000 0.79017  0.39333  0.57763  Biso   1.000  H
  C288     1.0000 0.71987  0.54353  0.36663  Biso   1.000  C
  H279     1.0000 0.66347  0.50973  0.36033  Biso   1.000  H
  C289     1.0000 0.76107  0.62093  0.35113  Biso   1.000  C
  H280     1.0000 0.73717  0.63723  0.33153  Biso   1.000  H
  C290     1.0000 0.87907  0.64133  0.38613  Biso   1.000  C
  H281     1.0000 0.93607  0.67563  0.39093  Biso   1.000  H
  C291     1.0000 0.83897  0.55993  0.40053  Biso   1.000  C
  H282     1.0000 0.86657  0.53943  0.41583  Biso   1.000  H
  C292     1.0000 0.58947  0.29493  0.56843  Biso   1.000  C
  H283     1.0000 0.53997  0.27093  0.58283  Biso   1.000  H
  C293     1.0000 0.58687  0.29263  0.52773  Biso   1.000  C
  H284     1.0000 0.53657  0.26643  0.51393  Biso   1.000  H
  C294     1.0000 0.75447  0.37693  0.39044  Biso   1.000  C
  H285     1.0000 0.81217  0.40563  0.39933  Biso   1.000  H
  H286     1.0000 0.75467  0.37703  0.36203  Biso   1.000  H
  C295     1.0000 0.71197  0.42333  0.40483  Biso   1.000  C
  C296     1.0000 0.71007  0.42033  0.44976  Biso   1.000  C
  H287     1.0000 0.68157  0.44893  0.45953  Biso   1.000  H
  H288     1.0000 0.76687  0.44933  0.45973  Biso   1.000  H
  C297     1.0000 0.75557  0.51143  0.39079  Biso   1.000  C
  C298     1.0000 0.83707  0.67323  0.36498  Biso   1.000  C
  O65      1.0000 0.97457  0.81583  0.36393  Biso   1.000  O
  O66      1.0000 0.84247  0.81753  0.36393  Biso   1.000  O
  O67      1.0000 0.88927  0.77703  0.30193  Biso   1.000  O
  H289     1.0000 0.84107  0.75573  0.29363  Biso   1.000  H
  O68      1.0000 0.71066  0.29015  0.65089  Biso   1.000  O
  P20      1.0000 0.88829  0.77705  0.34633  Biso   1.000  P
  Cu17     1.0000 0.07265  0.92737  0.36630  Biso   1.000  Cu
  C299     1.0000 0.38913  0.89427  0.73417  Biso   1.000  C
  H290     1.0000 0.34173  0.87447  0.74977  Biso   1.000  H
  C300     1.0000 0.42983  0.97527  0.71977  Biso   1.000  C
  H291     1.0000 0.40733  0.00977  0.72457  Biso   1.000  H
  C301     1.0000 0.52513  0.95327  0.68367  Biso   1.000  C
  H292     1.0000 0.56213  0.96797  0.66277  Biso   1.000  H
  C302     1.0000 0.49083  0.87707  0.70017  Biso   1.000  C
  H293     1.0000 0.51523  0.84437  0.69507  Biso   1.000  H
  C303     1.0000 0.40293  0.70057  0.86037  Biso   1.000  C
  H294     1.0000 0.45303  0.72497  0.84637  Biso   1.000  H
  C304     1.0000 0.40513  0.70157  0.89837  Biso   1.000  C
  H295     1.0000 0.45683  0.72667  0.91097  Biso   1.000  H
  C305     1.0000 0.38653  0.87687  0.69997  Biso   1.000  C
  H296     1.0000 0.33013  0.84307  0.69367  Biso   1.000  H
  C306     1.0000 0.42773  0.95427  0.68447  Biso   1.000  C
  H297     1.0000 0.40383  0.97057  0.66487  Biso   1.000  H
  C307     1.0000 0.54573  0.97467  0.71947  Biso   1.000  C
  H298     1.0000 0.60273  0.00897  0.72427  Biso   1.000  H
  C308     1.0000 0.50563  0.89327  0.73387  Biso   1.000  C
  H299     1.0000 0.53323  0.87277  0.74917  Biso   1.000  H
  C309     1.0000 0.25613  0.62827  0.90177  Biso   1.000  C
  H300     1.0000 0.20663  0.60427  0.91617  Biso   1.000  H
  C310     1.0000 0.25353  0.62597  0.86107  Biso   1.000  C
  H301     1.0000 0.20323  0.59977  0.84727  Biso   1.000  H
  C311     1.0000 0.42113  0.71027  0.72378  Biso   1.000  C
  H302     1.0000 0.47883  0.73897  0.73267  Biso   1.000  H
  H303     1.0000 0.42133  0.71037  0.69537  Biso   1.000  H
  C312     1.0000 0.37863  0.75667  0.73817  Biso   1.000  C
  C313     1.0000 0.37673  0.75367  0.78310  Biso   1.000  C
  H304     1.0000 0.34823  0.78227  0.79287  Biso   1.000  H
  H305     1.0000 0.43353  0.78267  0.79307  Biso   1.000  H
  C314     1.0000 0.42223  0.84477  0.72413  Biso   1.000  C
  C315     1.0000 0.50373  0.00657  0.69832  Biso   1.000  C
  O69      1.0000 0.64123  0.14917  0.69727  Biso   1.000  O
  O70      1.0000 0.50913  0.15087  0.69727  Biso   1.000  O
  O71      1.0000 0.55593  0.11037  0.63527  Biso   1.000  O
  H306     1.0000 0.50773  0.08907  0.62697  Biso   1.000  H
  O72      1.0000 0.37732  0.62349  0.98423  Biso   1.000  O
  P21      1.0000 0.55495  0.11039  0.67967  Biso   1.000  P
  Cu18     1.0000 0.73931  0.26071  0.69964  Biso   1.000  Cu
  C316     1.0000 0.00000  0.00000  0.13070  Biso   1.000  C
  C317     1.0000 0.00000  0.00000  0.17480  Biso   1.000  C
  C318     1.0000 0.00000  0.00000  0.25410  Biso   1.000  C
  P22      1.0000 0.00000  0.00000  0.30598  Biso   1.000  P
  C319     1.0000 0.66667  0.33333  0.46403  Biso   1.000  C
  C320     1.0000 0.66667  0.33333  0.50813  Biso   1.000  C
  C321     1.0000 0.66667  0.33333  0.58743  Biso   1.000  C
  P23      1.0000 0.66667  0.33333  0.63931  Biso   1.000  P
  C322     1.0000 0.33333  0.66667  0.79737  Biso   1.000  C
  C323     1.0000 0.33333  0.66667  0.84147  Biso   1.000  C
  C324     1.0000 0.33333  0.66667  0.92077  Biso   1.000  C
  P24      1.0000 0.33333  0.66667  0.97265  Biso   1.000  P
