data_image0
_cell_length_a       12
_cell_length_b       12.611
_cell_length_c       11.526
_cell_angle_alpha    115.75
_cell_angle_beta     106.99
_cell_angle_gamma    69.34

_symmetry_space_group_name_H-M    "P 1"
_symmetry_int_tables_number       1

loop_
  _symmetry_equiv_pos_as_xyz
  'x, y, z'

loop_
  _atom_site_label
  _atom_site_occupancy
  _atom_site_fract_x
  _atom_site_fract_y
  _atom_site_fract_z
  _atom_site_thermal_displace_type
  _atom_site_B_iso_or_equiv
  _atom_site_type_symbol
  S1       1.0000 0.74300  0.39440  0.84670  Biso   1.000  S
  O1       1.0000 0.66010  0.40100  0.92400  Biso   1.000  O
  O2       1.0000 0.82250  0.47030  0.92910  Biso   1.000  O
  O3       1.0000 0.68080  0.42300  0.73120  Biso   1.000  O
  O4       1.0000 0.81890  0.26270  0.80000  Biso   1.000  O
  O5       1.0000 0.86700  0.37700  0.90200  Biso   1.000  O
  O6       1.0000 0.68900  0.53600  0.85400  Biso   1.000  O
  O7       1.0000 0.71700  0.31800  0.72400  Biso   1.000  O
  N1       1.0000 0.60240  0.59150  0.18770  Biso   1.000  N
  N2       1.0000 0.90600  0.90690  0.80940  Biso   1.000  N
  N3       1.0000 0.00440  0.49430  0.80610  Biso   1.000  N
  C1       1.0000 0.59200  0.58700  0.29700  Biso   1.000  C
  C2       1.0000 0.64900  0.64900  0.42000  Biso   1.000  C
  C3       1.0000 0.72210  0.72000  0.43450  Biso   1.000  C
  C4       1.0000 0.73350  0.72220  0.31900  Biso   1.000  C
  C5       1.0000 0.67400  0.66000  0.20190  Biso   1.000  C
  C6       1.0000 0.90900  0.92100  0.70300  Biso   1.000  C
  C7       1.0000 0.85100  0.86200  0.58200  Biso   1.000  C
  C8       1.0000 0.78450  0.78360  0.56350  Biso   1.000  C
  C9       1.0000 0.78200  0.77260  0.67600  Biso   1.000  C
  C10      1.0000 0.84200  0.83340  0.79600  Biso   1.000  C
  C11      1.0000 0.94500  0.42500  0.69300  Biso   1.000  C
  C12      1.0000 0.94100  0.43000  0.57400  Biso   1.000  C
  C13      1.0000 0.00200  0.50030  0.56290  Biso   1.000  C
  C14      1.0000 0.06800  0.56420  0.67800  Biso   1.000  C
  C15      1.0000 0.06900  0.55900  0.79480  Biso   1.000  C
  H1       1.0000 0.54040  0.53830  0.29040  Biso   1.000  H
  H2       1.0000 0.63860  0.64110  0.49570  Biso   1.000  H
  H3       1.0000 0.78360  0.76800  0.32210  Biso   1.000  H
  H4       1.0000 0.68430  0.66220  0.12300  Biso   1.000  H
  H5       1.0000 0.95520  0.97570  0.71160  Biso   1.000  H
  H6       1.0000 0.85510  0.87510  0.50650  Biso   1.000  H
  H7       1.0000 0.73710  0.72110  0.67100  Biso   1.000  H
  H8       1.0000 0.83870  0.82190  0.87220  Biso   1.000  H
  H9       1.0000 0.90430  0.36950  0.69600  Biso   1.000  H
  H10      1.0000 0.89470  0.38170  0.49530  Biso   1.000  H
  H11      1.0000 0.11060  0.61430  0.67550  Biso   1.000  H
  H12      1.0000 0.11840  0.60420  0.87370  Biso   1.000  H
  S2       1.0000 0.25700  0.60560  0.15330  Biso   1.000  S
  O8       1.0000 0.33990  0.59900  0.07600  Biso   1.000  O
  O9       1.0000 0.17750  0.52970  0.07090  Biso   1.000  O
  O10      1.0000 0.31920  0.57700  0.26880  Biso   1.000  O
  O11      1.0000 0.18110  0.73730  0.20000  Biso   1.000  O
  O12      1.0000 0.13300  0.62300  0.09800  Biso   1.000  O
  O13      1.0000 0.31100  0.46400  0.14600  Biso   1.000  O
  O14      1.0000 0.28300  0.68200  0.27600  Biso   1.000  O
  N4       1.0000 0.39760  0.40850  0.81230  Biso   1.000  N
  N5       1.0000 0.09400  0.09310  0.19060  Biso   1.000  N
  N6       1.0000 0.99560  0.50570  0.19390  Biso   1.000  N
  C16      1.0000 0.40800  0.41300  0.70300  Biso   1.000  C
  C17      1.0000 0.35100  0.35100  0.58000  Biso   1.000  C
  C18      1.0000 0.27790  0.28000  0.56550  Biso   1.000  C
  C19      1.0000 0.26650  0.27780  0.68100  Biso   1.000  C
  C20      1.0000 0.32600  0.34000  0.79810  Biso   1.000  C
  C21      1.0000 0.09100  0.07900  0.29700  Biso   1.000  C
  C22      1.0000 0.14900  0.13800  0.41800  Biso   1.000  C
  C23      1.0000 0.21550  0.21640  0.43650  Biso   1.000  C
  C24      1.0000 0.21800  0.22740  0.32400  Biso   1.000  C
  C25      1.0000 0.15800  0.16660  0.20400  Biso   1.000  C
  C26      1.0000 0.05500  0.57500  0.30700  Biso   1.000  C
  C27      1.0000 0.05900  0.57000  0.42600  Biso   1.000  C
  C28      1.0000 0.99800  0.49970  0.43710  Biso   1.000  C
  C29      1.0000 0.93200  0.43580  0.32200  Biso   1.000  C
  C30      1.0000 0.93100  0.44100  0.20520  Biso   1.000  C
  H13      1.0000 0.45960  0.46170  0.70960  Biso   1.000  H
  H14      1.0000 0.36140  0.35890  0.50430  Biso   1.000  H
  H15      1.0000 0.21640  0.23200  0.67790  Biso   1.000  H
  H16      1.0000 0.31570  0.33780  0.87700  Biso   1.000  H
  H17      1.0000 0.04480  0.02430  0.28840  Biso   1.000  H
  H18      1.0000 0.14490  0.12490  0.49350  Biso   1.000  H
  H19      1.0000 0.26290  0.27890  0.32900  Biso   1.000  H
  H20      1.0000 0.16130  0.17810  0.12780  Biso   1.000  H
  H21      1.0000 0.09570  0.63050  0.30400  Biso   1.000  H
  H22      1.0000 0.10530  0.61830  0.50470  Biso   1.000  H
  H23      1.0000 0.88940  0.38570  0.32450  Biso   1.000  H
  H24      1.0000 0.88160  0.39580  0.12630  Biso   1.000  H
  Fe1      1.0000 0.50000  0.50000  0.00000  Biso   1.000  Fe
  Fe2      1.0000 0.00000  0.00000  0.00000  Biso   1.000  Fe
  Fe3      1.0000 0.00000  0.50000  0.00000  Biso   1.000  Fe
