data_image0
_cell_length_a       30.1786
_cell_length_b       39.4019
_cell_length_c       26.5077
_cell_angle_alpha    90
_cell_angle_beta     120.931
_cell_angle_gamma    90

_symmetry_space_group_name_H-M    "P 1"
_symmetry_int_tables_number       1

loop_
  _symmetry_equiv_pos_as_xyz
  'x, y, z'

loop_
  _atom_site_label
  _atom_site_occupancy
  _atom_site_fract_x
  _atom_site_fract_y
  _atom_site_fract_z
  _atom_site_thermal_displace_type
  _atom_site_B_iso_or_equiv
  _atom_site_type_symbol
  Cu1      1.0000 0.11461  0.27343  0.62683  Biso   1.000  Cu
  Cu2      1.0000 0.14620  0.22044  0.70021  Biso   1.000  Cu
  I1       1.0000 0.28962  0.30109  0.98953  Biso   1.000  I
  I2       1.0000 0.20690  0.42150  0.81220  Biso   1.000  I
  I3       1.0000 0.36185  0.38087  0.91656  Biso   1.000  I
  I4       1.0000 0.16631  0.37847  0.94796  Biso   1.000  I
  I5       1.0000 0.59761  0.37615  0.36844  Biso   1.000  I
  I6       1.0000 0.57534  0.42319  0.50230  Biso   1.000  I
  I7       1.0000 0.40597  0.18577  0.75430  Biso   1.000  I
  I8       1.0000 0.31462  0.28931  0.55110  Biso   1.000  I
  I9       1.0000 0.44546  0.29866  0.77245  Biso   1.000  I
  I10      1.0000 0.35135  0.19414  0.55918  Biso   1.000  I
  O1       1.0000 0.14717  0.29978  0.69962  Biso   1.000  O
  O2       1.0000 0.17541  0.25586  0.76117  Biso   1.000  O
  O3       1.0000 0.31741  0.46489  0.10401  Biso   1.000  O
  O4       1.0000 0.38609  0.46505  0.09331  Biso   1.000  O
  O5       1.0000 0.45111  0.46516  0.21351  Biso   1.000  O
  O6       1.0000 0.38191  0.46497  0.22398  Biso   1.000  O
  O7       1.0000 0.61294  0.30472  0.62553  Biso   1.000  O
  O8       1.0000 0.58566  0.26051  0.56459  Biso   1.000  O
  O9       1.0000 0.18330  0.26594  0.63648  Biso   1.000  O
  O10      1.0000 0.20988  0.22234  0.69747  Biso   1.000  O
  O11      1.0000 0.57955  0.27318  0.69435  Biso   1.000  O
  O12      1.0000 0.55157  0.22942  0.63149  Biso   1.000  O
  C1       1.0000 0.19630  0.31142  0.80070  Biso   1.000  C
  C2       1.0000 0.22330  0.29937  0.85780  Biso   1.000  C
  H1       1.0000 0.22540  0.27590  0.86490  Biso   1.000  H
  C3       1.0000 0.24700  0.32138  0.90410  Biso   1.000  C
  C4       1.0000 0.24380  0.35632  0.89420  Biso   1.000  C
  C5       1.0000 0.21570  0.36803  0.83730  Biso   1.000  C
  C6       1.0000 0.19290  0.34536  0.79120  Biso   1.000  C
  H2       1.0000 0.17470  0.35360  0.75250  Biso   1.000  H
  C7       1.0000 0.17141  0.28696  0.74960  Biso   1.000  C
  C8       1.0000 0.31750  0.42831  0.03367  Biso   1.000  C
  C9       1.0000 0.26920  0.41651  0.01660  Biso   1.000  C
  H3       1.0000 0.25220  0.42480  0.03530  Biso   1.000  H
  C10      1.0000 0.24480  0.39276  0.97250  Biso   1.000  C
  C11      1.0000 0.26990  0.38142  0.94410  Biso   1.000  C
  C12      1.0000 0.31840  0.39398  0.96070  Biso   1.000  C
  C13      1.0000 0.34320  0.41703  0.00600  Biso   1.000  C
  H4       1.0000 0.37650  0.42490  0.01770  Biso   1.000  H
  C14      1.0000 0.34270  0.45509  0.08113  Biso   1.000  C
  C15      1.0000 0.45240  0.42922  0.28446  Biso   1.000  C
  C16      1.0000 0.50020  0.41721  0.30100  Biso   1.000  C
  H5       1.0000 0.51680  0.42450  0.28110  Biso   1.000  H
  C17      1.0000 0.52490  0.39404  0.34730  Biso   1.000  C
  C18      1.0000 0.50223  0.38281  0.37764  Biso   1.000  C
  C19      1.0000 0.45310  0.39498  0.35940  Biso   1.000  C
  H6       1.0000 0.43600  0.38710  0.37850  Biso   1.000  H
  C20      1.0000 0.42860  0.41811  0.31450  Biso   1.000  C
  H7       1.0000 0.39580  0.42640  0.30420  Biso   1.000  H
  C21      1.0000 0.42640  0.45536  0.23680  Biso   1.000  C
  C22      1.0000 0.56982  0.31509  0.52414  Biso   1.000  C
  C23      1.0000 0.57957  0.34923  0.53326  Biso   1.000  C
  H8       1.0000 0.60030  0.35760  0.57170  Biso   1.000  H
  C24      1.0000 0.55869  0.37169  0.48546  Biso   1.000  C
  C25      1.0000 0.52748  0.35956  0.42862  Biso   1.000  C
  C26      1.0000 0.51824  0.32516  0.42063  Biso   1.000  C
  H9       1.0000 0.49750  0.31660  0.38230  Biso   1.000  H
  C27      1.0000 0.53867  0.30291  0.46741  Biso   1.000  C
  H10      1.0000 0.53150  0.27960  0.46090  Biso   1.000  H
  C28      1.0000 0.59135  0.29175  0.57584  Biso   1.000  C
  C29      1.0000 0.26559  0.24379  0.66820  Biso   1.000  C
  C30      1.0000 0.30440  0.22233  0.70240  Biso   1.000  C
  H11      1.0000 0.30040  0.20720  0.72730  Biso   1.000  H
  C31      1.0000 0.34950  0.22204  0.70170  Biso   1.000  C
  C32      1.0000 0.35850  0.24451  0.66940  Biso   1.000  C
  C33      1.0000 0.32020  0.26850  0.63810  Biso   1.000  C
  C34      1.0000 0.27400  0.26699  0.63600  Biso   1.000  C
  H12      1.0000 0.24760  0.28230  0.61190  Biso   1.000  H
  C35      1.0000 0.21534  0.24361  0.66770  Biso   1.000  C
  C36      1.0000 0.49796  0.24896  0.66530  Biso   1.000  C
  C37      1.0000 0.45970  0.22782  0.62910  Biso   1.000  C
  H13      1.0000 0.46420  0.21360  0.60360  Biso   1.000  H
  C38      1.0000 0.41330  0.22670  0.62910  Biso   1.000  C
  C39      1.0000 0.40740  0.24585  0.66870  Biso   1.000  C
  C40      1.0000 0.44720  0.26750  0.70540  Biso   1.000  C
  C41      1.0000 0.49210  0.26886  0.70250  Biso   1.000  C
  H14      1.0000 0.51860  0.28400  0.72700  Biso   1.000  H
  C42      1.0000 0.54757  0.25080  0.66400  Biso   1.000  C
  N1       1.0000 0.09617  0.31608  0.57012  Biso   1.000  N
  C43      1.0000 0.10270  0.34680  0.58460  Biso   1.000  C
  C44      1.0000 0.09510  0.37690  0.55710  Biso   1.000  C
  C45      1.0000 0.09190  0.37280  0.50330  Biso   1.000  C
  C46      1.0000 0.09950  0.33970  0.48860  Biso   1.000  C
  C47      1.0000 0.10330  0.31150  0.52340  Biso   1.000  C
  C48      1.0000 0.06740  0.37000  0.49760  Biso   1.000  C
  C49      1.0000 0.03740  0.34010  0.47750  Biso   1.000  C
  C50      1.0000 0.05200  0.31250  0.51620  Biso   1.000  C
  N2       1.0000 0.16618  0.17775  0.75729  Biso   1.000  N
  C51      1.0000 0.18160  0.14860  0.74440  Biso   1.000  C
  H15      1.0000 0.18430  0.14680  0.71070  Biso   1.000  H
  C52      1.0000 0.19350  0.12100  0.78280  Biso   1.000  C
  H16      1.0000 0.20130  0.10010  0.77220  Biso   1.000  H
  C53      1.0000 0.19420  0.12280  0.83300  Biso   1.000  C
  H17      1.0000 0.21220  0.10760  0.86440  Biso   1.000  H
  C54      1.0000 0.16750  0.14760  0.83340  Biso   1.000  C
  H18      1.0000 0.15250  0.14640  0.85690  Biso   1.000  H
  C55      1.0000 0.16010  0.17590  0.80040  Biso   1.000  C
  H19      1.0000 0.14970  0.19580  0.81100  Biso   1.000  H
  C56      1.0000 0.25510  0.47200  0.18570  Biso   1.000  C
  H20      1.0000 0.26740  0.45100  0.18090  Biso   1.000  H
  C57      1.0000 0.21640  0.46940  0.20030  Biso   1.000  C
  H21      1.0000 0.20460  0.44880  0.20690  Biso   1.000  H
  Cu3      1.0000 0.61461  0.77343  0.62683  Biso   1.000  Cu
  Cu4      1.0000 0.64620  0.72044  0.70021  Biso   1.000  Cu
  I11      1.0000 0.78962  0.80109  0.98953  Biso   1.000  I
  I12      1.0000 0.70690  0.92150  0.81220  Biso   1.000  I
  I13      1.0000 0.86185  0.88087  0.91656  Biso   1.000  I
  I14      1.0000 0.66631  0.87847  0.94796  Biso   1.000  I
  I15      1.0000 0.09761  0.87615  0.36844  Biso   1.000  I
  I16      1.0000 0.07534  0.92319  0.50230  Biso   1.000  I
  I17      1.0000 0.90597  0.68577  0.75430  Biso   1.000  I
  I18      1.0000 0.81462  0.78931  0.55110  Biso   1.000  I
  I19      1.0000 0.94546  0.79866  0.77245  Biso   1.000  I
  I20      1.0000 0.85135  0.69414  0.55918  Biso   1.000  I
  O13      1.0000 0.64717  0.79978  0.69962  Biso   1.000  O
  O14      1.0000 0.67541  0.75586  0.76117  Biso   1.000  O
  O15      1.0000 0.81741  0.96489  0.10401  Biso   1.000  O
  O16      1.0000 0.88609  0.96505  0.09331  Biso   1.000  O
  O17      1.0000 0.95111  0.96516  0.21351  Biso   1.000  O
  O18      1.0000 0.88191  0.96497  0.22398  Biso   1.000  O
  O19      1.0000 0.11294  0.80472  0.62553  Biso   1.000  O
  O20      1.0000 0.08566  0.76051  0.56459  Biso   1.000  O
  O21      1.0000 0.68330  0.76594  0.63648  Biso   1.000  O
  O22      1.0000 0.70988  0.72234  0.69747  Biso   1.000  O
  O23      1.0000 0.07955  0.77318  0.69435  Biso   1.000  O
  O24      1.0000 0.05157  0.72942  0.63149  Biso   1.000  O
  C58      1.0000 0.69630  0.81142  0.80070  Biso   1.000  C
  C59      1.0000 0.72330  0.79937  0.85780  Biso   1.000  C
  H22      1.0000 0.72540  0.77590  0.86490  Biso   1.000  H
  C60      1.0000 0.74700  0.82138  0.90410  Biso   1.000  C
  C61      1.0000 0.74380  0.85632  0.89420  Biso   1.000  C
  C62      1.0000 0.71570  0.86803  0.83730  Biso   1.000  C
  C63      1.0000 0.69290  0.84536  0.79120  Biso   1.000  C
  H23      1.0000 0.67470  0.85360  0.75250  Biso   1.000  H
  C64      1.0000 0.67141  0.78696  0.74960  Biso   1.000  C
  C65      1.0000 0.81750  0.92831  0.03367  Biso   1.000  C
  C66      1.0000 0.76920  0.91651  0.01660  Biso   1.000  C
  H24      1.0000 0.75220  0.92480  0.03530  Biso   1.000  H
  C67      1.0000 0.74480  0.89276  0.97250  Biso   1.000  C
  C68      1.0000 0.76990  0.88142  0.94410  Biso   1.000  C
  C69      1.0000 0.81840  0.89398  0.96070  Biso   1.000  C
  C70      1.0000 0.84320  0.91703  0.00600  Biso   1.000  C
  H25      1.0000 0.87650  0.92490  0.01770  Biso   1.000  H
  C71      1.0000 0.84270  0.95509  0.08113  Biso   1.000  C
  C72      1.0000 0.95240  0.92922  0.28446  Biso   1.000  C
  C73      1.0000 0.00020  0.91721  0.30100  Biso   1.000  C
  H26      1.0000 0.01680  0.92450  0.28110  Biso   1.000  H
  C74      1.0000 0.02490  0.89404  0.34730  Biso   1.000  C
  C75      1.0000 0.00223  0.88281  0.37764  Biso   1.000  C
  C76      1.0000 0.95310  0.89498  0.35940  Biso   1.000  C
  H27      1.0000 0.93600  0.88710  0.37850  Biso   1.000  H
  C77      1.0000 0.92860  0.91811  0.31450  Biso   1.000  C
  H28      1.0000 0.89580  0.92640  0.30420  Biso   1.000  H
  C78      1.0000 0.92640  0.95536  0.23680  Biso   1.000  C
  C79      1.0000 0.06982  0.81509  0.52414  Biso   1.000  C
  C80      1.0000 0.07957  0.84923  0.53326  Biso   1.000  C
  H29      1.0000 0.10030  0.85760  0.57170  Biso   1.000  H
  C81      1.0000 0.05869  0.87169  0.48546  Biso   1.000  C
  C82      1.0000 0.02748  0.85956  0.42862  Biso   1.000  C
  C83      1.0000 0.01824  0.82516  0.42063  Biso   1.000  C
  H30      1.0000 0.99750  0.81660  0.38230  Biso   1.000  H
  C84      1.0000 0.03867  0.80291  0.46741  Biso   1.000  C
  H31      1.0000 0.03150  0.77960  0.46090  Biso   1.000  H
  C85      1.0000 0.09135  0.79175  0.57584  Biso   1.000  C
  C86      1.0000 0.76559  0.74379  0.66820  Biso   1.000  C
  C87      1.0000 0.80440  0.72233  0.70240  Biso   1.000  C
  H32      1.0000 0.80040  0.70720  0.72730  Biso   1.000  H
  C88      1.0000 0.84950  0.72204  0.70170  Biso   1.000  C
  C89      1.0000 0.85850  0.74451  0.66940  Biso   1.000  C
  C90      1.0000 0.82020  0.76850  0.63810  Biso   1.000  C
  C91      1.0000 0.77400  0.76699  0.63600  Biso   1.000  C
  H33      1.0000 0.74760  0.78230  0.61190  Biso   1.000  H
  C92      1.0000 0.71534  0.74361  0.66770  Biso   1.000  C
  C93      1.0000 0.99796  0.74896  0.66530  Biso   1.000  C
  C94      1.0000 0.95970  0.72782  0.62910  Biso   1.000  C
  H34      1.0000 0.96420  0.71360  0.60360  Biso   1.000  H
  C95      1.0000 0.91330  0.72670  0.62910  Biso   1.000  C
  C96      1.0000 0.90740  0.74585  0.66870  Biso   1.000  C
  C97      1.0000 0.94720  0.76750  0.70540  Biso   1.000  C
  C98      1.0000 0.99210  0.76886  0.70250  Biso   1.000  C
  H35      1.0000 0.01860  0.78400  0.72700  Biso   1.000  H
  C99      1.0000 0.04757  0.75080  0.66400  Biso   1.000  C
  N3       1.0000 0.59617  0.81608  0.57012  Biso   1.000  N
  C100     1.0000 0.60270  0.84680  0.58460  Biso   1.000  C
  C101     1.0000 0.59510  0.87690  0.55710  Biso   1.000  C
  C102     1.0000 0.59190  0.87280  0.50330  Biso   1.000  C
  C103     1.0000 0.59950  0.83970  0.48860  Biso   1.000  C
  C104     1.0000 0.60330  0.81150  0.52340  Biso   1.000  C
  C105     1.0000 0.56740  0.87000  0.49760  Biso   1.000  C
  C106     1.0000 0.53740  0.84010  0.47750  Biso   1.000  C
  C107     1.0000 0.55200  0.81250  0.51620  Biso   1.000  C
  N4       1.0000 0.66618  0.67775  0.75729  Biso   1.000  N
  C108     1.0000 0.68160  0.64860  0.74440  Biso   1.000  C
  H36      1.0000 0.68430  0.64680  0.71070  Biso   1.000  H
  C109     1.0000 0.69350  0.62100  0.78280  Biso   1.000  C
  H37      1.0000 0.70130  0.60010  0.77220  Biso   1.000  H
  C110     1.0000 0.69420  0.62280  0.83300  Biso   1.000  C
  H38      1.0000 0.71220  0.60760  0.86440  Biso   1.000  H
  C111     1.0000 0.66750  0.64760  0.83340  Biso   1.000  C
  H39      1.0000 0.65250  0.64640  0.85690  Biso   1.000  H
  C112     1.0000 0.66010  0.67590  0.80040  Biso   1.000  C
  H40      1.0000 0.64970  0.69580  0.81100  Biso   1.000  H
  C113     1.0000 0.75510  0.97200  0.18570  Biso   1.000  C
  H41      1.0000 0.76740  0.95100  0.18090  Biso   1.000  H
  C114     1.0000 0.71640  0.96940  0.20030  Biso   1.000  C
  H42      1.0000 0.70460  0.94880  0.20690  Biso   1.000  H
  Cu5      1.0000 0.11461  0.72657  0.62683  Biso   1.000  Cu
  Cu6      1.0000 0.14620  0.77956  0.70021  Biso   1.000  Cu
  I21      1.0000 0.28962  0.69891  0.98953  Biso   1.000  I
  I22      1.0000 0.20690  0.57850  0.81220  Biso   1.000  I
  I23      1.0000 0.36185  0.61913  0.91656  Biso   1.000  I
  I24      1.0000 0.16631  0.62153  0.94796  Biso   1.000  I
  I25      1.0000 0.59761  0.62385  0.36844  Biso   1.000  I
  I26      1.0000 0.57534  0.57681  0.50230  Biso   1.000  I
  I27      1.0000 0.40597  0.81423  0.75430  Biso   1.000  I
  I28      1.0000 0.31462  0.71069  0.55110  Biso   1.000  I
  I29      1.0000 0.44546  0.70134  0.77245  Biso   1.000  I
  I30      1.0000 0.35135  0.80586  0.55918  Biso   1.000  I
  O25      1.0000 0.14717  0.70022  0.69962  Biso   1.000  O
  O26      1.0000 0.17541  0.74414  0.76117  Biso   1.000  O
  O27      1.0000 0.31741  0.53511  0.10401  Biso   1.000  O
  O28      1.0000 0.38609  0.53495  0.09331  Biso   1.000  O
  O29      1.0000 0.45111  0.53484  0.21351  Biso   1.000  O
  O30      1.0000 0.38191  0.53503  0.22398  Biso   1.000  O
  O31      1.0000 0.61294  0.69528  0.62553  Biso   1.000  O
  O32      1.0000 0.58566  0.73949  0.56459  Biso   1.000  O
  O33      1.0000 0.18330  0.73406  0.63648  Biso   1.000  O
  O34      1.0000 0.20988  0.77766  0.69747  Biso   1.000  O
  O35      1.0000 0.57955  0.72682  0.69435  Biso   1.000  O
  O36      1.0000 0.55157  0.77058  0.63149  Biso   1.000  O
  C115     1.0000 0.19630  0.68858  0.80070  Biso   1.000  C
  C116     1.0000 0.22330  0.70063  0.85780  Biso   1.000  C
  H43      1.0000 0.22540  0.72410  0.86490  Biso   1.000  H
  C117     1.0000 0.24700  0.67862  0.90410  Biso   1.000  C
  C118     1.0000 0.24380  0.64368  0.89420  Biso   1.000  C
  C119     1.0000 0.21570  0.63197  0.83730  Biso   1.000  C
  C120     1.0000 0.19290  0.65464  0.79120  Biso   1.000  C
  H44      1.0000 0.17470  0.64640  0.75250  Biso   1.000  H
  C121     1.0000 0.17141  0.71304  0.74960  Biso   1.000  C
  C122     1.0000 0.31750  0.57169  0.03367  Biso   1.000  C
  C123     1.0000 0.26920  0.58349  0.01660  Biso   1.000  C
  H45      1.0000 0.25220  0.57520  0.03530  Biso   1.000  H
  C124     1.0000 0.24480  0.60724  0.97250  Biso   1.000  C
  C125     1.0000 0.26990  0.61858  0.94410  Biso   1.000  C
  C126     1.0000 0.31840  0.60602  0.96070  Biso   1.000  C
  C127     1.0000 0.34320  0.58297  0.00600  Biso   1.000  C
  H46      1.0000 0.37650  0.57510  0.01770  Biso   1.000  H
  C128     1.0000 0.34270  0.54491  0.08113  Biso   1.000  C
  C129     1.0000 0.45240  0.57078  0.28446  Biso   1.000  C
  C130     1.0000 0.50020  0.58279  0.30100  Biso   1.000  C
  H47      1.0000 0.51680  0.57550  0.28110  Biso   1.000  H
  C131     1.0000 0.52490  0.60596  0.34730  Biso   1.000  C
  C132     1.0000 0.50223  0.61719  0.37764  Biso   1.000  C
  C133     1.0000 0.45310  0.60502  0.35940  Biso   1.000  C
  H48      1.0000 0.43600  0.61290  0.37850  Biso   1.000  H
  C134     1.0000 0.42860  0.58189  0.31450  Biso   1.000  C
  H49      1.0000 0.39580  0.57360  0.30420  Biso   1.000  H
  C135     1.0000 0.42640  0.54464  0.23680  Biso   1.000  C
  C136     1.0000 0.56982  0.68491  0.52414  Biso   1.000  C
  C137     1.0000 0.57957  0.65077  0.53326  Biso   1.000  C
  H50      1.0000 0.60030  0.64240  0.57170  Biso   1.000  H
  C138     1.0000 0.55869  0.62831  0.48546  Biso   1.000  C
  C139     1.0000 0.52748  0.64044  0.42862  Biso   1.000  C
  C140     1.0000 0.51824  0.67484  0.42063  Biso   1.000  C
  H51      1.0000 0.49750  0.68340  0.38230  Biso   1.000  H
  C141     1.0000 0.53867  0.69709  0.46741  Biso   1.000  C
  H52      1.0000 0.53150  0.72040  0.46090  Biso   1.000  H
  C142     1.0000 0.59135  0.70825  0.57584  Biso   1.000  C
  C143     1.0000 0.26559  0.75621  0.66820  Biso   1.000  C
  C144     1.0000 0.30440  0.77767  0.70240  Biso   1.000  C
  H53      1.0000 0.30040  0.79280  0.72730  Biso   1.000  H
  C145     1.0000 0.34950  0.77796  0.70170  Biso   1.000  C
  C146     1.0000 0.35850  0.75549  0.66940  Biso   1.000  C
  C147     1.0000 0.32020  0.73150  0.63810  Biso   1.000  C
  C148     1.0000 0.27400  0.73301  0.63600  Biso   1.000  C
  H54      1.0000 0.24760  0.71770  0.61190  Biso   1.000  H
  C149     1.0000 0.21534  0.75639  0.66770  Biso   1.000  C
  C150     1.0000 0.49796  0.75104  0.66530  Biso   1.000  C
  C151     1.0000 0.45970  0.77218  0.62910  Biso   1.000  C
  H55      1.0000 0.46420  0.78640  0.60360  Biso   1.000  H
  C152     1.0000 0.41330  0.77330  0.62910  Biso   1.000  C
  C153     1.0000 0.40740  0.75415  0.66870  Biso   1.000  C
  C154     1.0000 0.44720  0.73250  0.70540  Biso   1.000  C
  C155     1.0000 0.49210  0.73114  0.70250  Biso   1.000  C
  H56      1.0000 0.51860  0.71600  0.72700  Biso   1.000  H
  C156     1.0000 0.54757  0.74920  0.66400  Biso   1.000  C
  N5       1.0000 0.09617  0.68392  0.57012  Biso   1.000  N
  C157     1.0000 0.10270  0.65320  0.58460  Biso   1.000  C
  C158     1.0000 0.09510  0.62310  0.55710  Biso   1.000  C
  C159     1.0000 0.09190  0.62720  0.50330  Biso   1.000  C
  C160     1.0000 0.09950  0.66030  0.48860  Biso   1.000  C
  C161     1.0000 0.10330  0.68850  0.52340  Biso   1.000  C
  C162     1.0000 0.06740  0.63000  0.49760  Biso   1.000  C
  C163     1.0000 0.03740  0.65990  0.47750  Biso   1.000  C
  C164     1.0000 0.05200  0.68750  0.51620  Biso   1.000  C
  N6       1.0000 0.16618  0.82225  0.75729  Biso   1.000  N
  C165     1.0000 0.18160  0.85140  0.74440  Biso   1.000  C
  H57      1.0000 0.18430  0.85320  0.71070  Biso   1.000  H
  C166     1.0000 0.19350  0.87900  0.78280  Biso   1.000  C
  H58      1.0000 0.20130  0.89990  0.77220  Biso   1.000  H
  C167     1.0000 0.19420  0.87720  0.83300  Biso   1.000  C
  H59      1.0000 0.21220  0.89240  0.86440  Biso   1.000  H
  C168     1.0000 0.16750  0.85240  0.83340  Biso   1.000  C
  H60      1.0000 0.15250  0.85360  0.85690  Biso   1.000  H
  C169     1.0000 0.16010  0.82410  0.80040  Biso   1.000  C
  H61      1.0000 0.14970  0.80420  0.81100  Biso   1.000  H
  C170     1.0000 0.25510  0.52800  0.18570  Biso   1.000  C
  H62      1.0000 0.26740  0.54900  0.18090  Biso   1.000  H
  C171     1.0000 0.21640  0.53060  0.20030  Biso   1.000  C
  H63      1.0000 0.20460  0.55120  0.20690  Biso   1.000  H
  Cu7      1.0000 0.61461  0.22657  0.62683  Biso   1.000  Cu
  Cu8      1.0000 0.64620  0.27956  0.70021  Biso   1.000  Cu
  I31      1.0000 0.78962  0.19891  0.98953  Biso   1.000  I
  I32      1.0000 0.70690  0.07850  0.81220  Biso   1.000  I
  I33      1.0000 0.86185  0.11913  0.91656  Biso   1.000  I
  I34      1.0000 0.66631  0.12153  0.94796  Biso   1.000  I
  I35      1.0000 0.09761  0.12385  0.36844  Biso   1.000  I
  I36      1.0000 0.07534  0.07681  0.50230  Biso   1.000  I
  I37      1.0000 0.90597  0.31423  0.75430  Biso   1.000  I
  I38      1.0000 0.81462  0.21069  0.55110  Biso   1.000  I
  I39      1.0000 0.94546  0.20134  0.77245  Biso   1.000  I
  I40      1.0000 0.85135  0.30586  0.55918  Biso   1.000  I
  O37      1.0000 0.64717  0.20022  0.69962  Biso   1.000  O
  O38      1.0000 0.67541  0.24414  0.76117  Biso   1.000  O
  O39      1.0000 0.81741  0.03511  0.10401  Biso   1.000  O
  O40      1.0000 0.88609  0.03495  0.09331  Biso   1.000  O
  O41      1.0000 0.95111  0.03484  0.21351  Biso   1.000  O
  O42      1.0000 0.88191  0.03503  0.22398  Biso   1.000  O
  O43      1.0000 0.11294  0.19528  0.62553  Biso   1.000  O
  O44      1.0000 0.08566  0.23949  0.56459  Biso   1.000  O
  O45      1.0000 0.68330  0.23406  0.63648  Biso   1.000  O
  O46      1.0000 0.70988  0.27766  0.69747  Biso   1.000  O
  O47      1.0000 0.07955  0.22682  0.69435  Biso   1.000  O
  O48      1.0000 0.05157  0.27058  0.63149  Biso   1.000  O
  C172     1.0000 0.69630  0.18858  0.80070  Biso   1.000  C
  C173     1.0000 0.72330  0.20063  0.85780  Biso   1.000  C
  H64      1.0000 0.72540  0.22410  0.86490  Biso   1.000  H
  C174     1.0000 0.74700  0.17862  0.90410  Biso   1.000  C
  C175     1.0000 0.74380  0.14368  0.89420  Biso   1.000  C
  C176     1.0000 0.71570  0.13197  0.83730  Biso   1.000  C
  C177     1.0000 0.69290  0.15464  0.79120  Biso   1.000  C
  H65      1.0000 0.67470  0.14640  0.75250  Biso   1.000  H
  C178     1.0000 0.67141  0.21304  0.74960  Biso   1.000  C
  C179     1.0000 0.81750  0.07169  0.03367  Biso   1.000  C
  C180     1.0000 0.76920  0.08349  0.01660  Biso   1.000  C
  H66      1.0000 0.75220  0.07520  0.03530  Biso   1.000  H
  C181     1.0000 0.74480  0.10724  0.97250  Biso   1.000  C
  C182     1.0000 0.76990  0.11858  0.94410  Biso   1.000  C
  C183     1.0000 0.81840  0.10602  0.96070  Biso   1.000  C
  C184     1.0000 0.84320  0.08297  0.00600  Biso   1.000  C
  H67      1.0000 0.87650  0.07510  0.01770  Biso   1.000  H
  C185     1.0000 0.84270  0.04491  0.08113  Biso   1.000  C
  C186     1.0000 0.95240  0.07078  0.28446  Biso   1.000  C
  C187     1.0000 0.00020  0.08279  0.30100  Biso   1.000  C
  H68      1.0000 0.01680  0.07550  0.28110  Biso   1.000  H
  C188     1.0000 0.02490  0.10596  0.34730  Biso   1.000  C
  C189     1.0000 0.00223  0.11719  0.37764  Biso   1.000  C
  C190     1.0000 0.95310  0.10502  0.35940  Biso   1.000  C
  H69      1.0000 0.93600  0.11290  0.37850  Biso   1.000  H
  C191     1.0000 0.92860  0.08189  0.31450  Biso   1.000  C
  H70      1.0000 0.89580  0.07360  0.30420  Biso   1.000  H
  C192     1.0000 0.92640  0.04464  0.23680  Biso   1.000  C
  C193     1.0000 0.06982  0.18491  0.52414  Biso   1.000  C
  C194     1.0000 0.07957  0.15077  0.53326  Biso   1.000  C
  H71      1.0000 0.10030  0.14240  0.57170  Biso   1.000  H
  C195     1.0000 0.05869  0.12831  0.48546  Biso   1.000  C
  C196     1.0000 0.02748  0.14044  0.42862  Biso   1.000  C
  C197     1.0000 0.01824  0.17484  0.42063  Biso   1.000  C
  H72      1.0000 0.99750  0.18340  0.38230  Biso   1.000  H
  C198     1.0000 0.03867  0.19709  0.46741  Biso   1.000  C
  H73      1.0000 0.03150  0.22040  0.46090  Biso   1.000  H
  C199     1.0000 0.09135  0.20825  0.57584  Biso   1.000  C
  C200     1.0000 0.76559  0.25621  0.66820  Biso   1.000  C
  C201     1.0000 0.80440  0.27767  0.70240  Biso   1.000  C
  H74      1.0000 0.80040  0.29280  0.72730  Biso   1.000  H
  C202     1.0000 0.84950  0.27796  0.70170  Biso   1.000  C
  C203     1.0000 0.85850  0.25549  0.66940  Biso   1.000  C
  C204     1.0000 0.82020  0.23150  0.63810  Biso   1.000  C
  C205     1.0000 0.77400  0.23301  0.63600  Biso   1.000  C
  H75      1.0000 0.74760  0.21770  0.61190  Biso   1.000  H
  C206     1.0000 0.71534  0.25639  0.66770  Biso   1.000  C
  C207     1.0000 0.99796  0.25104  0.66530  Biso   1.000  C
  C208     1.0000 0.95970  0.27218  0.62910  Biso   1.000  C
  H76      1.0000 0.96420  0.28640  0.60360  Biso   1.000  H
  C209     1.0000 0.91330  0.27330  0.62910  Biso   1.000  C
  C210     1.0000 0.90740  0.25415  0.66870  Biso   1.000  C
  C211     1.0000 0.94720  0.23250  0.70540  Biso   1.000  C
  C212     1.0000 0.99210  0.23114  0.70250  Biso   1.000  C
  H77      1.0000 0.01860  0.21600  0.72700  Biso   1.000  H
  C213     1.0000 0.04757  0.24920  0.66400  Biso   1.000  C
  N7       1.0000 0.59617  0.18392  0.57012  Biso   1.000  N
  C214     1.0000 0.60270  0.15320  0.58460  Biso   1.000  C
  C215     1.0000 0.59510  0.12310  0.55710  Biso   1.000  C
  C216     1.0000 0.59190  0.12720  0.50330  Biso   1.000  C
  C217     1.0000 0.59950  0.16030  0.48860  Biso   1.000  C
  C218     1.0000 0.60330  0.18850  0.52340  Biso   1.000  C
  C219     1.0000 0.56740  0.13000  0.49760  Biso   1.000  C
  C220     1.0000 0.53740  0.15990  0.47750  Biso   1.000  C
  C221     1.0000 0.55200  0.18750  0.51620  Biso   1.000  C
  N8       1.0000 0.66618  0.32225  0.75729  Biso   1.000  N
  C222     1.0000 0.68160  0.35140  0.74440  Biso   1.000  C
  H78      1.0000 0.68430  0.35320  0.71070  Biso   1.000  H
  C223     1.0000 0.69350  0.37900  0.78280  Biso   1.000  C
  H79      1.0000 0.70130  0.39990  0.77220  Biso   1.000  H
  C224     1.0000 0.69420  0.37720  0.83300  Biso   1.000  C
  H80      1.0000 0.71220  0.39240  0.86440  Biso   1.000  H
  C225     1.0000 0.66750  0.35240  0.83340  Biso   1.000  C
  H81      1.0000 0.65250  0.35360  0.85690  Biso   1.000  H
  C226     1.0000 0.66010  0.32410  0.80040  Biso   1.000  C
  H82      1.0000 0.64970  0.30420  0.81100  Biso   1.000  H
  C227     1.0000 0.75510  0.02800  0.18570  Biso   1.000  C
  H83      1.0000 0.76740  0.04900  0.18090  Biso   1.000  H
  C228     1.0000 0.71640  0.03060  0.20030  Biso   1.000  C
  H84      1.0000 0.70460  0.05120  0.20690  Biso   1.000  H
  Cu9      1.0000 0.42514  0.50000  0.15228  Biso   1.000  Cu
  Cu10     1.0000 0.34339  0.50000  0.16526  Biso   1.000  Cu
  N9       1.0000 0.27800  0.50000  0.17720  Biso   1.000  N
  C229     1.0000 0.19850  0.50000  0.20390  Biso   1.000  C
  H85      1.0000 0.17010  0.50000  0.20940  Biso   1.000  H
  Cu11     1.0000 0.92514  0.00000  0.15228  Biso   1.000  Cu
  Cu12     1.0000 0.84339  0.00000  0.16526  Biso   1.000  Cu
  N10      1.0000 0.77800  0.00000  0.17720  Biso   1.000  N
  C230     1.0000 0.69850  0.00000  0.20390  Biso   1.000  C
  H86      1.0000 0.67010  0.00000  0.20940  Biso   1.000  H
  Cu13     1.0000 0.88539  0.27343  0.37317  Biso   1.000  Cu
  Cu14     1.0000 0.85380  0.22044  0.29979  Biso   1.000  Cu
  I41      1.0000 0.71038  0.30109  0.01047  Biso   1.000  I
  I42      1.0000 0.79310  0.42150  0.18780  Biso   1.000  I
  I43      1.0000 0.63815  0.38087  0.08344  Biso   1.000  I
  I44      1.0000 0.83369  0.37847  0.05204  Biso   1.000  I
  I45      1.0000 0.40239  0.37615  0.63156  Biso   1.000  I
  I46      1.0000 0.42466  0.42319  0.49770  Biso   1.000  I
  I47      1.0000 0.59403  0.18577  0.24570  Biso   1.000  I
  I48      1.0000 0.68538  0.28931  0.44890  Biso   1.000  I
  I49      1.0000 0.55454  0.29866  0.22755  Biso   1.000  I
  I50      1.0000 0.64865  0.19414  0.44082  Biso   1.000  I
  O49      1.0000 0.85283  0.29978  0.30038  Biso   1.000  O
  O50      1.0000 0.82459  0.25586  0.23883  Biso   1.000  O
  O51      1.0000 0.68259  0.46489  0.89599  Biso   1.000  O
  O52      1.0000 0.61391  0.46505  0.90669  Biso   1.000  O
  O53      1.0000 0.54889  0.46516  0.78649  Biso   1.000  O
  O54      1.0000 0.61809  0.46497  0.77602  Biso   1.000  O
  O55      1.0000 0.38706  0.30472  0.37447  Biso   1.000  O
  O56      1.0000 0.41434  0.26051  0.43541  Biso   1.000  O
  O57      1.0000 0.81670  0.26594  0.36352  Biso   1.000  O
  O58      1.0000 0.79012  0.22234  0.30253  Biso   1.000  O
  O59      1.0000 0.42045  0.27318  0.30565  Biso   1.000  O
  O60      1.0000 0.44843  0.22942  0.36851  Biso   1.000  O
  C231     1.0000 0.80370  0.31142  0.19930  Biso   1.000  C
  C232     1.0000 0.77670  0.29937  0.14220  Biso   1.000  C
  H87      1.0000 0.77460  0.27590  0.13510  Biso   1.000  H
  C233     1.0000 0.75300  0.32138  0.09590  Biso   1.000  C
  C234     1.0000 0.75620  0.35632  0.10580  Biso   1.000  C
  C235     1.0000 0.78430  0.36803  0.16270  Biso   1.000  C
  C236     1.0000 0.80710  0.34536  0.20880  Biso   1.000  C
  H88      1.0000 0.82530  0.35360  0.24750  Biso   1.000  H
  C237     1.0000 0.82859  0.28696  0.25040  Biso   1.000  C
  C238     1.0000 0.68250  0.42831  0.96633  Biso   1.000  C
  C239     1.0000 0.73080  0.41651  0.98340  Biso   1.000  C
  H89      1.0000 0.74780  0.42480  0.96470  Biso   1.000  H
  C240     1.0000 0.75520  0.39276  0.02750  Biso   1.000  C
  C241     1.0000 0.73010  0.38142  0.05590  Biso   1.000  C
  C242     1.0000 0.68160  0.39398  0.03930  Biso   1.000  C
  C243     1.0000 0.65680  0.41703  0.99400  Biso   1.000  C
  H90      1.0000 0.62350  0.42490  0.98230  Biso   1.000  H
  C244     1.0000 0.65730  0.45509  0.91887  Biso   1.000  C
  C245     1.0000 0.54760  0.42922  0.71554  Biso   1.000  C
  C246     1.0000 0.49980  0.41721  0.69900  Biso   1.000  C
  H91      1.0000 0.48320  0.42450  0.71890  Biso   1.000  H
  C247     1.0000 0.47510  0.39404  0.65270  Biso   1.000  C
  C248     1.0000 0.49777  0.38281  0.62236  Biso   1.000  C
  C249     1.0000 0.54690  0.39498  0.64060  Biso   1.000  C
  H92      1.0000 0.56400  0.38710  0.62150  Biso   1.000  H
  C250     1.0000 0.57140  0.41811  0.68550  Biso   1.000  C
  H93      1.0000 0.60420  0.42640  0.69580  Biso   1.000  H
  C251     1.0000 0.57360  0.45536  0.76320  Biso   1.000  C
  C252     1.0000 0.43018  0.31509  0.47586  Biso   1.000  C
  C253     1.0000 0.42043  0.34923  0.46674  Biso   1.000  C
  H94      1.0000 0.39970  0.35760  0.42830  Biso   1.000  H
  C254     1.0000 0.44131  0.37169  0.51454  Biso   1.000  C
  C255     1.0000 0.47252  0.35956  0.57138  Biso   1.000  C
  C256     1.0000 0.48176  0.32516  0.57937  Biso   1.000  C
  H95      1.0000 0.50250  0.31660  0.61770  Biso   1.000  H
  C257     1.0000 0.46133  0.30291  0.53259  Biso   1.000  C
  H96      1.0000 0.46850  0.27960  0.53910  Biso   1.000  H
  C258     1.0000 0.40865  0.29175  0.42416  Biso   1.000  C
  C259     1.0000 0.73441  0.24379  0.33180  Biso   1.000  C
  C260     1.0000 0.69560  0.22233  0.29760  Biso   1.000  C
  H97      1.0000 0.69960  0.20720  0.27270  Biso   1.000  H
  C261     1.0000 0.65050  0.22204  0.29830  Biso   1.000  C
  C262     1.0000 0.64150  0.24451  0.33060  Biso   1.000  C
  C263     1.0000 0.67980  0.26850  0.36190  Biso   1.000  C
  C264     1.0000 0.72600  0.26699  0.36400  Biso   1.000  C
  H98      1.0000 0.75240  0.28230  0.38810  Biso   1.000  H
  C265     1.0000 0.78466  0.24361  0.33230  Biso   1.000  C
  C266     1.0000 0.50204  0.24896  0.33470  Biso   1.000  C
  C267     1.0000 0.54030  0.22782  0.37090  Biso   1.000  C
  H99      1.0000 0.53580  0.21360  0.39640  Biso   1.000  H
  C268     1.0000 0.58670  0.22670  0.37090  Biso   1.000  C
  C269     1.0000 0.59260  0.24585  0.33130  Biso   1.000  C
  C270     1.0000 0.55280  0.26750  0.29460  Biso   1.000  C
  C271     1.0000 0.50790  0.26886  0.29750  Biso   1.000  C
  H100     1.0000 0.48140  0.28400  0.27300  Biso   1.000  H
  C272     1.0000 0.45243  0.25080  0.33600  Biso   1.000  C
  N11      1.0000 0.90383  0.31608  0.42988  Biso   1.000  N
  C273     1.0000 0.89730  0.34680  0.41540  Biso   1.000  C
  C274     1.0000 0.90490  0.37690  0.44290  Biso   1.000  C
  C275     1.0000 0.90810  0.37280  0.49670  Biso   1.000  C
  C276     1.0000 0.90050  0.33970  0.51140  Biso   1.000  C
  C277     1.0000 0.89670  0.31150  0.47660  Biso   1.000  C
  C278     1.0000 0.93260  0.37000  0.50240  Biso   1.000  C
  C279     1.0000 0.96260  0.34010  0.52250  Biso   1.000  C
  C280     1.0000 0.94800  0.31250  0.48380  Biso   1.000  C
  N12      1.0000 0.83382  0.17775  0.24271  Biso   1.000  N
  C281     1.0000 0.81840  0.14860  0.25560  Biso   1.000  C
  H101     1.0000 0.81570  0.14680  0.28930  Biso   1.000  H
  C282     1.0000 0.80650  0.12100  0.21720  Biso   1.000  C
  H102     1.0000 0.79870  0.10010  0.22780  Biso   1.000  H
  C283     1.0000 0.80580  0.12280  0.16700  Biso   1.000  C
  H103     1.0000 0.78780  0.10760  0.13560  Biso   1.000  H
  C284     1.0000 0.83250  0.14760  0.16660  Biso   1.000  C
  H104     1.0000 0.84750  0.14640  0.14310  Biso   1.000  H
  C285     1.0000 0.83990  0.17590  0.19960  Biso   1.000  C
  H105     1.0000 0.85030  0.19580  0.18900  Biso   1.000  H
  C286     1.0000 0.74490  0.47200  0.81430  Biso   1.000  C
  H106     1.0000 0.73260  0.45100  0.81910  Biso   1.000  H
  C287     1.0000 0.78360  0.46940  0.79970  Biso   1.000  C
  H107     1.0000 0.79540  0.44880  0.79310  Biso   1.000  H
  Cu15     1.0000 0.38539  0.77343  0.37317  Biso   1.000  Cu
  Cu16     1.0000 0.35380  0.72044  0.29979  Biso   1.000  Cu
  I51      1.0000 0.21038  0.80109  0.01047  Biso   1.000  I
  I52      1.0000 0.29310  0.92150  0.18780  Biso   1.000  I
  I53      1.0000 0.13815  0.88087  0.08344  Biso   1.000  I
  I54      1.0000 0.33369  0.87847  0.05204  Biso   1.000  I
  I55      1.0000 0.90239  0.87615  0.63156  Biso   1.000  I
  I56      1.0000 0.92466  0.92319  0.49770  Biso   1.000  I
  I57      1.0000 0.09403  0.68577  0.24570  Biso   1.000  I
  I58      1.0000 0.18538  0.78931  0.44890  Biso   1.000  I
  I59      1.0000 0.05454  0.79866  0.22755  Biso   1.000  I
  I60      1.0000 0.14865  0.69414  0.44082  Biso   1.000  I
  O61      1.0000 0.35283  0.79978  0.30038  Biso   1.000  O
  O62      1.0000 0.32459  0.75586  0.23883  Biso   1.000  O
  O63      1.0000 0.18259  0.96489  0.89599  Biso   1.000  O
  O64      1.0000 0.11391  0.96505  0.90669  Biso   1.000  O
  O65      1.0000 0.04889  0.96516  0.78649  Biso   1.000  O
  O66      1.0000 0.11809  0.96497  0.77602  Biso   1.000  O
  O67      1.0000 0.88706  0.80472  0.37447  Biso   1.000  O
  O68      1.0000 0.91434  0.76051  0.43541  Biso   1.000  O
  O69      1.0000 0.31670  0.76594  0.36352  Biso   1.000  O
  O70      1.0000 0.29012  0.72234  0.30253  Biso   1.000  O
  O71      1.0000 0.92045  0.77318  0.30565  Biso   1.000  O
  O72      1.0000 0.94843  0.72942  0.36851  Biso   1.000  O
  C288     1.0000 0.30370  0.81142  0.19930  Biso   1.000  C
  C289     1.0000 0.27670  0.79937  0.14220  Biso   1.000  C
  H108     1.0000 0.27460  0.77590  0.13510  Biso   1.000  H
  C290     1.0000 0.25300  0.82138  0.09590  Biso   1.000  C
  C291     1.0000 0.25620  0.85632  0.10580  Biso   1.000  C
  C292     1.0000 0.28430  0.86803  0.16270  Biso   1.000  C
  C293     1.0000 0.30710  0.84536  0.20880  Biso   1.000  C
  H109     1.0000 0.32530  0.85360  0.24750  Biso   1.000  H
  C294     1.0000 0.32859  0.78696  0.25040  Biso   1.000  C
  C295     1.0000 0.18250  0.92831  0.96633  Biso   1.000  C
  C296     1.0000 0.23080  0.91651  0.98340  Biso   1.000  C
  H110     1.0000 0.24780  0.92480  0.96470  Biso   1.000  H
  C297     1.0000 0.25520  0.89276  0.02750  Biso   1.000  C
  C298     1.0000 0.23010  0.88142  0.05590  Biso   1.000  C
  C299     1.0000 0.18160  0.89398  0.03930  Biso   1.000  C
  C300     1.0000 0.15680  0.91703  0.99400  Biso   1.000  C
  H111     1.0000 0.12350  0.92490  0.98230  Biso   1.000  H
  C301     1.0000 0.15730  0.95509  0.91887  Biso   1.000  C
  C302     1.0000 0.04760  0.92922  0.71554  Biso   1.000  C
  C303     1.0000 0.99980  0.91721  0.69900  Biso   1.000  C
  H112     1.0000 0.98320  0.92450  0.71890  Biso   1.000  H
  C304     1.0000 0.97510  0.89404  0.65270  Biso   1.000  C
  C305     1.0000 0.99777  0.88281  0.62236  Biso   1.000  C
  C306     1.0000 0.04690  0.89498  0.64060  Biso   1.000  C
  H113     1.0000 0.06400  0.88710  0.62150  Biso   1.000  H
  C307     1.0000 0.07140  0.91811  0.68550  Biso   1.000  C
  H114     1.0000 0.10420  0.92640  0.69580  Biso   1.000  H
  C308     1.0000 0.07360  0.95536  0.76320  Biso   1.000  C
  C309     1.0000 0.93018  0.81509  0.47586  Biso   1.000  C
  C310     1.0000 0.92043  0.84923  0.46674  Biso   1.000  C
  H115     1.0000 0.89970  0.85760  0.42830  Biso   1.000  H
  C311     1.0000 0.94131  0.87169  0.51454  Biso   1.000  C
  C312     1.0000 0.97252  0.85956  0.57138  Biso   1.000  C
  C313     1.0000 0.98176  0.82516  0.57937  Biso   1.000  C
  H116     1.0000 0.00250  0.81660  0.61770  Biso   1.000  H
  C314     1.0000 0.96133  0.80291  0.53259  Biso   1.000  C
  H117     1.0000 0.96850  0.77960  0.53910  Biso   1.000  H
  C315     1.0000 0.90865  0.79175  0.42416  Biso   1.000  C
  C316     1.0000 0.23441  0.74379  0.33180  Biso   1.000  C
  C317     1.0000 0.19560  0.72233  0.29760  Biso   1.000  C
  H118     1.0000 0.19960  0.70720  0.27270  Biso   1.000  H
  C318     1.0000 0.15050  0.72204  0.29830  Biso   1.000  C
  C319     1.0000 0.14150  0.74451  0.33060  Biso   1.000  C
  C320     1.0000 0.17980  0.76850  0.36190  Biso   1.000  C
  C321     1.0000 0.22600  0.76699  0.36400  Biso   1.000  C
  H119     1.0000 0.25240  0.78230  0.38810  Biso   1.000  H
  C322     1.0000 0.28466  0.74361  0.33230  Biso   1.000  C
  C323     1.0000 0.00204  0.74896  0.33470  Biso   1.000  C
  C324     1.0000 0.04030  0.72782  0.37090  Biso   1.000  C
  H120     1.0000 0.03580  0.71360  0.39640  Biso   1.000  H
  C325     1.0000 0.08670  0.72670  0.37090  Biso   1.000  C
  C326     1.0000 0.09260  0.74585  0.33130  Biso   1.000  C
  C327     1.0000 0.05280  0.76750  0.29460  Biso   1.000  C
  C328     1.0000 0.00790  0.76886  0.29750  Biso   1.000  C
  H121     1.0000 0.98140  0.78400  0.27300  Biso   1.000  H
  C329     1.0000 0.95243  0.75080  0.33600  Biso   1.000  C
  N13      1.0000 0.40383  0.81608  0.42988  Biso   1.000  N
  C330     1.0000 0.39730  0.84680  0.41540  Biso   1.000  C
  C331     1.0000 0.40490  0.87690  0.44290  Biso   1.000  C
  C332     1.0000 0.40810  0.87280  0.49670  Biso   1.000  C
  C333     1.0000 0.40050  0.83970  0.51140  Biso   1.000  C
  C334     1.0000 0.39670  0.81150  0.47660  Biso   1.000  C
  C335     1.0000 0.43260  0.87000  0.50240  Biso   1.000  C
  C336     1.0000 0.46260  0.84010  0.52250  Biso   1.000  C
  C337     1.0000 0.44800  0.81250  0.48380  Biso   1.000  C
  N14      1.0000 0.33382  0.67775  0.24271  Biso   1.000  N
  C338     1.0000 0.31840  0.64860  0.25560  Biso   1.000  C
  H122     1.0000 0.31570  0.64680  0.28930  Biso   1.000  H
  C339     1.0000 0.30650  0.62100  0.21720  Biso   1.000  C
  H123     1.0000 0.29870  0.60010  0.22780  Biso   1.000  H
  C340     1.0000 0.30580  0.62280  0.16700  Biso   1.000  C
  H124     1.0000 0.28780  0.60760  0.13560  Biso   1.000  H
  C341     1.0000 0.33250  0.64760  0.16660  Biso   1.000  C
  H125     1.0000 0.34750  0.64640  0.14310  Biso   1.000  H
  C342     1.0000 0.33990  0.67590  0.19960  Biso   1.000  C
  H126     1.0000 0.35030  0.69580  0.18900  Biso   1.000  H
  C343     1.0000 0.24490  0.97200  0.81430  Biso   1.000  C
  H127     1.0000 0.23260  0.95100  0.81910  Biso   1.000  H
  C344     1.0000 0.28360  0.96940  0.79970  Biso   1.000  C
  H128     1.0000 0.29540  0.94880  0.79310  Biso   1.000  H
  Cu17     1.0000 0.88539  0.72657  0.37317  Biso   1.000  Cu
  Cu18     1.0000 0.85380  0.77956  0.29979  Biso   1.000  Cu
  I61      1.0000 0.71038  0.69891  0.01047  Biso   1.000  I
  I62      1.0000 0.79310  0.57850  0.18780  Biso   1.000  I
  I63      1.0000 0.63815  0.61913  0.08344  Biso   1.000  I
  I64      1.0000 0.83369  0.62153  0.05204  Biso   1.000  I
  I65      1.0000 0.40239  0.62385  0.63156  Biso   1.000  I
  I66      1.0000 0.42466  0.57681  0.49770  Biso   1.000  I
  I67      1.0000 0.59403  0.81423  0.24570  Biso   1.000  I
  I68      1.0000 0.68538  0.71069  0.44890  Biso   1.000  I
  I69      1.0000 0.55454  0.70134  0.22755  Biso   1.000  I
  I70      1.0000 0.64865  0.80586  0.44082  Biso   1.000  I
  O73      1.0000 0.85283  0.70022  0.30038  Biso   1.000  O
  O74      1.0000 0.82459  0.74414  0.23883  Biso   1.000  O
  O75      1.0000 0.68259  0.53511  0.89599  Biso   1.000  O
  O76      1.0000 0.61391  0.53495  0.90669  Biso   1.000  O
  O77      1.0000 0.54889  0.53484  0.78649  Biso   1.000  O
  O78      1.0000 0.61809  0.53503  0.77602  Biso   1.000  O
  O79      1.0000 0.38706  0.69528  0.37447  Biso   1.000  O
  O80      1.0000 0.41434  0.73949  0.43541  Biso   1.000  O
  O81      1.0000 0.81670  0.73406  0.36352  Biso   1.000  O
  O82      1.0000 0.79012  0.77766  0.30253  Biso   1.000  O
  O83      1.0000 0.42045  0.72682  0.30565  Biso   1.000  O
  O84      1.0000 0.44843  0.77058  0.36851  Biso   1.000  O
  C345     1.0000 0.80370  0.68858  0.19930  Biso   1.000  C
  C346     1.0000 0.77670  0.70063  0.14220  Biso   1.000  C
  H129     1.0000 0.77460  0.72410  0.13510  Biso   1.000  H
  C347     1.0000 0.75300  0.67862  0.09590  Biso   1.000  C
  C348     1.0000 0.75620  0.64368  0.10580  Biso   1.000  C
  C349     1.0000 0.78430  0.63197  0.16270  Biso   1.000  C
  C350     1.0000 0.80710  0.65464  0.20880  Biso   1.000  C
  H130     1.0000 0.82530  0.64640  0.24750  Biso   1.000  H
  C351     1.0000 0.82859  0.71304  0.25040  Biso   1.000  C
  C352     1.0000 0.68250  0.57169  0.96633  Biso   1.000  C
  C353     1.0000 0.73080  0.58349  0.98340  Biso   1.000  C
  H131     1.0000 0.74780  0.57520  0.96470  Biso   1.000  H
  C354     1.0000 0.75520  0.60724  0.02750  Biso   1.000  C
  C355     1.0000 0.73010  0.61858  0.05590  Biso   1.000  C
  C356     1.0000 0.68160  0.60602  0.03930  Biso   1.000  C
  C357     1.0000 0.65680  0.58297  0.99400  Biso   1.000  C
  H132     1.0000 0.62350  0.57510  0.98230  Biso   1.000  H
  C358     1.0000 0.65730  0.54491  0.91887  Biso   1.000  C
  C359     1.0000 0.54760  0.57078  0.71554  Biso   1.000  C
  C360     1.0000 0.49980  0.58279  0.69900  Biso   1.000  C
  H133     1.0000 0.48320  0.57550  0.71890  Biso   1.000  H
  C361     1.0000 0.47510  0.60596  0.65270  Biso   1.000  C
  C362     1.0000 0.49777  0.61719  0.62236  Biso   1.000  C
  C363     1.0000 0.54690  0.60502  0.64060  Biso   1.000  C
  H134     1.0000 0.56400  0.61290  0.62150  Biso   1.000  H
  C364     1.0000 0.57140  0.58189  0.68550  Biso   1.000  C
  H135     1.0000 0.60420  0.57360  0.69580  Biso   1.000  H
  C365     1.0000 0.57360  0.54464  0.76320  Biso   1.000  C
  C366     1.0000 0.43018  0.68491  0.47586  Biso   1.000  C
  C367     1.0000 0.42043  0.65077  0.46674  Biso   1.000  C
  H136     1.0000 0.39970  0.64240  0.42830  Biso   1.000  H
  C368     1.0000 0.44131  0.62831  0.51454  Biso   1.000  C
  C369     1.0000 0.47252  0.64044  0.57138  Biso   1.000  C
  C370     1.0000 0.48176  0.67484  0.57937  Biso   1.000  C
  H137     1.0000 0.50250  0.68340  0.61770  Biso   1.000  H
  C371     1.0000 0.46133  0.69709  0.53259  Biso   1.000  C
  H138     1.0000 0.46850  0.72040  0.53910  Biso   1.000  H
  C372     1.0000 0.40865  0.70825  0.42416  Biso   1.000  C
  C373     1.0000 0.73441  0.75621  0.33180  Biso   1.000  C
  C374     1.0000 0.69560  0.77767  0.29760  Biso   1.000  C
  H139     1.0000 0.69960  0.79280  0.27270  Biso   1.000  H
  C375     1.0000 0.65050  0.77796  0.29830  Biso   1.000  C
  C376     1.0000 0.64150  0.75549  0.33060  Biso   1.000  C
  C377     1.0000 0.67980  0.73150  0.36190  Biso   1.000  C
  C378     1.0000 0.72600  0.73301  0.36400  Biso   1.000  C
  H140     1.0000 0.75240  0.71770  0.38810  Biso   1.000  H
  C379     1.0000 0.78466  0.75639  0.33230  Biso   1.000  C
  C380     1.0000 0.50204  0.75104  0.33470  Biso   1.000  C
  C381     1.0000 0.54030  0.77218  0.37090  Biso   1.000  C
  H141     1.0000 0.53580  0.78640  0.39640  Biso   1.000  H
  C382     1.0000 0.58670  0.77330  0.37090  Biso   1.000  C
  C383     1.0000 0.59260  0.75415  0.33130  Biso   1.000  C
  C384     1.0000 0.55280  0.73250  0.29460  Biso   1.000  C
  C385     1.0000 0.50790  0.73114  0.29750  Biso   1.000  C
  H142     1.0000 0.48140  0.71600  0.27300  Biso   1.000  H
  C386     1.0000 0.45243  0.74920  0.33600  Biso   1.000  C
  N15      1.0000 0.90383  0.68392  0.42988  Biso   1.000  N
  C387     1.0000 0.89730  0.65320  0.41540  Biso   1.000  C
  C388     1.0000 0.90490  0.62310  0.44290  Biso   1.000  C
  C389     1.0000 0.90810  0.62720  0.49670  Biso   1.000  C
  C390     1.0000 0.90050  0.66030  0.51140  Biso   1.000  C
  C391     1.0000 0.89670  0.68850  0.47660  Biso   1.000  C
  C392     1.0000 0.93260  0.63000  0.50240  Biso   1.000  C
  C393     1.0000 0.96260  0.65990  0.52250  Biso   1.000  C
  C394     1.0000 0.94800  0.68750  0.48380  Biso   1.000  C
  N16      1.0000 0.83382  0.82225  0.24271  Biso   1.000  N
  C395     1.0000 0.81840  0.85140  0.25560  Biso   1.000  C
  H143     1.0000 0.81570  0.85320  0.28930  Biso   1.000  H
  C396     1.0000 0.80650  0.87900  0.21720  Biso   1.000  C
  H144     1.0000 0.79870  0.89990  0.22780  Biso   1.000  H
  C397     1.0000 0.80580  0.87720  0.16700  Biso   1.000  C
  H145     1.0000 0.78780  0.89240  0.13560  Biso   1.000  H
  C398     1.0000 0.83250  0.85240  0.16660  Biso   1.000  C
  H146     1.0000 0.84750  0.85360  0.14310  Biso   1.000  H
  C399     1.0000 0.83990  0.82410  0.19960  Biso   1.000  C
  H147     1.0000 0.85030  0.80420  0.18900  Biso   1.000  H
  C400     1.0000 0.74490  0.52800  0.81430  Biso   1.000  C
  H148     1.0000 0.73260  0.54900  0.81910  Biso   1.000  H
  C401     1.0000 0.78360  0.53060  0.79970  Biso   1.000  C
  H149     1.0000 0.79540  0.55120  0.79310  Biso   1.000  H
  Cu19     1.0000 0.38539  0.22657  0.37317  Biso   1.000  Cu
  Cu20     1.0000 0.35380  0.27956  0.29979  Biso   1.000  Cu
  I71      1.0000 0.21038  0.19891  0.01047  Biso   1.000  I
  I72      1.0000 0.29310  0.07850  0.18780  Biso   1.000  I
  I73      1.0000 0.13815  0.11913  0.08344  Biso   1.000  I
  I74      1.0000 0.33369  0.12153  0.05204  Biso   1.000  I
  I75      1.0000 0.90239  0.12385  0.63156  Biso   1.000  I
  I76      1.0000 0.92466  0.07681  0.49770  Biso   1.000  I
  I77      1.0000 0.09403  0.31423  0.24570  Biso   1.000  I
  I78      1.0000 0.18538  0.21069  0.44890  Biso   1.000  I
  I79      1.0000 0.05454  0.20134  0.22755  Biso   1.000  I
  I80      1.0000 0.14865  0.30586  0.44082  Biso   1.000  I
  O85      1.0000 0.35283  0.20022  0.30038  Biso   1.000  O
  O86      1.0000 0.32459  0.24414  0.23883  Biso   1.000  O
  O87      1.0000 0.18259  0.03511  0.89599  Biso   1.000  O
  O88      1.0000 0.11391  0.03495  0.90669  Biso   1.000  O
  O89      1.0000 0.04889  0.03484  0.78649  Biso   1.000  O
  O90      1.0000 0.11809  0.03503  0.77602  Biso   1.000  O
  O91      1.0000 0.88706  0.19528  0.37447  Biso   1.000  O
  O92      1.0000 0.91434  0.23949  0.43541  Biso   1.000  O
  O93      1.0000 0.31670  0.23406  0.36352  Biso   1.000  O
  O94      1.0000 0.29012  0.27766  0.30253  Biso   1.000  O
  O95      1.0000 0.92045  0.22682  0.30565  Biso   1.000  O
  O96      1.0000 0.94843  0.27058  0.36851  Biso   1.000  O
  C402     1.0000 0.30370  0.18858  0.19930  Biso   1.000  C
  C403     1.0000 0.27670  0.20063  0.14220  Biso   1.000  C
  H150     1.0000 0.27460  0.22410  0.13510  Biso   1.000  H
  C404     1.0000 0.25300  0.17862  0.09590  Biso   1.000  C
  C405     1.0000 0.25620  0.14368  0.10580  Biso   1.000  C
  C406     1.0000 0.28430  0.13197  0.16270  Biso   1.000  C
  C407     1.0000 0.30710  0.15464  0.20880  Biso   1.000  C
  H151     1.0000 0.32530  0.14640  0.24750  Biso   1.000  H
  C408     1.0000 0.32859  0.21304  0.25040  Biso   1.000  C
  C409     1.0000 0.18250  0.07169  0.96633  Biso   1.000  C
  C410     1.0000 0.23080  0.08349  0.98340  Biso   1.000  C
  H152     1.0000 0.24780  0.07520  0.96470  Biso   1.000  H
  C411     1.0000 0.25520  0.10724  0.02750  Biso   1.000  C
  C412     1.0000 0.23010  0.11858  0.05590  Biso   1.000  C
  C413     1.0000 0.18160  0.10602  0.03930  Biso   1.000  C
  C414     1.0000 0.15680  0.08297  0.99400  Biso   1.000  C
  H153     1.0000 0.12350  0.07510  0.98230  Biso   1.000  H
  C415     1.0000 0.15730  0.04491  0.91887  Biso   1.000  C
  C416     1.0000 0.04760  0.07078  0.71554  Biso   1.000  C
  C417     1.0000 0.99980  0.08279  0.69900  Biso   1.000  C
  H154     1.0000 0.98320  0.07550  0.71890  Biso   1.000  H
  C418     1.0000 0.97510  0.10596  0.65270  Biso   1.000  C
  C419     1.0000 0.99777  0.11719  0.62236  Biso   1.000  C
  C420     1.0000 0.04690  0.10502  0.64060  Biso   1.000  C
  H155     1.0000 0.06400  0.11290  0.62150  Biso   1.000  H
  C421     1.0000 0.07140  0.08189  0.68550  Biso   1.000  C
  H156     1.0000 0.10420  0.07360  0.69580  Biso   1.000  H
  C422     1.0000 0.07360  0.04464  0.76320  Biso   1.000  C
  C423     1.0000 0.93018  0.18491  0.47586  Biso   1.000  C
  C424     1.0000 0.92043  0.15077  0.46674  Biso   1.000  C
  H157     1.0000 0.89970  0.14240  0.42830  Biso   1.000  H
  C425     1.0000 0.94131  0.12831  0.51454  Biso   1.000  C
  C426     1.0000 0.97252  0.14044  0.57138  Biso   1.000  C
  C427     1.0000 0.98176  0.17484  0.57937  Biso   1.000  C
  H158     1.0000 0.00250  0.18340  0.61770  Biso   1.000  H
  C428     1.0000 0.96133  0.19709  0.53259  Biso   1.000  C
  H159     1.0000 0.96850  0.22040  0.53910  Biso   1.000  H
  C429     1.0000 0.90865  0.20825  0.42416  Biso   1.000  C
  C430     1.0000 0.23441  0.25621  0.33180  Biso   1.000  C
  C431     1.0000 0.19560  0.27767  0.29760  Biso   1.000  C
  H160     1.0000 0.19960  0.29280  0.27270  Biso   1.000  H
  C432     1.0000 0.15050  0.27796  0.29830  Biso   1.000  C
  C433     1.0000 0.14150  0.25549  0.33060  Biso   1.000  C
  C434     1.0000 0.17980  0.23150  0.36190  Biso   1.000  C
  C435     1.0000 0.22600  0.23301  0.36400  Biso   1.000  C
  H161     1.0000 0.25240  0.21770  0.38810  Biso   1.000  H
  C436     1.0000 0.28466  0.25639  0.33230  Biso   1.000  C
  C437     1.0000 0.00204  0.25104  0.33470  Biso   1.000  C
  C438     1.0000 0.04030  0.27218  0.37090  Biso   1.000  C
  H162     1.0000 0.03580  0.28640  0.39640  Biso   1.000  H
  C439     1.0000 0.08670  0.27330  0.37090  Biso   1.000  C
  C440     1.0000 0.09260  0.25415  0.33130  Biso   1.000  C
  C441     1.0000 0.05280  0.23250  0.29460  Biso   1.000  C
  C442     1.0000 0.00790  0.23114  0.29750  Biso   1.000  C
  H163     1.0000 0.98140  0.21600  0.27300  Biso   1.000  H
  C443     1.0000 0.95243  0.24920  0.33600  Biso   1.000  C
  N17      1.0000 0.40383  0.18392  0.42988  Biso   1.000  N
  C444     1.0000 0.39730  0.15320  0.41540  Biso   1.000  C
  C445     1.0000 0.40490  0.12310  0.44290  Biso   1.000  C
  C446     1.0000 0.40810  0.12720  0.49670  Biso   1.000  C
  C447     1.0000 0.40050  0.16030  0.51140  Biso   1.000  C
  C448     1.0000 0.39670  0.18850  0.47660  Biso   1.000  C
  C449     1.0000 0.43260  0.13000  0.50240  Biso   1.000  C
  C450     1.0000 0.46260  0.15990  0.52250  Biso   1.000  C
  C451     1.0000 0.44800  0.18750  0.48380  Biso   1.000  C
  N18      1.0000 0.33382  0.32225  0.24271  Biso   1.000  N
  C452     1.0000 0.31840  0.35140  0.25560  Biso   1.000  C
  H164     1.0000 0.31570  0.35320  0.28930  Biso   1.000  H
  C453     1.0000 0.30650  0.37900  0.21720  Biso   1.000  C
  H165     1.0000 0.29870  0.39990  0.22780  Biso   1.000  H
  C454     1.0000 0.30580  0.37720  0.16700  Biso   1.000  C
  H166     1.0000 0.28780  0.39240  0.13560  Biso   1.000  H
  C455     1.0000 0.33250  0.35240  0.16660  Biso   1.000  C
  H167     1.0000 0.34750  0.35360  0.14310  Biso   1.000  H
  C456     1.0000 0.33990  0.32410  0.19960  Biso   1.000  C
  H168     1.0000 0.35030  0.30420  0.18900  Biso   1.000  H
  C457     1.0000 0.24490  0.02800  0.81430  Biso   1.000  C
  H169     1.0000 0.23260  0.04900  0.81910  Biso   1.000  H
  C458     1.0000 0.28360  0.03060  0.79970  Biso   1.000  C
  H170     1.0000 0.29540  0.05120  0.79310  Biso   1.000  H
  Cu21     1.0000 0.57486  0.50000  0.84772  Biso   1.000  Cu
  Cu22     1.0000 0.65661  0.50000  0.83474  Biso   1.000  Cu
  N19      1.0000 0.72200  0.50000  0.82280  Biso   1.000  N
  C459     1.0000 0.80150  0.50000  0.79610  Biso   1.000  C
  H171     1.0000 0.82990  0.50000  0.79060  Biso   1.000  H
  Cu23     1.0000 0.07486  0.00000  0.84772  Biso   1.000  Cu
  Cu24     1.0000 0.15661  0.00000  0.83474  Biso   1.000  Cu
  N20      1.0000 0.22200  0.00000  0.82280  Biso   1.000  N
  C460     1.0000 0.30150  0.00000  0.79610  Biso   1.000  C
  H172     1.0000 0.32990  0.00000  0.79060  Biso   1.000  H
