data_image0
_cell_length_a       37.011
_cell_length_b       8.5952
_cell_length_c       26.729
_cell_angle_alpha    90
_cell_angle_beta     129.231
_cell_angle_gamma    90

_symmetry_space_group_name_H-M    "P 1"
_symmetry_int_tables_number       1

loop_
  _symmetry_equiv_pos_as_xyz
  'x, y, z'

loop_
  _atom_site_label
  _atom_site_occupancy
  _atom_site_fract_x
  _atom_site_fract_y
  _atom_site_fract_z
  _atom_site_thermal_displace_type
  _atom_site_B_iso_or_equiv
  _atom_site_type_symbol
  C1       1.0000 0.86414  0.66710  0.85498  Biso   1.000  C
  H1       1.0000 0.84690  0.70960  0.81380  Biso   1.000  H
  C2       1.0000 0.91078  0.63900  0.88788  Biso   1.000  C
  H2       1.0000 0.92420  0.66120  0.86870  Biso   1.000  H
  C3       1.0000 0.91534  0.54080  0.97300  Biso   1.000  C
  H3       1.0000 0.93160  0.49510  0.01350  Biso   1.000  H
  C4       1.0000 0.86827  0.57080  0.93703  Biso   1.000  C
  H4       1.0000 0.85370  0.54370  0.95410  Biso   1.000  H
  C5       1.0000 0.65562  0.67600  0.68743  Biso   1.000  C
  H5       1.0000 0.66940  0.74080  0.67590  Biso   1.000  H
  C6       1.0000 0.60796  0.65580  0.64480  Biso   1.000  C
  H6       1.0000 0.59070  0.70790  0.60540  Biso   1.000  H
  C7       1.0000 0.58485  0.56120  0.65823  Biso   1.000  C
  C8       1.0000 0.61325  0.48910  0.71711  Biso   1.000  C
  H7       1.0000 0.59990  0.42290  0.72890  Biso   1.000  H
  C9       1.0000 0.66105  0.51100  0.75977  Biso   1.000  C
  H8       1.0000 0.67870  0.46020  0.79940  Biso   1.000  H
  C10      1.0000 0.53444  0.54170  0.61250  Biso   1.000  C
  H9       1.0000 0.51880  0.62190  0.58250  Biso   1.000  H
  C11      1.0000 0.50904  0.44010  0.60624  Biso   1.000  C
  H10      1.0000 0.52460  0.35600  0.63410  Biso   1.000  H
  C12      1.0000 0.45847  0.42770  0.56250  Biso   1.000  C
  C13      1.0000 0.42932  0.52680  0.51138  Biso   1.000  C
  H11      1.0000 0.44240  0.60660  0.50400  Biso   1.000  H
  C14      1.0000 0.38125  0.51230  0.47044  Biso   1.000  C
  H12      1.0000 0.36290  0.58540  0.43800  Biso   1.000  H
  C15      1.0000 0.38787  0.30040  0.52830  Biso   1.000  C
  H13      1.0000 0.37420  0.22510  0.53660  Biso   1.000  H
  C16      1.0000 0.43565  0.31380  0.56919  Biso   1.000  C
  H14      1.0000 0.45330  0.24280  0.60280  Biso   1.000  H
  Mn1      1.0000 0.76283  0.62795  0.81378  Biso   1.000  Mn
  S1       1.0000 0.83614  0.58718  0.67211  Biso   1.000  S
  O1       1.0000 0.76326  0.61480  0.73236  Biso   1.000  O
  O2       1.0000 0.74128  0.37080  0.70301  Biso   1.000  O
  O3       1.0000 0.86062  0.50750  0.73236  Biso   1.000  O
  O4       1.0000 0.85615  0.72390  0.66780  Biso   1.000  O
  O5       1.0000 0.76696  0.59410  0.42944  Biso   1.000  O
  O6       1.0000 0.76957  0.35310  0.40087  Biso   1.000  O
  N1       1.0000 0.78576  0.63680  0.64889  Biso   1.000  N
  H15      1.0000 0.77730  0.73270  0.64130  Biso   1.000  H
  N2       1.0000 0.68279  0.60460  0.74529  Biso   1.000  N
  N3       1.0000 0.36061  0.39340  0.47690  Biso   1.000  N
  N4       1.0000 0.84270  0.63750  0.87831  Biso   1.000  N
  C17      1.0000 0.75375  0.49870  0.69723  Biso   1.000  C
  C18      1.0000 0.75434  0.51650  0.64087  Biso   1.000  C
  H16      1.0000 0.72290  0.53990  0.60220  Biso   1.000  H
  H17      1.0000 0.76310  0.41750  0.63400  Biso   1.000  H
  C19      1.0000 0.82586  0.44830  0.61481  Biso   1.000  C
  C20      1.0000 0.83517  0.29370  0.63080  Biso   1.000  C
  H18      1.0000 0.84770  0.26020  0.67200  Biso   1.000  H
  C21      1.0000 0.82561  0.18770  0.58440  Biso   1.000  C
  H19      1.0000 0.83190  0.08260  0.59480  Biso   1.000  H
  C22      1.0000 0.80671  0.23770  0.52288  Biso   1.000  C
  H20      1.0000 0.80050  0.16640  0.49210  Biso   1.000  H
  C23      1.0000 0.79702  0.39480  0.50722  Biso   1.000  C
  C24      1.0000 0.80655  0.50100  0.55364  Biso   1.000  C
  H21      1.0000 0.80000  0.60610  0.54360  Biso   1.000  H
  C25      1.0000 0.77585  0.45250  0.44043  Biso   1.000  C
  C26      1.0000 0.93799  0.57700  0.95020  Biso   1.000  C
  C27      1.0000 0.98720  0.53930  0.98640  Biso   1.000  C
  H22      1.0000 0.00070  0.62490  0.98270  Biso   1.000  H
  C28      1.0000 0.15301  0.77790  0.21101  Biso   1.000  C
  C29      1.0000 0.10533  0.79680  0.17371  Biso   1.000  C
  C30      1.0000 0.08528  0.93700  0.16929  Biso   1.000  C
  C31      1.0000 0.11666  0.05520  0.20486  Biso   1.000  C
  C32      1.0000 0.16425  0.03480  0.24204  Biso   1.000  C
  C33      1.0000 0.03513  0.95720  0.13012  Biso   1.000  C
  C34      1.0000 0.00498  0.01150  0.07671  Biso   1.000  C
  C35      1.0000 0.95590  0.04230  0.04354  Biso   1.000  C
  C36      1.0000 0.92458  0.07830  0.97885  Biso   1.000  C
  C37      1.0000 0.87800  0.10730  0.94725  Biso   1.000  C
  C38      1.0000 0.89002  0.06730  0.04199  Biso   1.000  C
  C39      1.0000 0.93666  0.03780  0.07373  Biso   1.000  C
  C40      1.0000 0.35888  0.93550  0.35207  Biso   1.000  C
  C41      1.0000 0.40537  0.96660  0.38532  Biso   1.000  C
  C42      1.0000 0.42110  0.85190  0.47624  Biso   1.000  C
  C43      1.0000 0.37386  0.82410  0.44013  Biso   1.000  C
  H23      1.0000 0.16480  0.68100  0.21240  Biso   1.000  H
  H24      1.0000 0.08600  0.71200  0.15070  Biso   1.000  H
  H25      1.0000 0.10540  0.15290  0.20380  Biso   1.000  H
  H26      1.0000 0.18400  0.11850  0.26540  Biso   1.000  H
  H27      1.0000 0.02350  0.92070  0.15020  Biso   1.000  H
  H28      1.0000 0.01490  0.03750  0.05340  Biso   1.000  H
  H29      1.0000 0.93530  0.08330  0.95540  Biso   1.000  H
  H30      1.0000 0.85840  0.12810  0.90320  Biso   1.000  H
  H31      1.0000 0.87840  0.06090  0.06420  Biso   1.000  H
  H32      1.0000 0.95590  0.01380  0.11750  Biso   1.000  H
  H33      1.0000 0.33770  0.96700  0.30920  Biso   1.000  H
  H34      1.0000 0.41510  0.01630  0.36480  Biso   1.000  H
  H35      1.0000 0.44150  0.82080  0.51920  Biso   1.000  H
  H36      1.0000 0.36340  0.77620  0.46010  Biso   1.000  H
  C44      1.0000 0.36414  0.16710  0.85498  Biso   1.000  C
  H37      1.0000 0.34690  0.20960  0.81380  Biso   1.000  H
  C45      1.0000 0.41078  0.13900  0.88788  Biso   1.000  C
  H38      1.0000 0.42420  0.16120  0.86870  Biso   1.000  H
  C46      1.0000 0.41534  0.04080  0.97300  Biso   1.000  C
  H39      1.0000 0.43160  0.99510  0.01350  Biso   1.000  H
  C47      1.0000 0.36827  0.07080  0.93703  Biso   1.000  C
  H40      1.0000 0.35370  0.04370  0.95410  Biso   1.000  H
  C48      1.0000 0.15562  0.17600  0.68743  Biso   1.000  C
  H41      1.0000 0.16940  0.24080  0.67590  Biso   1.000  H
  C49      1.0000 0.10796  0.15580  0.64480  Biso   1.000  C
  H42      1.0000 0.09070  0.20790  0.60540  Biso   1.000  H
  C50      1.0000 0.08485  0.06120  0.65823  Biso   1.000  C
  C51      1.0000 0.11325  0.98910  0.71711  Biso   1.000  C
  H43      1.0000 0.09990  0.92290  0.72890  Biso   1.000  H
  C52      1.0000 0.16105  0.01100  0.75977  Biso   1.000  C
  H44      1.0000 0.17870  0.96020  0.79940  Biso   1.000  H
  C53      1.0000 0.03444  0.04170  0.61250  Biso   1.000  C
  H45      1.0000 0.01880  0.12190  0.58250  Biso   1.000  H
  C54      1.0000 0.00904  0.94010  0.60624  Biso   1.000  C
  H46      1.0000 0.02460  0.85600  0.63410  Biso   1.000  H
  C55      1.0000 0.95847  0.92770  0.56250  Biso   1.000  C
  C56      1.0000 0.92932  0.02680  0.51138  Biso   1.000  C
  H47      1.0000 0.94240  0.10660  0.50400  Biso   1.000  H
  C57      1.0000 0.88125  0.01230  0.47044  Biso   1.000  C
  H48      1.0000 0.86290  0.08540  0.43800  Biso   1.000  H
  C58      1.0000 0.88787  0.80040  0.52830  Biso   1.000  C
  H49      1.0000 0.87420  0.72510  0.53660  Biso   1.000  H
  C59      1.0000 0.93565  0.81380  0.56919  Biso   1.000  C
  H50      1.0000 0.95330  0.74280  0.60280  Biso   1.000  H
  Mn2      1.0000 0.26283  0.12795  0.81378  Biso   1.000  Mn
  S2       1.0000 0.33614  0.08718  0.67211  Biso   1.000  S
  O7       1.0000 0.26326  0.11480  0.73236  Biso   1.000  O
  O8       1.0000 0.24128  0.87080  0.70301  Biso   1.000  O
  O9       1.0000 0.36062  0.00750  0.73236  Biso   1.000  O
  O10      1.0000 0.35615  0.22390  0.66780  Biso   1.000  O
  O11      1.0000 0.26696  0.09410  0.42944  Biso   1.000  O
  O12      1.0000 0.26957  0.85310  0.40087  Biso   1.000  O
  N5       1.0000 0.28576  0.13680  0.64889  Biso   1.000  N
  H51      1.0000 0.27730  0.23270  0.64130  Biso   1.000  H
  N6       1.0000 0.18279  0.10460  0.74529  Biso   1.000  N
  N7       1.0000 0.86061  0.89340  0.47690  Biso   1.000  N
  N8       1.0000 0.34270  0.13750  0.87831  Biso   1.000  N
  C60      1.0000 0.25375  0.99870  0.69723  Biso   1.000  C
  C61      1.0000 0.25434  0.01650  0.64087  Biso   1.000  C
  H52      1.0000 0.22290  0.03990  0.60220  Biso   1.000  H
  H53      1.0000 0.26310  0.91750  0.63400  Biso   1.000  H
  C62      1.0000 0.32586  0.94830  0.61481  Biso   1.000  C
  C63      1.0000 0.33517  0.79370  0.63080  Biso   1.000  C
  H54      1.0000 0.34770  0.76020  0.67200  Biso   1.000  H
  C64      1.0000 0.32561  0.68770  0.58440  Biso   1.000  C
  H55      1.0000 0.33190  0.58260  0.59480  Biso   1.000  H
  C65      1.0000 0.30671  0.73770  0.52288  Biso   1.000  C
  H56      1.0000 0.30050  0.66640  0.49210  Biso   1.000  H
  C66      1.0000 0.29702  0.89480  0.50722  Biso   1.000  C
  C67      1.0000 0.30655  0.00100  0.55364  Biso   1.000  C
  H57      1.0000 0.30000  0.10610  0.54360  Biso   1.000  H
  C68      1.0000 0.27585  0.95250  0.44043  Biso   1.000  C
  C69      1.0000 0.43799  0.07700  0.95020  Biso   1.000  C
  C70      1.0000 0.48720  0.03930  0.98640  Biso   1.000  C
  H58      1.0000 0.50070  0.12490  0.98270  Biso   1.000  H
  C71      1.0000 0.65301  0.27790  0.21101  Biso   1.000  C
  C72      1.0000 0.60533  0.29680  0.17371  Biso   1.000  C
  C73      1.0000 0.58528  0.43700  0.16929  Biso   1.000  C
  C74      1.0000 0.61666  0.55520  0.20486  Biso   1.000  C
  C75      1.0000 0.66425  0.53480  0.24204  Biso   1.000  C
  C76      1.0000 0.53513  0.45720  0.13012  Biso   1.000  C
  C77      1.0000 0.50498  0.51150  0.07671  Biso   1.000  C
  C78      1.0000 0.45590  0.54230  0.04354  Biso   1.000  C
  C79      1.0000 0.42458  0.57830  0.97885  Biso   1.000  C
  C80      1.0000 0.37800  0.60730  0.94725  Biso   1.000  C
  C81      1.0000 0.39002  0.56730  0.04199  Biso   1.000  C
  C82      1.0000 0.43666  0.53780  0.07373  Biso   1.000  C
  C83      1.0000 0.85888  0.43550  0.35207  Biso   1.000  C
  C84      1.0000 0.90537  0.46660  0.38532  Biso   1.000  C
  C85      1.0000 0.92110  0.35190  0.47624  Biso   1.000  C
  C86      1.0000 0.87386  0.32410  0.44013  Biso   1.000  C
  H59      1.0000 0.66480  0.18100  0.21240  Biso   1.000  H
  H60      1.0000 0.58600  0.21200  0.15070  Biso   1.000  H
  H61      1.0000 0.60540  0.65290  0.20380  Biso   1.000  H
  H62      1.0000 0.68400  0.61850  0.26540  Biso   1.000  H
  H63      1.0000 0.52350  0.42070  0.15020  Biso   1.000  H
  H64      1.0000 0.51490  0.53750  0.05340  Biso   1.000  H
  H65      1.0000 0.43530  0.58330  0.95540  Biso   1.000  H
  H66      1.0000 0.35840  0.62810  0.90320  Biso   1.000  H
  H67      1.0000 0.37840  0.56090  0.06420  Biso   1.000  H
  H68      1.0000 0.45590  0.51380  0.11750  Biso   1.000  H
  H69      1.0000 0.83770  0.46700  0.30920  Biso   1.000  H
  H70      1.0000 0.91510  0.51630  0.36480  Biso   1.000  H
  H71      1.0000 0.94150  0.32080  0.51920  Biso   1.000  H
  H72      1.0000 0.86340  0.27620  0.46010  Biso   1.000  H
  C87      1.0000 0.13586  0.66710  0.64502  Biso   1.000  C
  H73      1.0000 0.15310  0.70960  0.68620  Biso   1.000  H
  C88      1.0000 0.08922  0.63900  0.61212  Biso   1.000  C
  H74      1.0000 0.07580  0.66120  0.63130  Biso   1.000  H
  C89      1.0000 0.08466  0.54080  0.52700  Biso   1.000  C
  H75      1.0000 0.06840  0.49510  0.48650  Biso   1.000  H
  C90      1.0000 0.13173  0.57080  0.56297  Biso   1.000  C
  H76      1.0000 0.14630  0.54370  0.54590  Biso   1.000  H
  C91      1.0000 0.34438  0.67600  0.81257  Biso   1.000  C
  H77      1.0000 0.33060  0.74080  0.82410  Biso   1.000  H
  C92      1.0000 0.39204  0.65580  0.85520  Biso   1.000  C
  H78      1.0000 0.40930  0.70790  0.89460  Biso   1.000  H
  C93      1.0000 0.41515  0.56120  0.84177  Biso   1.000  C
  C94      1.0000 0.38675  0.48910  0.78289  Biso   1.000  C
  H79      1.0000 0.40010  0.42290  0.77110  Biso   1.000  H
  C95      1.0000 0.33895  0.51100  0.74023  Biso   1.000  C
  H80      1.0000 0.32130  0.46020  0.70060  Biso   1.000  H
  C96      1.0000 0.46556  0.54170  0.88750  Biso   1.000  C
  H81      1.0000 0.48120  0.62190  0.91750  Biso   1.000  H
  C97      1.0000 0.49096  0.44010  0.89376  Biso   1.000  C
  H82      1.0000 0.47540  0.35600  0.86590  Biso   1.000  H
  C98      1.0000 0.54153  0.42770  0.93750  Biso   1.000  C
  C99      1.0000 0.57068  0.52680  0.98862  Biso   1.000  C
  H83      1.0000 0.55760  0.60660  0.99600  Biso   1.000  H
  C100     1.0000 0.61875  0.51230  0.02956  Biso   1.000  C
  H84      1.0000 0.63710  0.58540  0.06200  Biso   1.000  H
  C101     1.0000 0.61213  0.30040  0.97170  Biso   1.000  C
  H85      1.0000 0.62580  0.22510  0.96340  Biso   1.000  H
  C102     1.0000 0.56435  0.31380  0.93081  Biso   1.000  C
  H86      1.0000 0.54670  0.24280  0.89720  Biso   1.000  H
  Mn3      1.0000 0.23717  0.62795  0.68622  Biso   1.000  Mn
  S3       1.0000 0.16386  0.58718  0.82789  Biso   1.000  S
  O13      1.0000 0.23674  0.61480  0.76764  Biso   1.000  O
  O14      1.0000 0.25872  0.37080  0.79699  Biso   1.000  O
  O15      1.0000 0.13938  0.50750  0.76764  Biso   1.000  O
  O16      1.0000 0.14385  0.72390  0.83220  Biso   1.000  O
  O17      1.0000 0.23304  0.59410  0.07056  Biso   1.000  O
  O18      1.0000 0.23043  0.35310  0.09913  Biso   1.000  O
  N9       1.0000 0.21424  0.63680  0.85111  Biso   1.000  N
  H87      1.0000 0.22270  0.73270  0.85870  Biso   1.000  H
  N10      1.0000 0.31721  0.60460  0.75471  Biso   1.000  N
  N11      1.0000 0.63939  0.39340  0.02310  Biso   1.000  N
  N12      1.0000 0.15730  0.63750  0.62169  Biso   1.000  N
  C103     1.0000 0.24625  0.49870  0.80277  Biso   1.000  C
  C104     1.0000 0.24566  0.51650  0.85913  Biso   1.000  C
  H88      1.0000 0.27710  0.53990  0.89780  Biso   1.000  H
  H89      1.0000 0.23690  0.41750  0.86600  Biso   1.000  H
  C105     1.0000 0.17414  0.44830  0.88519  Biso   1.000  C
  C106     1.0000 0.16483  0.29370  0.86920  Biso   1.000  C
  H90      1.0000 0.15230  0.26020  0.82800  Biso   1.000  H
  C107     1.0000 0.17439  0.18770  0.91560  Biso   1.000  C
  H91      1.0000 0.16810  0.08260  0.90520  Biso   1.000  H
  C108     1.0000 0.19329  0.23770  0.97712  Biso   1.000  C
  H92      1.0000 0.19950  0.16640  0.00790  Biso   1.000  H
  C109     1.0000 0.20298  0.39480  0.99278  Biso   1.000  C
  C110     1.0000 0.19345  0.50100  0.94636  Biso   1.000  C
  H93      1.0000 0.20000  0.60610  0.95640  Biso   1.000  H
  C111     1.0000 0.22415  0.45250  0.05957  Biso   1.000  C
  C112     1.0000 0.06201  0.57700  0.54980  Biso   1.000  C
  C113     1.0000 0.01280  0.53930  0.51360  Biso   1.000  C
  H94      1.0000 0.99930  0.62490  0.51730  Biso   1.000  H
  C114     1.0000 0.84699  0.77790  0.28899  Biso   1.000  C
  C115     1.0000 0.89467  0.79680  0.32629  Biso   1.000  C
  C116     1.0000 0.91472  0.93700  0.33071  Biso   1.000  C
  C117     1.0000 0.88334  0.05520  0.29514  Biso   1.000  C
  C118     1.0000 0.83575  0.03480  0.25796  Biso   1.000  C
  C119     1.0000 0.96487  0.95720  0.36988  Biso   1.000  C
  C120     1.0000 0.99502  0.01150  0.42329  Biso   1.000  C
  C121     1.0000 0.04410  0.04230  0.45646  Biso   1.000  C
  C122     1.0000 0.07542  0.07830  0.52115  Biso   1.000  C
  C123     1.0000 0.12200  0.10730  0.55275  Biso   1.000  C
  C124     1.0000 0.10998  0.06730  0.45801  Biso   1.000  C
  C125     1.0000 0.06334  0.03780  0.42627  Biso   1.000  C
  C126     1.0000 0.64112  0.93550  0.14793  Biso   1.000  C
  C127     1.0000 0.59463  0.96660  0.11468  Biso   1.000  C
  C128     1.0000 0.57890  0.85190  0.02376  Biso   1.000  C
  C129     1.0000 0.62614  0.82410  0.05987  Biso   1.000  C
  H95      1.0000 0.83520  0.68100  0.28760  Biso   1.000  H
  H96      1.0000 0.91400  0.71200  0.34930  Biso   1.000  H
  H97      1.0000 0.89460  0.15290  0.29620  Biso   1.000  H
  H98      1.0000 0.81600  0.11850  0.23460  Biso   1.000  H
  H99      1.0000 0.97650  0.92070  0.34980  Biso   1.000  H
  H100     1.0000 0.98510  0.03750  0.44660  Biso   1.000  H
  H101     1.0000 0.06470  0.08330  0.54460  Biso   1.000  H
  H102     1.0000 0.14160  0.12810  0.59680  Biso   1.000  H
  H103     1.0000 0.12160  0.06090  0.43580  Biso   1.000  H
  H104     1.0000 0.04410  0.01380  0.38250  Biso   1.000  H
  H105     1.0000 0.66230  0.96700  0.19080  Biso   1.000  H
  H106     1.0000 0.58490  0.01630  0.13520  Biso   1.000  H
  H107     1.0000 0.55850  0.82080  0.98080  Biso   1.000  H
  H108     1.0000 0.63660  0.77620  0.03990  Biso   1.000  H
  C130     1.0000 0.63586  0.16710  0.64502  Biso   1.000  C
  H109     1.0000 0.65310  0.20960  0.68620  Biso   1.000  H
  C131     1.0000 0.58922  0.13900  0.61212  Biso   1.000  C
  H110     1.0000 0.57580  0.16120  0.63130  Biso   1.000  H
  C132     1.0000 0.58466  0.04080  0.52700  Biso   1.000  C
  H111     1.0000 0.56840  0.99510  0.48650  Biso   1.000  H
  C133     1.0000 0.63173  0.07080  0.56297  Biso   1.000  C
  H112     1.0000 0.64630  0.04370  0.54590  Biso   1.000  H
  C134     1.0000 0.84438  0.17600  0.81257  Biso   1.000  C
  H113     1.0000 0.83060  0.24080  0.82410  Biso   1.000  H
  C135     1.0000 0.89204  0.15580  0.85520  Biso   1.000  C
  H114     1.0000 0.90930  0.20790  0.89460  Biso   1.000  H
  C136     1.0000 0.91515  0.06120  0.84177  Biso   1.000  C
  C137     1.0000 0.88675  0.98910  0.78289  Biso   1.000  C
  H115     1.0000 0.90010  0.92290  0.77110  Biso   1.000  H
  C138     1.0000 0.83895  0.01100  0.74023  Biso   1.000  C
  H116     1.0000 0.82130  0.96020  0.70060  Biso   1.000  H
  C139     1.0000 0.96556  0.04170  0.88750  Biso   1.000  C
  H117     1.0000 0.98120  0.12190  0.91750  Biso   1.000  H
  C140     1.0000 0.99096  0.94010  0.89376  Biso   1.000  C
  H118     1.0000 0.97540  0.85600  0.86590  Biso   1.000  H
  C141     1.0000 0.04153  0.92770  0.93750  Biso   1.000  C
  C142     1.0000 0.07068  0.02680  0.98862  Biso   1.000  C
  H119     1.0000 0.05760  0.10660  0.99600  Biso   1.000  H
  C143     1.0000 0.11875  0.01230  0.02956  Biso   1.000  C
  H120     1.0000 0.13710  0.08540  0.06200  Biso   1.000  H
  C144     1.0000 0.11213  0.80040  0.97170  Biso   1.000  C
  H121     1.0000 0.12580  0.72510  0.96340  Biso   1.000  H
  C145     1.0000 0.06435  0.81380  0.93081  Biso   1.000  C
  H122     1.0000 0.04670  0.74280  0.89720  Biso   1.000  H
  Mn4      1.0000 0.73717  0.12795  0.68622  Biso   1.000  Mn
  S4       1.0000 0.66386  0.08718  0.82789  Biso   1.000  S
  O19      1.0000 0.73674  0.11480  0.76764  Biso   1.000  O
  O20      1.0000 0.75872  0.87080  0.79699  Biso   1.000  O
  O21      1.0000 0.63938  0.00750  0.76764  Biso   1.000  O
  O22      1.0000 0.64385  0.22390  0.83220  Biso   1.000  O
  O23      1.0000 0.73304  0.09410  0.07056  Biso   1.000  O
  O24      1.0000 0.73043  0.85310  0.09913  Biso   1.000  O
  N13      1.0000 0.71424  0.13680  0.85111  Biso   1.000  N
  H123     1.0000 0.72270  0.23270  0.85870  Biso   1.000  H
  N14      1.0000 0.81721  0.10460  0.75471  Biso   1.000  N
  N15      1.0000 0.13939  0.89340  0.02310  Biso   1.000  N
  N16      1.0000 0.65730  0.13750  0.62169  Biso   1.000  N
  C146     1.0000 0.74625  0.99870  0.80277  Biso   1.000  C
  C147     1.0000 0.74566  0.01650  0.85913  Biso   1.000  C
  H124     1.0000 0.77710  0.03990  0.89780  Biso   1.000  H
  H125     1.0000 0.73690  0.91750  0.86600  Biso   1.000  H
  C148     1.0000 0.67414  0.94830  0.88519  Biso   1.000  C
  C149     1.0000 0.66483  0.79370  0.86920  Biso   1.000  C
  H126     1.0000 0.65230  0.76020  0.82800  Biso   1.000  H
  C150     1.0000 0.67439  0.68770  0.91560  Biso   1.000  C
  H127     1.0000 0.66810  0.58260  0.90520  Biso   1.000  H
  C151     1.0000 0.69329  0.73770  0.97712  Biso   1.000  C
  H128     1.0000 0.69950  0.66640  0.00790  Biso   1.000  H
  C152     1.0000 0.70298  0.89480  0.99278  Biso   1.000  C
  C153     1.0000 0.69345  0.00100  0.94636  Biso   1.000  C
  H129     1.0000 0.70000  0.10610  0.95640  Biso   1.000  H
  C154     1.0000 0.72415  0.95250  0.05957  Biso   1.000  C
  C155     1.0000 0.56201  0.07700  0.54980  Biso   1.000  C
  C156     1.0000 0.51280  0.03930  0.51360  Biso   1.000  C
  H130     1.0000 0.49930  0.12490  0.51730  Biso   1.000  H
  C157     1.0000 0.34699  0.27790  0.28899  Biso   1.000  C
  C158     1.0000 0.39467  0.29680  0.32629  Biso   1.000  C
  C159     1.0000 0.41472  0.43700  0.33071  Biso   1.000  C
  C160     1.0000 0.38334  0.55520  0.29514  Biso   1.000  C
  C161     1.0000 0.33575  0.53480  0.25796  Biso   1.000  C
  C162     1.0000 0.46487  0.45720  0.36988  Biso   1.000  C
  C163     1.0000 0.49502  0.51150  0.42329  Biso   1.000  C
  C164     1.0000 0.54410  0.54230  0.45646  Biso   1.000  C
  C165     1.0000 0.57542  0.57830  0.52115  Biso   1.000  C
  C166     1.0000 0.62200  0.60730  0.55275  Biso   1.000  C
  C167     1.0000 0.60998  0.56730  0.45801  Biso   1.000  C
  C168     1.0000 0.56334  0.53780  0.42627  Biso   1.000  C
  C169     1.0000 0.14112  0.43550  0.14793  Biso   1.000  C
  C170     1.0000 0.09463  0.46660  0.11468  Biso   1.000  C
  C171     1.0000 0.07890  0.35190  0.02376  Biso   1.000  C
  C172     1.0000 0.12614  0.32410  0.05987  Biso   1.000  C
  H131     1.0000 0.33520  0.18100  0.28760  Biso   1.000  H
  H132     1.0000 0.41400  0.21200  0.34930  Biso   1.000  H
  H133     1.0000 0.39460  0.65290  0.29620  Biso   1.000  H
  H134     1.0000 0.31600  0.61850  0.23460  Biso   1.000  H
  H135     1.0000 0.47650  0.42070  0.34980  Biso   1.000  H
  H136     1.0000 0.48510  0.53750  0.44660  Biso   1.000  H
  H137     1.0000 0.56470  0.58330  0.54460  Biso   1.000  H
  H138     1.0000 0.64160  0.62810  0.59680  Biso   1.000  H
  H139     1.0000 0.62160  0.56090  0.43580  Biso   1.000  H
  H140     1.0000 0.54410  0.51380  0.38250  Biso   1.000  H
  H141     1.0000 0.16230  0.46700  0.19080  Biso   1.000  H
  H142     1.0000 0.08490  0.51630  0.13520  Biso   1.000  H
  H143     1.0000 0.05850  0.32080  0.98080  Biso   1.000  H
  H144     1.0000 0.13660  0.27620  0.03990  Biso   1.000  H
  C173     1.0000 0.13586  0.33290  0.14502  Biso   1.000  C
  H145     1.0000 0.15310  0.29040  0.18620  Biso   1.000  H
  C174     1.0000 0.08922  0.36100  0.11212  Biso   1.000  C
  H146     1.0000 0.07580  0.33880  0.13130  Biso   1.000  H
  C175     1.0000 0.08466  0.45920  0.02700  Biso   1.000  C
  H147     1.0000 0.06840  0.50490  0.98650  Biso   1.000  H
  C176     1.0000 0.13173  0.42920  0.06297  Biso   1.000  C
  H148     1.0000 0.14630  0.45630  0.04590  Biso   1.000  H
  C177     1.0000 0.34438  0.32400  0.31257  Biso   1.000  C
  H149     1.0000 0.33060  0.25920  0.32410  Biso   1.000  H
  C178     1.0000 0.39204  0.34420  0.35520  Biso   1.000  C
  H150     1.0000 0.40930  0.29210  0.39460  Biso   1.000  H
  C179     1.0000 0.41515  0.43880  0.34177  Biso   1.000  C
  C180     1.0000 0.38675  0.51090  0.28289  Biso   1.000  C
  H151     1.0000 0.40010  0.57710  0.27110  Biso   1.000  H
  C181     1.0000 0.33895  0.48900  0.24023  Biso   1.000  C
  H152     1.0000 0.32130  0.53980  0.20060  Biso   1.000  H
  C182     1.0000 0.46556  0.45830  0.38750  Biso   1.000  C
  H153     1.0000 0.48120  0.37810  0.41750  Biso   1.000  H
  C183     1.0000 0.49096  0.55990  0.39376  Biso   1.000  C
  H154     1.0000 0.47540  0.64400  0.36590  Biso   1.000  H
  C184     1.0000 0.54153  0.57230  0.43750  Biso   1.000  C
  C185     1.0000 0.57068  0.47320  0.48862  Biso   1.000  C
  H155     1.0000 0.55760  0.39340  0.49600  Biso   1.000  H
  C186     1.0000 0.61875  0.48770  0.52956  Biso   1.000  C
  H156     1.0000 0.63710  0.41460  0.56200  Biso   1.000  H
  C187     1.0000 0.61213  0.69960  0.47170  Biso   1.000  C
  H157     1.0000 0.62580  0.77490  0.46340  Biso   1.000  H
  C188     1.0000 0.56435  0.68620  0.43081  Biso   1.000  C
  H158     1.0000 0.54670  0.75720  0.39720  Biso   1.000  H
  Mn5      1.0000 0.23717  0.37205  0.18622  Biso   1.000  Mn
  S5       1.0000 0.16386  0.41282  0.32789  Biso   1.000  S
  O25      1.0000 0.23674  0.38520  0.26764  Biso   1.000  O
  O26      1.0000 0.25872  0.62920  0.29699  Biso   1.000  O
  O27      1.0000 0.13938  0.49250  0.26764  Biso   1.000  O
  O28      1.0000 0.14385  0.27610  0.33220  Biso   1.000  O
  O29      1.0000 0.23304  0.40590  0.57056  Biso   1.000  O
  O30      1.0000 0.23043  0.64690  0.59913  Biso   1.000  O
  N17      1.0000 0.21424  0.36320  0.35111  Biso   1.000  N
  H159     1.0000 0.22270  0.26730  0.35870  Biso   1.000  H
  N18      1.0000 0.31721  0.39540  0.25471  Biso   1.000  N
  N19      1.0000 0.63939  0.60660  0.52310  Biso   1.000  N
  N20      1.0000 0.15730  0.36250  0.12169  Biso   1.000  N
  C189     1.0000 0.24625  0.50130  0.30277  Biso   1.000  C
  C190     1.0000 0.24566  0.48350  0.35913  Biso   1.000  C
  H160     1.0000 0.27710  0.46010  0.39780  Biso   1.000  H
  H161     1.0000 0.23690  0.58250  0.36600  Biso   1.000  H
  C191     1.0000 0.17414  0.55170  0.38519  Biso   1.000  C
  C192     1.0000 0.16483  0.70630  0.36920  Biso   1.000  C
  H162     1.0000 0.15230  0.73980  0.32800  Biso   1.000  H
  C193     1.0000 0.17439  0.81230  0.41560  Biso   1.000  C
  H163     1.0000 0.16810  0.91740  0.40520  Biso   1.000  H
  C194     1.0000 0.19329  0.76230  0.47712  Biso   1.000  C
  H164     1.0000 0.19950  0.83360  0.50790  Biso   1.000  H
  C195     1.0000 0.20298  0.60520  0.49278  Biso   1.000  C
  C196     1.0000 0.19345  0.49900  0.44636  Biso   1.000  C
  H165     1.0000 0.20000  0.39390  0.45640  Biso   1.000  H
  C197     1.0000 0.22415  0.54750  0.55957  Biso   1.000  C
  C198     1.0000 0.06201  0.42300  0.04980  Biso   1.000  C
  C199     1.0000 0.01280  0.46070  0.01360  Biso   1.000  C
  H166     1.0000 0.99930  0.37510  0.01730  Biso   1.000  H
  C200     1.0000 0.84699  0.22210  0.78899  Biso   1.000  C
  C201     1.0000 0.89467  0.20320  0.82629  Biso   1.000  C
  C202     1.0000 0.91472  0.06300  0.83071  Biso   1.000  C
  C203     1.0000 0.88334  0.94480  0.79514  Biso   1.000  C
  C204     1.0000 0.83575  0.96520  0.75796  Biso   1.000  C
  C205     1.0000 0.96487  0.04280  0.86988  Biso   1.000  C
  C206     1.0000 0.99502  0.98850  0.92329  Biso   1.000  C
  C207     1.0000 0.04410  0.95770  0.95646  Biso   1.000  C
  C208     1.0000 0.07542  0.92170  0.02115  Biso   1.000  C
  C209     1.0000 0.12200  0.89270  0.05275  Biso   1.000  C
  C210     1.0000 0.10998  0.93270  0.95801  Biso   1.000  C
  C211     1.0000 0.06334  0.96220  0.92627  Biso   1.000  C
  C212     1.0000 0.64112  0.06450  0.64793  Biso   1.000  C
  C213     1.0000 0.59463  0.03340  0.61468  Biso   1.000  C
  C214     1.0000 0.57890  0.14810  0.52376  Biso   1.000  C
  C215     1.0000 0.62614  0.17590  0.55987  Biso   1.000  C
  H167     1.0000 0.83520  0.31900  0.78760  Biso   1.000  H
  H168     1.0000 0.91400  0.28800  0.84930  Biso   1.000  H
  H169     1.0000 0.89460  0.84710  0.79620  Biso   1.000  H
  H170     1.0000 0.81600  0.88150  0.73460  Biso   1.000  H
  H171     1.0000 0.97650  0.07930  0.84980  Biso   1.000  H
  H172     1.0000 0.98510  0.96250  0.94660  Biso   1.000  H
  H173     1.0000 0.06470  0.91670  0.04460  Biso   1.000  H
  H174     1.0000 0.14160  0.87190  0.09680  Biso   1.000  H
  H175     1.0000 0.12160  0.93910  0.93580  Biso   1.000  H
  H176     1.0000 0.04410  0.98620  0.88250  Biso   1.000  H
  H177     1.0000 0.66230  0.03300  0.69080  Biso   1.000  H
  H178     1.0000 0.58490  0.98370  0.63520  Biso   1.000  H
  H179     1.0000 0.55850  0.17920  0.48080  Biso   1.000  H
  H180     1.0000 0.63660  0.22380  0.53990  Biso   1.000  H
  C216     1.0000 0.63586  0.83290  0.14502  Biso   1.000  C
  H181     1.0000 0.65310  0.79040  0.18620  Biso   1.000  H
  C217     1.0000 0.58922  0.86100  0.11212  Biso   1.000  C
  H182     1.0000 0.57580  0.83880  0.13130  Biso   1.000  H
  C218     1.0000 0.58466  0.95920  0.02700  Biso   1.000  C
  H183     1.0000 0.56840  0.00490  0.98650  Biso   1.000  H
  C219     1.0000 0.63173  0.92920  0.06297  Biso   1.000  C
  H184     1.0000 0.64630  0.95630  0.04590  Biso   1.000  H
  C220     1.0000 0.84438  0.82400  0.31257  Biso   1.000  C
  H185     1.0000 0.83060  0.75920  0.32410  Biso   1.000  H
  C221     1.0000 0.89204  0.84420  0.35520  Biso   1.000  C
  H186     1.0000 0.90930  0.79210  0.39460  Biso   1.000  H
  C222     1.0000 0.91515  0.93880  0.34177  Biso   1.000  C
  C223     1.0000 0.88675  0.01090  0.28289  Biso   1.000  C
  H187     1.0000 0.90010  0.07710  0.27110  Biso   1.000  H
  C224     1.0000 0.83895  0.98900  0.24023  Biso   1.000  C
  H188     1.0000 0.82130  0.03980  0.20060  Biso   1.000  H
  C225     1.0000 0.96556  0.95830  0.38750  Biso   1.000  C
  H189     1.0000 0.98120  0.87810  0.41750  Biso   1.000  H
  C226     1.0000 0.99096  0.05990  0.39376  Biso   1.000  C
  H190     1.0000 0.97540  0.14400  0.36590  Biso   1.000  H
  C227     1.0000 0.04153  0.07230  0.43750  Biso   1.000  C
  C228     1.0000 0.07068  0.97320  0.48862  Biso   1.000  C
  H191     1.0000 0.05760  0.89340  0.49600  Biso   1.000  H
  C229     1.0000 0.11875  0.98770  0.52956  Biso   1.000  C
  H192     1.0000 0.13710  0.91460  0.56200  Biso   1.000  H
  C230     1.0000 0.11213  0.19960  0.47170  Biso   1.000  C
  H193     1.0000 0.12580  0.27490  0.46340  Biso   1.000  H
  C231     1.0000 0.06435  0.18620  0.43081  Biso   1.000  C
  H194     1.0000 0.04670  0.25720  0.39720  Biso   1.000  H
  Mn6      1.0000 0.73717  0.87205  0.18622  Biso   1.000  Mn
  S6       1.0000 0.66386  0.91282  0.32789  Biso   1.000  S
  O31      1.0000 0.73674  0.88520  0.26764  Biso   1.000  O
  O32      1.0000 0.75872  0.12920  0.29699  Biso   1.000  O
  O33      1.0000 0.63938  0.99250  0.26764  Biso   1.000  O
  O34      1.0000 0.64385  0.77610  0.33220  Biso   1.000  O
  O35      1.0000 0.73304  0.90590  0.57056  Biso   1.000  O
  O36      1.0000 0.73043  0.14690  0.59913  Biso   1.000  O
  N21      1.0000 0.71424  0.86320  0.35111  Biso   1.000  N
  H195     1.0000 0.72270  0.76730  0.35870  Biso   1.000  H
  N22      1.0000 0.81721  0.89540  0.25471  Biso   1.000  N
  N23      1.0000 0.13939  0.10660  0.52310  Biso   1.000  N
  N24      1.0000 0.65730  0.86250  0.12169  Biso   1.000  N
  C232     1.0000 0.74625  0.00130  0.30277  Biso   1.000  C
  C233     1.0000 0.74566  0.98350  0.35913  Biso   1.000  C
  H196     1.0000 0.77710  0.96010  0.39780  Biso   1.000  H
  H197     1.0000 0.73690  0.08250  0.36600  Biso   1.000  H
  C234     1.0000 0.67414  0.05170  0.38519  Biso   1.000  C
  C235     1.0000 0.66483  0.20630  0.36920  Biso   1.000  C
  H198     1.0000 0.65230  0.23980  0.32800  Biso   1.000  H
  C236     1.0000 0.67439  0.31230  0.41560  Biso   1.000  C
  H199     1.0000 0.66810  0.41740  0.40520  Biso   1.000  H
  C237     1.0000 0.69329  0.26230  0.47712  Biso   1.000  C
  H200     1.0000 0.69950  0.33360  0.50790  Biso   1.000  H
  C238     1.0000 0.70298  0.10520  0.49278  Biso   1.000  C
  C239     1.0000 0.69345  0.99900  0.44636  Biso   1.000  C
  H201     1.0000 0.70000  0.89390  0.45640  Biso   1.000  H
  C240     1.0000 0.72415  0.04750  0.55957  Biso   1.000  C
  C241     1.0000 0.56201  0.92300  0.04980  Biso   1.000  C
  C242     1.0000 0.51280  0.96070  0.01360  Biso   1.000  C
  H202     1.0000 0.49930  0.87510  0.01730  Biso   1.000  H
  C243     1.0000 0.34699  0.72210  0.78899  Biso   1.000  C
  C244     1.0000 0.39467  0.70320  0.82629  Biso   1.000  C
  C245     1.0000 0.41472  0.56300  0.83071  Biso   1.000  C
  C246     1.0000 0.38334  0.44480  0.79514  Biso   1.000  C
  C247     1.0000 0.33575  0.46520  0.75796  Biso   1.000  C
  C248     1.0000 0.46487  0.54280  0.86988  Biso   1.000  C
  C249     1.0000 0.49502  0.48850  0.92329  Biso   1.000  C
  C250     1.0000 0.54410  0.45770  0.95646  Biso   1.000  C
  C251     1.0000 0.57542  0.42170  0.02115  Biso   1.000  C
  C252     1.0000 0.62200  0.39270  0.05275  Biso   1.000  C
  C253     1.0000 0.60998  0.43270  0.95801  Biso   1.000  C
  C254     1.0000 0.56334  0.46220  0.92627  Biso   1.000  C
  C255     1.0000 0.14112  0.56450  0.64793  Biso   1.000  C
  C256     1.0000 0.09463  0.53340  0.61468  Biso   1.000  C
  C257     1.0000 0.07890  0.64810  0.52376  Biso   1.000  C
  C258     1.0000 0.12614  0.67590  0.55987  Biso   1.000  C
  H203     1.0000 0.33520  0.81900  0.78760  Biso   1.000  H
  H204     1.0000 0.41400  0.78800  0.84930  Biso   1.000  H
  H205     1.0000 0.39460  0.34710  0.79620  Biso   1.000  H
  H206     1.0000 0.31600  0.38150  0.73460  Biso   1.000  H
  H207     1.0000 0.47650  0.57930  0.84980  Biso   1.000  H
  H208     1.0000 0.48510  0.46250  0.94660  Biso   1.000  H
  H209     1.0000 0.56470  0.41670  0.04460  Biso   1.000  H
  H210     1.0000 0.64160  0.37190  0.09680  Biso   1.000  H
  H211     1.0000 0.62160  0.43910  0.93580  Biso   1.000  H
  H212     1.0000 0.54410  0.48620  0.88250  Biso   1.000  H
  H213     1.0000 0.16230  0.53300  0.69080  Biso   1.000  H
  H214     1.0000 0.08490  0.48370  0.63520  Biso   1.000  H
  H215     1.0000 0.05850  0.67920  0.48080  Biso   1.000  H
  H216     1.0000 0.13660  0.72380  0.53990  Biso   1.000  H
  C259     1.0000 0.86414  0.33290  0.35498  Biso   1.000  C
  H217     1.0000 0.84690  0.29040  0.31380  Biso   1.000  H
  C260     1.0000 0.91078  0.36100  0.38788  Biso   1.000  C
  H218     1.0000 0.92420  0.33880  0.36870  Biso   1.000  H
  C261     1.0000 0.91534  0.45920  0.47300  Biso   1.000  C
  H219     1.0000 0.93160  0.50490  0.51350  Biso   1.000  H
  C262     1.0000 0.86827  0.42920  0.43703  Biso   1.000  C
  H220     1.0000 0.85370  0.45630  0.45410  Biso   1.000  H
  C263     1.0000 0.65562  0.32400  0.18743  Biso   1.000  C
  H221     1.0000 0.66940  0.25920  0.17590  Biso   1.000  H
  C264     1.0000 0.60796  0.34420  0.14480  Biso   1.000  C
  H222     1.0000 0.59070  0.29210  0.10540  Biso   1.000  H
  C265     1.0000 0.58485  0.43880  0.15823  Biso   1.000  C
  C266     1.0000 0.61325  0.51090  0.21711  Biso   1.000  C
  H223     1.0000 0.59990  0.57710  0.22890  Biso   1.000  H
  C267     1.0000 0.66105  0.48900  0.25977  Biso   1.000  C
  H224     1.0000 0.67870  0.53980  0.29940  Biso   1.000  H
  C268     1.0000 0.53444  0.45830  0.11250  Biso   1.000  C
  H225     1.0000 0.51880  0.37810  0.08250  Biso   1.000  H
  C269     1.0000 0.50904  0.55990  0.10624  Biso   1.000  C
  H226     1.0000 0.52460  0.64400  0.13410  Biso   1.000  H
  C270     1.0000 0.45847  0.57230  0.06250  Biso   1.000  C
  C271     1.0000 0.42932  0.47320  0.01138  Biso   1.000  C
  H227     1.0000 0.44240  0.39340  0.00400  Biso   1.000  H
  C272     1.0000 0.38125  0.48770  0.97044  Biso   1.000  C
  H228     1.0000 0.36290  0.41460  0.93800  Biso   1.000  H
  C273     1.0000 0.38787  0.69960  0.02830  Biso   1.000  C
  H229     1.0000 0.37420  0.77490  0.03660  Biso   1.000  H
  C274     1.0000 0.43565  0.68620  0.06919  Biso   1.000  C
  H230     1.0000 0.45330  0.75720  0.10280  Biso   1.000  H
  Mn7      1.0000 0.76283  0.37205  0.31378  Biso   1.000  Mn
  S7       1.0000 0.83614  0.41282  0.17211  Biso   1.000  S
  O37      1.0000 0.76326  0.38520  0.23236  Biso   1.000  O
  O38      1.0000 0.74128  0.62920  0.20301  Biso   1.000  O
  O39      1.0000 0.86062  0.49250  0.23236  Biso   1.000  O
  O40      1.0000 0.85615  0.27610  0.16780  Biso   1.000  O
  O41      1.0000 0.76696  0.40590  0.92944  Biso   1.000  O
  O42      1.0000 0.76957  0.64690  0.90087  Biso   1.000  O
  N25      1.0000 0.78576  0.36320  0.14889  Biso   1.000  N
  H231     1.0000 0.77730  0.26730  0.14130  Biso   1.000  H
  N26      1.0000 0.68279  0.39540  0.24529  Biso   1.000  N
  N27      1.0000 0.36061  0.60660  0.97690  Biso   1.000  N
  N28      1.0000 0.84270  0.36250  0.37831  Biso   1.000  N
  C275     1.0000 0.75375  0.50130  0.19723  Biso   1.000  C
  C276     1.0000 0.75434  0.48350  0.14087  Biso   1.000  C
  H232     1.0000 0.72290  0.46010  0.10220  Biso   1.000  H
  H233     1.0000 0.76310  0.58250  0.13400  Biso   1.000  H
  C277     1.0000 0.82586  0.55170  0.11481  Biso   1.000  C
  C278     1.0000 0.83517  0.70630  0.13080  Biso   1.000  C
  H234     1.0000 0.84770  0.73980  0.17200  Biso   1.000  H
  C279     1.0000 0.82561  0.81230  0.08440  Biso   1.000  C
  H235     1.0000 0.83190  0.91740  0.09480  Biso   1.000  H
  C280     1.0000 0.80671  0.76230  0.02288  Biso   1.000  C
  H236     1.0000 0.80050  0.83360  0.99210  Biso   1.000  H
  C281     1.0000 0.79702  0.60520  0.00722  Biso   1.000  C
  C282     1.0000 0.80655  0.49900  0.05364  Biso   1.000  C
  H237     1.0000 0.80000  0.39390  0.04360  Biso   1.000  H
  C283     1.0000 0.77585  0.54750  0.94043  Biso   1.000  C
  C284     1.0000 0.93799  0.42300  0.45020  Biso   1.000  C
  C285     1.0000 0.98720  0.46070  0.48640  Biso   1.000  C
  H238     1.0000 0.00070  0.37510  0.48270  Biso   1.000  H
  C286     1.0000 0.15301  0.22210  0.71101  Biso   1.000  C
  C287     1.0000 0.10533  0.20320  0.67371  Biso   1.000  C
  C288     1.0000 0.08528  0.06300  0.66929  Biso   1.000  C
  C289     1.0000 0.11666  0.94480  0.70486  Biso   1.000  C
  C290     1.0000 0.16425  0.96520  0.74204  Biso   1.000  C
  C291     1.0000 0.03513  0.04280  0.63012  Biso   1.000  C
  C292     1.0000 0.00498  0.98850  0.57671  Biso   1.000  C
  C293     1.0000 0.95590  0.95770  0.54354  Biso   1.000  C
  C294     1.0000 0.92458  0.92170  0.47885  Biso   1.000  C
  C295     1.0000 0.87800  0.89270  0.44725  Biso   1.000  C
  C296     1.0000 0.89002  0.93270  0.54199  Biso   1.000  C
  C297     1.0000 0.93666  0.96220  0.57373  Biso   1.000  C
  C298     1.0000 0.35888  0.06450  0.85207  Biso   1.000  C
  C299     1.0000 0.40537  0.03340  0.88532  Biso   1.000  C
  C300     1.0000 0.42110  0.14810  0.97624  Biso   1.000  C
  C301     1.0000 0.37386  0.17590  0.94013  Biso   1.000  C
  H239     1.0000 0.16480  0.31900  0.71240  Biso   1.000  H
  H240     1.0000 0.08600  0.28800  0.65070  Biso   1.000  H
  H241     1.0000 0.10540  0.84710  0.70380  Biso   1.000  H
  H242     1.0000 0.18400  0.88150  0.76540  Biso   1.000  H
  H243     1.0000 0.02350  0.07930  0.65020  Biso   1.000  H
  H244     1.0000 0.01490  0.96250  0.55340  Biso   1.000  H
  H245     1.0000 0.93530  0.91670  0.45540  Biso   1.000  H
  H246     1.0000 0.85840  0.87190  0.40320  Biso   1.000  H
  H247     1.0000 0.87840  0.93910  0.56420  Biso   1.000  H
  H248     1.0000 0.95590  0.98620  0.61750  Biso   1.000  H
  H249     1.0000 0.33770  0.03300  0.80920  Biso   1.000  H
  H250     1.0000 0.41510  0.98370  0.86480  Biso   1.000  H
  H251     1.0000 0.44150  0.17920  0.01920  Biso   1.000  H
  H252     1.0000 0.36340  0.22380  0.96010  Biso   1.000  H
  C302     1.0000 0.36414  0.83290  0.35498  Biso   1.000  C
  H253     1.0000 0.34690  0.79040  0.31380  Biso   1.000  H
  C303     1.0000 0.41078  0.86100  0.38788  Biso   1.000  C
  H254     1.0000 0.42420  0.83880  0.36870  Biso   1.000  H
  C304     1.0000 0.41534  0.95920  0.47300  Biso   1.000  C
  H255     1.0000 0.43160  0.00490  0.51350  Biso   1.000  H
  C305     1.0000 0.36827  0.92920  0.43703  Biso   1.000  C
  H256     1.0000 0.35370  0.95630  0.45410  Biso   1.000  H
  C306     1.0000 0.15562  0.82400  0.18743  Biso   1.000  C
  H257     1.0000 0.16940  0.75920  0.17590  Biso   1.000  H
  C307     1.0000 0.10796  0.84420  0.14480  Biso   1.000  C
  H258     1.0000 0.09070  0.79210  0.10540  Biso   1.000  H
  C308     1.0000 0.08485  0.93880  0.15823  Biso   1.000  C
  C309     1.0000 0.11325  0.01090  0.21711  Biso   1.000  C
  H259     1.0000 0.09990  0.07710  0.22890  Biso   1.000  H
  C310     1.0000 0.16105  0.98900  0.25977  Biso   1.000  C
  H260     1.0000 0.17870  0.03980  0.29940  Biso   1.000  H
  C311     1.0000 0.03444  0.95830  0.11250  Biso   1.000  C
  H261     1.0000 0.01880  0.87810  0.08250  Biso   1.000  H
  C312     1.0000 0.00904  0.05990  0.10624  Biso   1.000  C
  H262     1.0000 0.02460  0.14400  0.13410  Biso   1.000  H
  C313     1.0000 0.95847  0.07230  0.06250  Biso   1.000  C
  C314     1.0000 0.92932  0.97320  0.01138  Biso   1.000  C
  H263     1.0000 0.94240  0.89340  0.00400  Biso   1.000  H
  C315     1.0000 0.88125  0.98770  0.97044  Biso   1.000  C
  H264     1.0000 0.86290  0.91460  0.93800  Biso   1.000  H
  C316     1.0000 0.88787  0.19960  0.02830  Biso   1.000  C
  H265     1.0000 0.87420  0.27490  0.03660  Biso   1.000  H
  C317     1.0000 0.93565  0.18620  0.06919  Biso   1.000  C
  H266     1.0000 0.95330  0.25720  0.10280  Biso   1.000  H
  Mn8      1.0000 0.26283  0.87205  0.31378  Biso   1.000  Mn
  S8       1.0000 0.33614  0.91282  0.17211  Biso   1.000  S
  O43      1.0000 0.26326  0.88520  0.23236  Biso   1.000  O
  O44      1.0000 0.24128  0.12920  0.20301  Biso   1.000  O
  O45      1.0000 0.36062  0.99250  0.23236  Biso   1.000  O
  O46      1.0000 0.35615  0.77610  0.16780  Biso   1.000  O
  O47      1.0000 0.26696  0.90590  0.92944  Biso   1.000  O
  O48      1.0000 0.26957  0.14690  0.90087  Biso   1.000  O
  N29      1.0000 0.28576  0.86320  0.14889  Biso   1.000  N
  H267     1.0000 0.27730  0.76730  0.14130  Biso   1.000  H
  N30      1.0000 0.18279  0.89540  0.24529  Biso   1.000  N
  N31      1.0000 0.86061  0.10660  0.97690  Biso   1.000  N
  N32      1.0000 0.34270  0.86250  0.37831  Biso   1.000  N
  C318     1.0000 0.25375  0.00130  0.19723  Biso   1.000  C
  C319     1.0000 0.25434  0.98350  0.14087  Biso   1.000  C
  H268     1.0000 0.22290  0.96010  0.10220  Biso   1.000  H
  H269     1.0000 0.26310  0.08250  0.13400  Biso   1.000  H
  C320     1.0000 0.32586  0.05170  0.11481  Biso   1.000  C
  C321     1.0000 0.33517  0.20630  0.13080  Biso   1.000  C
  H270     1.0000 0.34770  0.23980  0.17200  Biso   1.000  H
  C322     1.0000 0.32561  0.31230  0.08440  Biso   1.000  C
  H271     1.0000 0.33190  0.41740  0.09480  Biso   1.000  H
  C323     1.0000 0.30671  0.26230  0.02288  Biso   1.000  C
  H272     1.0000 0.30050  0.33360  0.99210  Biso   1.000  H
  C324     1.0000 0.29702  0.10520  0.00722  Biso   1.000  C
  C325     1.0000 0.30655  0.99900  0.05364  Biso   1.000  C
  H273     1.0000 0.30000  0.89390  0.04360  Biso   1.000  H
  C326     1.0000 0.27585  0.04750  0.94043  Biso   1.000  C
  C327     1.0000 0.43799  0.92300  0.45020  Biso   1.000  C
  C328     1.0000 0.48720  0.96070  0.48640  Biso   1.000  C
  H274     1.0000 0.50070  0.87510  0.48270  Biso   1.000  H
  C329     1.0000 0.65301  0.72210  0.71101  Biso   1.000  C
  C330     1.0000 0.60533  0.70320  0.67371  Biso   1.000  C
  C331     1.0000 0.58528  0.56300  0.66929  Biso   1.000  C
  C332     1.0000 0.61666  0.44480  0.70486  Biso   1.000  C
  C333     1.0000 0.66425  0.46520  0.74204  Biso   1.000  C
  C334     1.0000 0.53513  0.54280  0.63012  Biso   1.000  C
  C335     1.0000 0.50498  0.48850  0.57671  Biso   1.000  C
  C336     1.0000 0.45590  0.45770  0.54354  Biso   1.000  C
  C337     1.0000 0.42458  0.42170  0.47885  Biso   1.000  C
  C338     1.0000 0.37800  0.39270  0.44725  Biso   1.000  C
  C339     1.0000 0.39002  0.43270  0.54199  Biso   1.000  C
  C340     1.0000 0.43666  0.46220  0.57373  Biso   1.000  C
  C341     1.0000 0.85888  0.56450  0.85207  Biso   1.000  C
  C342     1.0000 0.90537  0.53340  0.88532  Biso   1.000  C
  C343     1.0000 0.92110  0.64810  0.97624  Biso   1.000  C
  C344     1.0000 0.87386  0.67590  0.94013  Biso   1.000  C
  H275     1.0000 0.66480  0.81900  0.71240  Biso   1.000  H
  H276     1.0000 0.58600  0.78800  0.65070  Biso   1.000  H
  H277     1.0000 0.60540  0.34710  0.70380  Biso   1.000  H
  H278     1.0000 0.68400  0.38150  0.76540  Biso   1.000  H
  H279     1.0000 0.52350  0.57930  0.65020  Biso   1.000  H
  H280     1.0000 0.51490  0.46250  0.55340  Biso   1.000  H
  H281     1.0000 0.43530  0.41670  0.45540  Biso   1.000  H
  H282     1.0000 0.35840  0.37190  0.40320  Biso   1.000  H
  H283     1.0000 0.37840  0.43910  0.56420  Biso   1.000  H
  H284     1.0000 0.45590  0.48620  0.61750  Biso   1.000  H
  H285     1.0000 0.83770  0.53300  0.80920  Biso   1.000  H
  H286     1.0000 0.91510  0.48370  0.86480  Biso   1.000  H
  H287     1.0000 0.94150  0.67920  0.01920  Biso   1.000  H
  H288     1.0000 0.86340  0.72380  0.96010  Biso   1.000  H
