data_image0
_cell_length_a       15.8022
_cell_length_b       24.029
_cell_length_c       21.3108
_cell_angle_alpha    90
_cell_angle_beta     90
_cell_angle_gamma    90

_symmetry_space_group_name_H-M    "P 1"
_symmetry_int_tables_number       1

loop_
  _symmetry_equiv_pos_as_xyz
  'x, y, z'

loop_
  _atom_site_label
  _atom_site_occupancy
  _atom_site_fract_x
  _atom_site_fract_y
  _atom_site_fract_z
  _atom_site_thermal_displace_type
  _atom_site_B_iso_or_equiv
  _atom_site_type_symbol
  Cu1      1.0000 0.40677  0.20975  0.57925  Biso   1.000  Cu
  N1       1.0000 0.26153  0.13809  0.59180  Biso   1.000  N
  N2       1.0000 0.32340  0.16535  0.62457  Biso   1.000  N
  N3       1.0000 0.24320  0.12172  0.69080  Biso   1.000  N
  C1       1.0000 0.21360  0.11280  0.63234  Biso   1.000  C
  H1       1.0000 0.16610  0.09170  0.62250  Biso   1.000  H
  C2       1.0000 0.31170  0.15490  0.68405  Biso   1.000  C
  H2       1.0000 0.34530  0.16810  0.71670  Biso   1.000  H
  C3       1.0000 0.20680  0.10126  0.74865  Biso   1.000  C
  C4       1.0000 0.25300  0.06650  0.78655  Biso   1.000  C
  H3       1.0000 0.30820  0.05700  0.77610  Biso   1.000  H
  C5       1.0000 0.21620  0.04593  0.84044  Biso   1.000  C
  H4       1.0000 0.24630  0.02180  0.86630  Biso   1.000  H
  C6       1.0000 0.13440  0.06116  0.85612  Biso   1.000  C
  C7       1.0000 0.12620  0.11800  0.76420  Biso   1.000  C
  H5       1.0000 0.09650  0.14240  0.73850  Biso   1.000  H
  C8       1.0000 0.09030  0.09780  0.81850  Biso   1.000  C
  H6       1.0000 0.03600  0.10890  0.82980  Biso   1.000  H
  C9       1.0000 0.09180  0.03810  0.91296  Biso   1.000  C
  O1       1.0000 0.11860  0.99316  0.93525  Biso   1.000  O
  O2       1.0000 0.02976  0.06547  0.93381  Biso   1.000  O
  N4       1.0000 0.49350  0.24993  0.53182  Biso   1.000  N
  C10      1.0000 0.56100  0.27657  0.54990  Biso   1.000  C
  H7       1.0000 0.57640  0.28280  0.59150  Biso   1.000  H
  Cl1      1.0000 0.42380  0.26706  0.66317  Biso   1.000  Cl
  C11      1.0000 0.68820  0.31930  0.48020  Biso   1.000  C
  C12      1.0000 0.84780  0.36160  0.46680  Biso   1.000  C
  C13      1.0000 0.73090  0.31100  0.42450  Biso   1.000  C
  H8       1.0000 0.70570  0.29150  0.39170  Biso   1.000  H
  C14      1.0000 0.81140  0.33210  0.41840  Biso   1.000  C
  H9       1.0000 0.84140  0.32640  0.38150  Biso   1.000  H
  O3       1.0000 0.97970  0.36780  0.41100  Biso   1.000  O
  C15      1.0000 0.94120  0.37860  0.46180  Biso   1.000  C
  C16      1.0000 0.72200  0.34840  0.47080  Biso   1.000  C
  H10      1.0000 0.69160  0.35360  0.43390  Biso   1.000  H
  C17      1.0000 0.80320  0.37020  0.47760  Biso   1.000  C
  H11      1.0000 0.82760  0.39040  0.44500  Biso   1.000  H
  O4       1.0000 0.98640  0.35150  0.37520  Biso   1.000  O
  Cu2      1.0000 0.90677  0.70975  0.57925  Biso   1.000  Cu
  N5       1.0000 0.76153  0.63809  0.59180  Biso   1.000  N
  N6       1.0000 0.82340  0.66535  0.62457  Biso   1.000  N
  N7       1.0000 0.74320  0.62172  0.69080  Biso   1.000  N
  C18      1.0000 0.71360  0.61280  0.63234  Biso   1.000  C
  H12      1.0000 0.66610  0.59170  0.62250  Biso   1.000  H
  C19      1.0000 0.81170  0.65490  0.68405  Biso   1.000  C
  H13      1.0000 0.84530  0.66810  0.71670  Biso   1.000  H
  C20      1.0000 0.70680  0.60126  0.74865  Biso   1.000  C
  C21      1.0000 0.75300  0.56650  0.78655  Biso   1.000  C
  H14      1.0000 0.80820  0.55700  0.77610  Biso   1.000  H
  C22      1.0000 0.71620  0.54593  0.84044  Biso   1.000  C
  H15      1.0000 0.74630  0.52180  0.86630  Biso   1.000  H
  C23      1.0000 0.63440  0.56116  0.85612  Biso   1.000  C
  C24      1.0000 0.62620  0.61800  0.76420  Biso   1.000  C
  H16      1.0000 0.59650  0.64240  0.73850  Biso   1.000  H
  C25      1.0000 0.59030  0.59780  0.81850  Biso   1.000  C
  H17      1.0000 0.53600  0.60890  0.82980  Biso   1.000  H
  C26      1.0000 0.59180  0.53810  0.91296  Biso   1.000  C
  O5       1.0000 0.61860  0.49316  0.93525  Biso   1.000  O
  O6       1.0000 0.52976  0.56547  0.93381  Biso   1.000  O
  N8       1.0000 0.99350  0.74993  0.53182  Biso   1.000  N
  C27      1.0000 0.06100  0.77657  0.54990  Biso   1.000  C
  H18      1.0000 0.07640  0.78280  0.59150  Biso   1.000  H
  Cl2      1.0000 0.92380  0.76706  0.66317  Biso   1.000  Cl
  C28      1.0000 0.18820  0.81930  0.48020  Biso   1.000  C
  C29      1.0000 0.34780  0.86160  0.46680  Biso   1.000  C
  C30      1.0000 0.23090  0.81100  0.42450  Biso   1.000  C
  H19      1.0000 0.20570  0.79150  0.39170  Biso   1.000  H
  C31      1.0000 0.31140  0.83210  0.41840  Biso   1.000  C
  H20      1.0000 0.34140  0.82640  0.38150  Biso   1.000  H
  O7       1.0000 0.47970  0.86780  0.41100  Biso   1.000  O
  C32      1.0000 0.44120  0.87860  0.46180  Biso   1.000  C
  C33      1.0000 0.22200  0.84840  0.47080  Biso   1.000  C
  H21      1.0000 0.19160  0.85360  0.43390  Biso   1.000  H
  C34      1.0000 0.30320  0.87020  0.47760  Biso   1.000  C
  H22      1.0000 0.32760  0.89040  0.44500  Biso   1.000  H
  O8       1.0000 0.48640  0.85150  0.37520  Biso   1.000  O
  Cu3      1.0000 0.59323  0.79025  0.57925  Biso   1.000  Cu
  N9       1.0000 0.73847  0.86191  0.59180  Biso   1.000  N
  N10      1.0000 0.67660  0.83465  0.62457  Biso   1.000  N
  N11      1.0000 0.75680  0.87828  0.69080  Biso   1.000  N
  C35      1.0000 0.78640  0.88720  0.63234  Biso   1.000  C
  H23      1.0000 0.83390  0.90830  0.62250  Biso   1.000  H
  C36      1.0000 0.68830  0.84510  0.68405  Biso   1.000  C
  H24      1.0000 0.65470  0.83190  0.71670  Biso   1.000  H
  C37      1.0000 0.79320  0.89874  0.74865  Biso   1.000  C
  C38      1.0000 0.74700  0.93350  0.78655  Biso   1.000  C
  H25      1.0000 0.69180  0.94300  0.77610  Biso   1.000  H
  C39      1.0000 0.78380  0.95407  0.84044  Biso   1.000  C
  H26      1.0000 0.75370  0.97820  0.86630  Biso   1.000  H
  C40      1.0000 0.86560  0.93884  0.85612  Biso   1.000  C
  C41      1.0000 0.87380  0.88200  0.76420  Biso   1.000  C
  H27      1.0000 0.90350  0.85760  0.73850  Biso   1.000  H
  C42      1.0000 0.90970  0.90220  0.81850  Biso   1.000  C
  H28      1.0000 0.96400  0.89110  0.82980  Biso   1.000  H
  C43      1.0000 0.90820  0.96190  0.91296  Biso   1.000  C
  O9       1.0000 0.88140  0.00684  0.93525  Biso   1.000  O
  O10      1.0000 0.97024  0.93453  0.93381  Biso   1.000  O
  N12      1.0000 0.50650  0.75007  0.53182  Biso   1.000  N
  C44      1.0000 0.43900  0.72343  0.54990  Biso   1.000  C
  H29      1.0000 0.42360  0.71720  0.59150  Biso   1.000  H
  Cl3      1.0000 0.57620  0.73294  0.66317  Biso   1.000  Cl
  C45      1.0000 0.31180  0.68070  0.48020  Biso   1.000  C
  C46      1.0000 0.15220  0.63840  0.46680  Biso   1.000  C
  C47      1.0000 0.26910  0.68900  0.42450  Biso   1.000  C
  H30      1.0000 0.29430  0.70850  0.39170  Biso   1.000  H
  C48      1.0000 0.18860  0.66790  0.41840  Biso   1.000  C
  H31      1.0000 0.15860  0.67360  0.38150  Biso   1.000  H
  O11      1.0000 0.02030  0.63220  0.41100  Biso   1.000  O
  C49      1.0000 0.05880  0.62140  0.46180  Biso   1.000  C
  C50      1.0000 0.27800  0.65160  0.47080  Biso   1.000  C
  H32      1.0000 0.30840  0.64640  0.43390  Biso   1.000  H
  C51      1.0000 0.19680  0.62980  0.47760  Biso   1.000  C
  H33      1.0000 0.17240  0.60960  0.44500  Biso   1.000  H
  O12      1.0000 0.01360  0.64850  0.37520  Biso   1.000  O
  Cu4      1.0000 0.09323  0.29025  0.57925  Biso   1.000  Cu
  N13      1.0000 0.23847  0.36191  0.59180  Biso   1.000  N
  N14      1.0000 0.17660  0.33465  0.62457  Biso   1.000  N
  N15      1.0000 0.25680  0.37828  0.69080  Biso   1.000  N
  C52      1.0000 0.28640  0.38720  0.63234  Biso   1.000  C
  H34      1.0000 0.33390  0.40830  0.62250  Biso   1.000  H
  C53      1.0000 0.18830  0.34510  0.68405  Biso   1.000  C
  H35      1.0000 0.15470  0.33190  0.71670  Biso   1.000  H
  C54      1.0000 0.29320  0.39874  0.74865  Biso   1.000  C
  C55      1.0000 0.24700  0.43350  0.78655  Biso   1.000  C
  H36      1.0000 0.19180  0.44300  0.77610  Biso   1.000  H
  C56      1.0000 0.28380  0.45407  0.84044  Biso   1.000  C
  H37      1.0000 0.25370  0.47820  0.86630  Biso   1.000  H
  C57      1.0000 0.36560  0.43884  0.85612  Biso   1.000  C
  C58      1.0000 0.37380  0.38200  0.76420  Biso   1.000  C
  H38      1.0000 0.40350  0.35760  0.73850  Biso   1.000  H
  C59      1.0000 0.40970  0.40220  0.81850  Biso   1.000  C
  H39      1.0000 0.46400  0.39110  0.82980  Biso   1.000  H
  C60      1.0000 0.40820  0.46190  0.91296  Biso   1.000  C
  O13      1.0000 0.38140  0.50684  0.93525  Biso   1.000  O
  O14      1.0000 0.47024  0.43453  0.93381  Biso   1.000  O
  N16      1.0000 0.00650  0.25007  0.53182  Biso   1.000  N
  C61      1.0000 0.93900  0.22343  0.54990  Biso   1.000  C
  H40      1.0000 0.92360  0.21720  0.59150  Biso   1.000  H
  Cl4      1.0000 0.07620  0.23294  0.66317  Biso   1.000  Cl
  C62      1.0000 0.81180  0.18070  0.48020  Biso   1.000  C
  C63      1.0000 0.65220  0.13840  0.46680  Biso   1.000  C
  C64      1.0000 0.76910  0.18900  0.42450  Biso   1.000  C
  H41      1.0000 0.79430  0.20850  0.39170  Biso   1.000  H
  C65      1.0000 0.68860  0.16790  0.41840  Biso   1.000  C
  H42      1.0000 0.65860  0.17360  0.38150  Biso   1.000  H
  O15      1.0000 0.52030  0.13220  0.41100  Biso   1.000  O
  C66      1.0000 0.55880  0.12140  0.46180  Biso   1.000  C
  C67      1.0000 0.77800  0.15160  0.47080  Biso   1.000  C
  H43      1.0000 0.80840  0.14640  0.43390  Biso   1.000  H
  C68      1.0000 0.69680  0.12980  0.47760  Biso   1.000  C
  H44      1.0000 0.67240  0.10960  0.44500  Biso   1.000  H
  O16      1.0000 0.51360  0.14850  0.37520  Biso   1.000  O
  Cu5      1.0000 0.59323  0.20975  0.92075  Biso   1.000  Cu
  N17      1.0000 0.73847  0.13809  0.90820  Biso   1.000  N
  N18      1.0000 0.67660  0.16535  0.87543  Biso   1.000  N
  N19      1.0000 0.75680  0.12172  0.80920  Biso   1.000  N
  C69      1.0000 0.78640  0.11280  0.86766  Biso   1.000  C
  H45      1.0000 0.83390  0.09170  0.87750  Biso   1.000  H
  C70      1.0000 0.68830  0.15490  0.81595  Biso   1.000  C
  H46      1.0000 0.65470  0.16810  0.78330  Biso   1.000  H
  C71      1.0000 0.79320  0.10126  0.75135  Biso   1.000  C
  C72      1.0000 0.74700  0.06650  0.71345  Biso   1.000  C
  H47      1.0000 0.69180  0.05700  0.72390  Biso   1.000  H
  C73      1.0000 0.78380  0.04593  0.65956  Biso   1.000  C
  H48      1.0000 0.75370  0.02180  0.63370  Biso   1.000  H
  C74      1.0000 0.86560  0.06116  0.64388  Biso   1.000  C
  C75      1.0000 0.87380  0.11800  0.73580  Biso   1.000  C
  H49      1.0000 0.90350  0.14240  0.76150  Biso   1.000  H
  C76      1.0000 0.90970  0.09780  0.68150  Biso   1.000  C
  H50      1.0000 0.96400  0.10890  0.67020  Biso   1.000  H
  C77      1.0000 0.90820  0.03810  0.58704  Biso   1.000  C
  O17      1.0000 0.88140  0.99316  0.56475  Biso   1.000  O
  O18      1.0000 0.97024  0.06547  0.56619  Biso   1.000  O
  N20      1.0000 0.50650  0.24993  0.96818  Biso   1.000  N
  C78      1.0000 0.43900  0.27657  0.95010  Biso   1.000  C
  H51      1.0000 0.42360  0.28280  0.90850  Biso   1.000  H
  Cl5      1.0000 0.57620  0.26706  0.83683  Biso   1.000  Cl
  C79      1.0000 0.31180  0.31930  0.01980  Biso   1.000  C
  C80      1.0000 0.15220  0.36160  0.03320  Biso   1.000  C
  C81      1.0000 0.26910  0.31100  0.07550  Biso   1.000  C
  H52      1.0000 0.29430  0.29150  0.10830  Biso   1.000  H
  C82      1.0000 0.18860  0.33210  0.08160  Biso   1.000  C
  H53      1.0000 0.15860  0.32640  0.11850  Biso   1.000  H
  O19      1.0000 0.02030  0.36780  0.08900  Biso   1.000  O
  C83      1.0000 0.05880  0.37860  0.03820  Biso   1.000  C
  C84      1.0000 0.27800  0.34840  0.02920  Biso   1.000  C
  H54      1.0000 0.30840  0.35360  0.06610  Biso   1.000  H
  C85      1.0000 0.19680  0.37020  0.02240  Biso   1.000  C
  H55      1.0000 0.17240  0.39040  0.05500  Biso   1.000  H
  O20      1.0000 0.01360  0.35150  0.12480  Biso   1.000  O
  Cu6      1.0000 0.09323  0.70975  0.92075  Biso   1.000  Cu
  N21      1.0000 0.23847  0.63809  0.90820  Biso   1.000  N
  N22      1.0000 0.17660  0.66535  0.87543  Biso   1.000  N
  N23      1.0000 0.25680  0.62172  0.80920  Biso   1.000  N
  C86      1.0000 0.28640  0.61280  0.86766  Biso   1.000  C
  H56      1.0000 0.33390  0.59170  0.87750  Biso   1.000  H
  C87      1.0000 0.18830  0.65490  0.81595  Biso   1.000  C
  H57      1.0000 0.15470  0.66810  0.78330  Biso   1.000  H
  C88      1.0000 0.29320  0.60126  0.75135  Biso   1.000  C
  C89      1.0000 0.24700  0.56650  0.71345  Biso   1.000  C
  H58      1.0000 0.19180  0.55700  0.72390  Biso   1.000  H
  C90      1.0000 0.28380  0.54593  0.65956  Biso   1.000  C
  H59      1.0000 0.25370  0.52180  0.63370  Biso   1.000  H
  C91      1.0000 0.36560  0.56116  0.64388  Biso   1.000  C
  C92      1.0000 0.37380  0.61800  0.73580  Biso   1.000  C
  H60      1.0000 0.40350  0.64240  0.76150  Biso   1.000  H
  C93      1.0000 0.40970  0.59780  0.68150  Biso   1.000  C
  H61      1.0000 0.46400  0.60890  0.67020  Biso   1.000  H
  C94      1.0000 0.40820  0.53810  0.58704  Biso   1.000  C
  O21      1.0000 0.38140  0.49316  0.56475  Biso   1.000  O
  O22      1.0000 0.47024  0.56547  0.56619  Biso   1.000  O
  N24      1.0000 0.00650  0.74993  0.96818  Biso   1.000  N
  C95      1.0000 0.93900  0.77657  0.95010  Biso   1.000  C
  H62      1.0000 0.92360  0.78280  0.90850  Biso   1.000  H
  Cl6      1.0000 0.07620  0.76706  0.83683  Biso   1.000  Cl
  C96      1.0000 0.81180  0.81930  0.01980  Biso   1.000  C
  C97      1.0000 0.65220  0.86160  0.03320  Biso   1.000  C
  C98      1.0000 0.76910  0.81100  0.07550  Biso   1.000  C
  H63      1.0000 0.79430  0.79150  0.10830  Biso   1.000  H
  C99      1.0000 0.68860  0.83210  0.08160  Biso   1.000  C
  H64      1.0000 0.65860  0.82640  0.11850  Biso   1.000  H
  O23      1.0000 0.52030  0.86780  0.08900  Biso   1.000  O
  C100     1.0000 0.55880  0.87860  0.03820  Biso   1.000  C
  C101     1.0000 0.77800  0.84840  0.02920  Biso   1.000  C
  H65      1.0000 0.80840  0.85360  0.06610  Biso   1.000  H
  C102     1.0000 0.69680  0.87020  0.02240  Biso   1.000  C
  H66      1.0000 0.67240  0.89040  0.05500  Biso   1.000  H
  O24      1.0000 0.51360  0.85150  0.12480  Biso   1.000  O
  Cu7      1.0000 0.40677  0.79025  0.92075  Biso   1.000  Cu
  N25      1.0000 0.26153  0.86191  0.90820  Biso   1.000  N
  N26      1.0000 0.32340  0.83465  0.87543  Biso   1.000  N
  N27      1.0000 0.24320  0.87828  0.80920  Biso   1.000  N
  C103     1.0000 0.21360  0.88720  0.86766  Biso   1.000  C
  H67      1.0000 0.16610  0.90830  0.87750  Biso   1.000  H
  C104     1.0000 0.31170  0.84510  0.81595  Biso   1.000  C
  H68      1.0000 0.34530  0.83190  0.78330  Biso   1.000  H
  C105     1.0000 0.20680  0.89874  0.75135  Biso   1.000  C
  C106     1.0000 0.25300  0.93350  0.71345  Biso   1.000  C
  H69      1.0000 0.30820  0.94300  0.72390  Biso   1.000  H
  C107     1.0000 0.21620  0.95407  0.65956  Biso   1.000  C
  H70      1.0000 0.24630  0.97820  0.63370  Biso   1.000  H
  C108     1.0000 0.13440  0.93884  0.64388  Biso   1.000  C
  C109     1.0000 0.12620  0.88200  0.73580  Biso   1.000  C
  H71      1.0000 0.09650  0.85760  0.76150  Biso   1.000  H
  C110     1.0000 0.09030  0.90220  0.68150  Biso   1.000  C
  H72      1.0000 0.03600  0.89110  0.67020  Biso   1.000  H
  C111     1.0000 0.09180  0.96190  0.58704  Biso   1.000  C
  O25      1.0000 0.11860  0.00684  0.56475  Biso   1.000  O
  O26      1.0000 0.02976  0.93453  0.56619  Biso   1.000  O
  N28      1.0000 0.49350  0.75007  0.96818  Biso   1.000  N
  C112     1.0000 0.56100  0.72343  0.95010  Biso   1.000  C
  H73      1.0000 0.57640  0.71720  0.90850  Biso   1.000  H
  Cl7      1.0000 0.42380  0.73294  0.83683  Biso   1.000  Cl
  C113     1.0000 0.68820  0.68070  0.01980  Biso   1.000  C
  C114     1.0000 0.84780  0.63840  0.03320  Biso   1.000  C
  C115     1.0000 0.73090  0.68900  0.07550  Biso   1.000  C
  H74      1.0000 0.70570  0.70850  0.10830  Biso   1.000  H
  C116     1.0000 0.81140  0.66790  0.08160  Biso   1.000  C
  H75      1.0000 0.84140  0.67360  0.11850  Biso   1.000  H
  O27      1.0000 0.97970  0.63220  0.08900  Biso   1.000  O
  C117     1.0000 0.94120  0.62140  0.03820  Biso   1.000  C
  C118     1.0000 0.72200  0.65160  0.02920  Biso   1.000  C
  H76      1.0000 0.69160  0.64640  0.06610  Biso   1.000  H
  C119     1.0000 0.80320  0.62980  0.02240  Biso   1.000  C
  H77      1.0000 0.82760  0.60960  0.05500  Biso   1.000  H
  O28      1.0000 0.98640  0.64850  0.12480  Biso   1.000  O
  Cu8      1.0000 0.90677  0.29025  0.92075  Biso   1.000  Cu
  N29      1.0000 0.76153  0.36191  0.90820  Biso   1.000  N
  N30      1.0000 0.82340  0.33465  0.87543  Biso   1.000  N
  N31      1.0000 0.74320  0.37828  0.80920  Biso   1.000  N
  C120     1.0000 0.71360  0.38720  0.86766  Biso   1.000  C
  H78      1.0000 0.66610  0.40830  0.87750  Biso   1.000  H
  C121     1.0000 0.81170  0.34510  0.81595  Biso   1.000  C
  H79      1.0000 0.84530  0.33190  0.78330  Biso   1.000  H
  C122     1.0000 0.70680  0.39874  0.75135  Biso   1.000  C
  C123     1.0000 0.75300  0.43350  0.71345  Biso   1.000  C
  H80      1.0000 0.80820  0.44300  0.72390  Biso   1.000  H
  C124     1.0000 0.71620  0.45407  0.65956  Biso   1.000  C
  H81      1.0000 0.74630  0.47820  0.63370  Biso   1.000  H
  C125     1.0000 0.63440  0.43884  0.64388  Biso   1.000  C
  C126     1.0000 0.62620  0.38200  0.73580  Biso   1.000  C
  H82      1.0000 0.59650  0.35760  0.76150  Biso   1.000  H
  C127     1.0000 0.59030  0.40220  0.68150  Biso   1.000  C
  H83      1.0000 0.53600  0.39110  0.67020  Biso   1.000  H
  C128     1.0000 0.59180  0.46190  0.58704  Biso   1.000  C
  O29      1.0000 0.61860  0.50684  0.56475  Biso   1.000  O
  O30      1.0000 0.52976  0.43453  0.56619  Biso   1.000  O
  N32      1.0000 0.99350  0.25007  0.96818  Biso   1.000  N
  C129     1.0000 0.06100  0.22343  0.95010  Biso   1.000  C
  H84      1.0000 0.07640  0.21720  0.90850  Biso   1.000  H
  Cl8      1.0000 0.92380  0.23294  0.83683  Biso   1.000  Cl
  C130     1.0000 0.18820  0.18070  0.01980  Biso   1.000  C
  C131     1.0000 0.34780  0.13840  0.03320  Biso   1.000  C
  C132     1.0000 0.23090  0.18900  0.07550  Biso   1.000  C
  H85      1.0000 0.20570  0.20850  0.10830  Biso   1.000  H
  C133     1.0000 0.31140  0.16790  0.08160  Biso   1.000  C
  H86      1.0000 0.34140  0.17360  0.11850  Biso   1.000  H
  O31      1.0000 0.47970  0.13220  0.08900  Biso   1.000  O
  C134     1.0000 0.44120  0.12140  0.03820  Biso   1.000  C
  C135     1.0000 0.22200  0.15160  0.02920  Biso   1.000  C
  H87      1.0000 0.19160  0.14640  0.06610  Biso   1.000  H
  C136     1.0000 0.30320  0.12980  0.02240  Biso   1.000  C
  H88      1.0000 0.32760  0.10960  0.05500  Biso   1.000  H
  O32      1.0000 0.48640  0.14850  0.12480  Biso   1.000  O
  Cu9      1.0000 0.59323  0.79025  0.42075  Biso   1.000  Cu
  N33      1.0000 0.73847  0.86191  0.40820  Biso   1.000  N
  N34      1.0000 0.67660  0.83465  0.37543  Biso   1.000  N
  N35      1.0000 0.75680  0.87828  0.30920  Biso   1.000  N
  C137     1.0000 0.78640  0.88720  0.36766  Biso   1.000  C
  H89      1.0000 0.83390  0.90830  0.37750  Biso   1.000  H
  C138     1.0000 0.68830  0.84510  0.31595  Biso   1.000  C
  H90      1.0000 0.65470  0.83190  0.28330  Biso   1.000  H
  C139     1.0000 0.79320  0.89874  0.25135  Biso   1.000  C
  C140     1.0000 0.74700  0.93350  0.21345  Biso   1.000  C
  H91      1.0000 0.69180  0.94300  0.22390  Biso   1.000  H
  C141     1.0000 0.78380  0.95407  0.15956  Biso   1.000  C
  H92      1.0000 0.75370  0.97820  0.13370  Biso   1.000  H
  C142     1.0000 0.86560  0.93884  0.14388  Biso   1.000  C
  C143     1.0000 0.87380  0.88200  0.23580  Biso   1.000  C
  H93      1.0000 0.90350  0.85760  0.26150  Biso   1.000  H
  C144     1.0000 0.90970  0.90220  0.18150  Biso   1.000  C
  H94      1.0000 0.96400  0.89110  0.17020  Biso   1.000  H
  C145     1.0000 0.90820  0.96190  0.08704  Biso   1.000  C
  O33      1.0000 0.88140  0.00684  0.06475  Biso   1.000  O
  O34      1.0000 0.97024  0.93453  0.06619  Biso   1.000  O
  N36      1.0000 0.50650  0.75007  0.46818  Biso   1.000  N
  C146     1.0000 0.43900  0.72343  0.45010  Biso   1.000  C
  H95      1.0000 0.42360  0.71720  0.40850  Biso   1.000  H
  Cl9      1.0000 0.57620  0.73294  0.33683  Biso   1.000  Cl
  C147     1.0000 0.31180  0.68070  0.51980  Biso   1.000  C
  C148     1.0000 0.15220  0.63840  0.53320  Biso   1.000  C
  C149     1.0000 0.26910  0.68900  0.57550  Biso   1.000  C
  H96      1.0000 0.29430  0.70850  0.60830  Biso   1.000  H
  C150     1.0000 0.18860  0.66790  0.58160  Biso   1.000  C
  H97      1.0000 0.15860  0.67360  0.61850  Biso   1.000  H
  O35      1.0000 0.02030  0.63220  0.58900  Biso   1.000  O
  C151     1.0000 0.05880  0.62140  0.53820  Biso   1.000  C
  C152     1.0000 0.27800  0.65160  0.52920  Biso   1.000  C
  H98      1.0000 0.30840  0.64640  0.56610  Biso   1.000  H
  C153     1.0000 0.19680  0.62980  0.52240  Biso   1.000  C
  H99      1.0000 0.17240  0.60960  0.55500  Biso   1.000  H
  O36      1.0000 0.01360  0.64850  0.62480  Biso   1.000  O
  Cu10     1.0000 0.09323  0.29025  0.42075  Biso   1.000  Cu
  N37      1.0000 0.23847  0.36191  0.40820  Biso   1.000  N
  N38      1.0000 0.17660  0.33465  0.37543  Biso   1.000  N
  N39      1.0000 0.25680  0.37828  0.30920  Biso   1.000  N
  C154     1.0000 0.28640  0.38720  0.36766  Biso   1.000  C
  H100     1.0000 0.33390  0.40830  0.37750  Biso   1.000  H
  C155     1.0000 0.18830  0.34510  0.31595  Biso   1.000  C
  H101     1.0000 0.15470  0.33190  0.28330  Biso   1.000  H
  C156     1.0000 0.29320  0.39874  0.25135  Biso   1.000  C
  C157     1.0000 0.24700  0.43350  0.21345  Biso   1.000  C
  H102     1.0000 0.19180  0.44300  0.22390  Biso   1.000  H
  C158     1.0000 0.28380  0.45407  0.15956  Biso   1.000  C
  H103     1.0000 0.25370  0.47820  0.13370  Biso   1.000  H
  C159     1.0000 0.36560  0.43884  0.14388  Biso   1.000  C
  C160     1.0000 0.37380  0.38200  0.23580  Biso   1.000  C
  H104     1.0000 0.40350  0.35760  0.26150  Biso   1.000  H
  C161     1.0000 0.40970  0.40220  0.18150  Biso   1.000  C
  H105     1.0000 0.46400  0.39110  0.17020  Biso   1.000  H
  C162     1.0000 0.40820  0.46190  0.08704  Biso   1.000  C
  O37      1.0000 0.38140  0.50684  0.06475  Biso   1.000  O
  O38      1.0000 0.47024  0.43453  0.06619  Biso   1.000  O
  N40      1.0000 0.00650  0.25007  0.46818  Biso   1.000  N
  C163     1.0000 0.93900  0.22343  0.45010  Biso   1.000  C
  H106     1.0000 0.92360  0.21720  0.40850  Biso   1.000  H
  Cl10     1.0000 0.07620  0.23294  0.33683  Biso   1.000  Cl
  C164     1.0000 0.81180  0.18070  0.51980  Biso   1.000  C
  C165     1.0000 0.65220  0.13840  0.53320  Biso   1.000  C
  C166     1.0000 0.76910  0.18900  0.57550  Biso   1.000  C
  H107     1.0000 0.79430  0.20850  0.60830  Biso   1.000  H
  C167     1.0000 0.68860  0.16790  0.58160  Biso   1.000  C
  H108     1.0000 0.65860  0.17360  0.61850  Biso   1.000  H
  O39      1.0000 0.52030  0.13220  0.58900  Biso   1.000  O
  C168     1.0000 0.55880  0.12140  0.53820  Biso   1.000  C
  C169     1.0000 0.77800  0.15160  0.52920  Biso   1.000  C
  H109     1.0000 0.80840  0.14640  0.56610  Biso   1.000  H
  C170     1.0000 0.69680  0.12980  0.52240  Biso   1.000  C
  H110     1.0000 0.67240  0.10960  0.55500  Biso   1.000  H
  O40      1.0000 0.51360  0.14850  0.62480  Biso   1.000  O
  Cu11     1.0000 0.40677  0.20975  0.42075  Biso   1.000  Cu
  N41      1.0000 0.26153  0.13809  0.40820  Biso   1.000  N
  N42      1.0000 0.32340  0.16535  0.37543  Biso   1.000  N
  N43      1.0000 0.24320  0.12172  0.30920  Biso   1.000  N
  C171     1.0000 0.21360  0.11280  0.36766  Biso   1.000  C
  H111     1.0000 0.16610  0.09170  0.37750  Biso   1.000  H
  C172     1.0000 0.31170  0.15490  0.31595  Biso   1.000  C
  H112     1.0000 0.34530  0.16810  0.28330  Biso   1.000  H
  C173     1.0000 0.20680  0.10126  0.25135  Biso   1.000  C
  C174     1.0000 0.25300  0.06650  0.21345  Biso   1.000  C
  H113     1.0000 0.30820  0.05700  0.22390  Biso   1.000  H
  C175     1.0000 0.21620  0.04593  0.15956  Biso   1.000  C
  H114     1.0000 0.24630  0.02180  0.13370  Biso   1.000  H
  C176     1.0000 0.13440  0.06116  0.14388  Biso   1.000  C
  C177     1.0000 0.12620  0.11800  0.23580  Biso   1.000  C
  H115     1.0000 0.09650  0.14240  0.26150  Biso   1.000  H
  C178     1.0000 0.09030  0.09780  0.18150  Biso   1.000  C
  H116     1.0000 0.03600  0.10890  0.17020  Biso   1.000  H
  C179     1.0000 0.09180  0.03810  0.08704  Biso   1.000  C
  O41      1.0000 0.11860  0.99316  0.06475  Biso   1.000  O
  O42      1.0000 0.02976  0.06547  0.06619  Biso   1.000  O
  N44      1.0000 0.49350  0.24993  0.46818  Biso   1.000  N
  C180     1.0000 0.56100  0.27657  0.45010  Biso   1.000  C
  H117     1.0000 0.57640  0.28280  0.40850  Biso   1.000  H
  Cl11     1.0000 0.42380  0.26706  0.33683  Biso   1.000  Cl
  C181     1.0000 0.68820  0.31930  0.51980  Biso   1.000  C
  C182     1.0000 0.84780  0.36160  0.53320  Biso   1.000  C
  C183     1.0000 0.73090  0.31100  0.57550  Biso   1.000  C
  H118     1.0000 0.70570  0.29150  0.60830  Biso   1.000  H
  C184     1.0000 0.81140  0.33210  0.58160  Biso   1.000  C
  H119     1.0000 0.84140  0.32640  0.61850  Biso   1.000  H
  O43      1.0000 0.97970  0.36780  0.58900  Biso   1.000  O
  C185     1.0000 0.94120  0.37860  0.53820  Biso   1.000  C
  C186     1.0000 0.72200  0.34840  0.52920  Biso   1.000  C
  H120     1.0000 0.69160  0.35360  0.56610  Biso   1.000  H
  C187     1.0000 0.80320  0.37020  0.52240  Biso   1.000  C
  H121     1.0000 0.82760  0.39040  0.55500  Biso   1.000  H
  O44      1.0000 0.98640  0.35150  0.62480  Biso   1.000  O
  Cu12     1.0000 0.90677  0.70975  0.42075  Biso   1.000  Cu
  N45      1.0000 0.76153  0.63809  0.40820  Biso   1.000  N
  N46      1.0000 0.82340  0.66535  0.37543  Biso   1.000  N
  N47      1.0000 0.74320  0.62172  0.30920  Biso   1.000  N
  C188     1.0000 0.71360  0.61280  0.36766  Biso   1.000  C
  H122     1.0000 0.66610  0.59170  0.37750  Biso   1.000  H
  C189     1.0000 0.81170  0.65490  0.31595  Biso   1.000  C
  H123     1.0000 0.84530  0.66810  0.28330  Biso   1.000  H
  C190     1.0000 0.70680  0.60126  0.25135  Biso   1.000  C
  C191     1.0000 0.75300  0.56650  0.21345  Biso   1.000  C
  H124     1.0000 0.80820  0.55700  0.22390  Biso   1.000  H
  C192     1.0000 0.71620  0.54593  0.15956  Biso   1.000  C
  H125     1.0000 0.74630  0.52180  0.13370  Biso   1.000  H
  C193     1.0000 0.63440  0.56116  0.14388  Biso   1.000  C
  C194     1.0000 0.62620  0.61800  0.23580  Biso   1.000  C
  H126     1.0000 0.59650  0.64240  0.26150  Biso   1.000  H
  C195     1.0000 0.59030  0.59780  0.18150  Biso   1.000  C
  H127     1.0000 0.53600  0.60890  0.17020  Biso   1.000  H
  C196     1.0000 0.59180  0.53810  0.08704  Biso   1.000  C
  O45      1.0000 0.61860  0.49316  0.06475  Biso   1.000  O
  O46      1.0000 0.52976  0.56547  0.06619  Biso   1.000  O
  N48      1.0000 0.99350  0.74993  0.46818  Biso   1.000  N
  C197     1.0000 0.06100  0.77657  0.45010  Biso   1.000  C
  H128     1.0000 0.07640  0.78280  0.40850  Biso   1.000  H
  Cl12     1.0000 0.92380  0.76706  0.33683  Biso   1.000  Cl
  C198     1.0000 0.18820  0.81930  0.51980  Biso   1.000  C
  C199     1.0000 0.34780  0.86160  0.53320  Biso   1.000  C
  C200     1.0000 0.23090  0.81100  0.57550  Biso   1.000  C
  H129     1.0000 0.20570  0.79150  0.60830  Biso   1.000  H
  C201     1.0000 0.31140  0.83210  0.58160  Biso   1.000  C
  H130     1.0000 0.34140  0.82640  0.61850  Biso   1.000  H
  O47      1.0000 0.47970  0.86780  0.58900  Biso   1.000  O
  C202     1.0000 0.44120  0.87860  0.53820  Biso   1.000  C
  C203     1.0000 0.22200  0.84840  0.52920  Biso   1.000  C
  H131     1.0000 0.19160  0.85360  0.56610  Biso   1.000  H
  C204     1.0000 0.30320  0.87020  0.52240  Biso   1.000  C
  H132     1.0000 0.32760  0.89040  0.55500  Biso   1.000  H
  O48      1.0000 0.48640  0.85150  0.62480  Biso   1.000  O
  Cu13     1.0000 0.40677  0.79025  0.07925  Biso   1.000  Cu
  N49      1.0000 0.26153  0.86191  0.09180  Biso   1.000  N
  N50      1.0000 0.32340  0.83465  0.12457  Biso   1.000  N
  N51      1.0000 0.24320  0.87828  0.19080  Biso   1.000  N
  C205     1.0000 0.21360  0.88720  0.13234  Biso   1.000  C
  H133     1.0000 0.16610  0.90830  0.12250  Biso   1.000  H
  C206     1.0000 0.31170  0.84510  0.18405  Biso   1.000  C
  H134     1.0000 0.34530  0.83190  0.21670  Biso   1.000  H
  C207     1.0000 0.20680  0.89874  0.24865  Biso   1.000  C
  C208     1.0000 0.25300  0.93350  0.28655  Biso   1.000  C
  H135     1.0000 0.30820  0.94300  0.27610  Biso   1.000  H
  C209     1.0000 0.21620  0.95407  0.34044  Biso   1.000  C
  H136     1.0000 0.24630  0.97820  0.36630  Biso   1.000  H
  C210     1.0000 0.13440  0.93884  0.35612  Biso   1.000  C
  C211     1.0000 0.12620  0.88200  0.26420  Biso   1.000  C
  H137     1.0000 0.09650  0.85760  0.23850  Biso   1.000  H
  C212     1.0000 0.09030  0.90220  0.31850  Biso   1.000  C
  H138     1.0000 0.03600  0.89110  0.32980  Biso   1.000  H
  C213     1.0000 0.09180  0.96190  0.41296  Biso   1.000  C
  O49      1.0000 0.11860  0.00684  0.43525  Biso   1.000  O
  O50      1.0000 0.02976  0.93453  0.43381  Biso   1.000  O
  N52      1.0000 0.49350  0.75007  0.03182  Biso   1.000  N
  C214     1.0000 0.56100  0.72343  0.04990  Biso   1.000  C
  H139     1.0000 0.57640  0.71720  0.09150  Biso   1.000  H
  Cl13     1.0000 0.42380  0.73294  0.16317  Biso   1.000  Cl
  C215     1.0000 0.68820  0.68070  0.98020  Biso   1.000  C
  C216     1.0000 0.84780  0.63840  0.96680  Biso   1.000  C
  C217     1.0000 0.73090  0.68900  0.92450  Biso   1.000  C
  H140     1.0000 0.70570  0.70850  0.89170  Biso   1.000  H
  C218     1.0000 0.81140  0.66790  0.91840  Biso   1.000  C
  H141     1.0000 0.84140  0.67360  0.88150  Biso   1.000  H
  O51      1.0000 0.97970  0.63220  0.91100  Biso   1.000  O
  C219     1.0000 0.94120  0.62140  0.96180  Biso   1.000  C
  C220     1.0000 0.72200  0.65160  0.97080  Biso   1.000  C
  H142     1.0000 0.69160  0.64640  0.93390  Biso   1.000  H
  C221     1.0000 0.80320  0.62980  0.97760  Biso   1.000  C
  H143     1.0000 0.82760  0.60960  0.94500  Biso   1.000  H
  O52      1.0000 0.98640  0.64850  0.87520  Biso   1.000  O
  Cu14     1.0000 0.90677  0.29025  0.07925  Biso   1.000  Cu
  N53      1.0000 0.76153  0.36191  0.09180  Biso   1.000  N
  N54      1.0000 0.82340  0.33465  0.12457  Biso   1.000  N
  N55      1.0000 0.74320  0.37828  0.19080  Biso   1.000  N
  C222     1.0000 0.71360  0.38720  0.13234  Biso   1.000  C
  H144     1.0000 0.66610  0.40830  0.12250  Biso   1.000  H
  C223     1.0000 0.81170  0.34510  0.18405  Biso   1.000  C
  H145     1.0000 0.84530  0.33190  0.21670  Biso   1.000  H
  C224     1.0000 0.70680  0.39874  0.24865  Biso   1.000  C
  C225     1.0000 0.75300  0.43350  0.28655  Biso   1.000  C
  H146     1.0000 0.80820  0.44300  0.27610  Biso   1.000  H
  C226     1.0000 0.71620  0.45407  0.34044  Biso   1.000  C
  H147     1.0000 0.74630  0.47820  0.36630  Biso   1.000  H
  C227     1.0000 0.63440  0.43884  0.35612  Biso   1.000  C
  C228     1.0000 0.62620  0.38200  0.26420  Biso   1.000  C
  H148     1.0000 0.59650  0.35760  0.23850  Biso   1.000  H
  C229     1.0000 0.59030  0.40220  0.31850  Biso   1.000  C
  H149     1.0000 0.53600  0.39110  0.32980  Biso   1.000  H
  C230     1.0000 0.59180  0.46190  0.41296  Biso   1.000  C
  O53      1.0000 0.61860  0.50684  0.43525  Biso   1.000  O
  O54      1.0000 0.52976  0.43453  0.43381  Biso   1.000  O
  N56      1.0000 0.99350  0.25007  0.03182  Biso   1.000  N
  C231     1.0000 0.06100  0.22343  0.04990  Biso   1.000  C
  H150     1.0000 0.07640  0.21720  0.09150  Biso   1.000  H
  Cl14     1.0000 0.92380  0.23294  0.16317  Biso   1.000  Cl
  C232     1.0000 0.18820  0.18070  0.98020  Biso   1.000  C
  C233     1.0000 0.34780  0.13840  0.96680  Biso   1.000  C
  C234     1.0000 0.23090  0.18900  0.92450  Biso   1.000  C
  H151     1.0000 0.20570  0.20850  0.89170  Biso   1.000  H
  C235     1.0000 0.31140  0.16790  0.91840  Biso   1.000  C
  H152     1.0000 0.34140  0.17360  0.88150  Biso   1.000  H
  O55      1.0000 0.47970  0.13220  0.91100  Biso   1.000  O
  C236     1.0000 0.44120  0.12140  0.96180  Biso   1.000  C
  C237     1.0000 0.22200  0.15160  0.97080  Biso   1.000  C
  H153     1.0000 0.19160  0.14640  0.93390  Biso   1.000  H
  C238     1.0000 0.30320  0.12980  0.97760  Biso   1.000  C
  H154     1.0000 0.32760  0.10960  0.94500  Biso   1.000  H
  O56      1.0000 0.48640  0.14850  0.87520  Biso   1.000  O
  Cu15     1.0000 0.59323  0.20975  0.07925  Biso   1.000  Cu
  N57      1.0000 0.73847  0.13809  0.09180  Biso   1.000  N
  N58      1.0000 0.67660  0.16535  0.12457  Biso   1.000  N
  N59      1.0000 0.75680  0.12172  0.19080  Biso   1.000  N
  C239     1.0000 0.78640  0.11280  0.13234  Biso   1.000  C
  H155     1.0000 0.83390  0.09170  0.12250  Biso   1.000  H
  C240     1.0000 0.68830  0.15490  0.18405  Biso   1.000  C
  H156     1.0000 0.65470  0.16810  0.21670  Biso   1.000  H
  C241     1.0000 0.79320  0.10126  0.24865  Biso   1.000  C
  C242     1.0000 0.74700  0.06650  0.28655  Biso   1.000  C
  H157     1.0000 0.69180  0.05700  0.27610  Biso   1.000  H
  C243     1.0000 0.78380  0.04593  0.34044  Biso   1.000  C
  H158     1.0000 0.75370  0.02180  0.36630  Biso   1.000  H
  C244     1.0000 0.86560  0.06116  0.35612  Biso   1.000  C
  C245     1.0000 0.87380  0.11800  0.26420  Biso   1.000  C
  H159     1.0000 0.90350  0.14240  0.23850  Biso   1.000  H
  C246     1.0000 0.90970  0.09780  0.31850  Biso   1.000  C
  H160     1.0000 0.96400  0.10890  0.32980  Biso   1.000  H
  C247     1.0000 0.90820  0.03810  0.41296  Biso   1.000  C
  O57      1.0000 0.88140  0.99316  0.43525  Biso   1.000  O
  O58      1.0000 0.97024  0.06547  0.43381  Biso   1.000  O
  N60      1.0000 0.50650  0.24993  0.03182  Biso   1.000  N
  C248     1.0000 0.43900  0.27657  0.04990  Biso   1.000  C
  H161     1.0000 0.42360  0.28280  0.09150  Biso   1.000  H
  Cl15     1.0000 0.57620  0.26706  0.16317  Biso   1.000  Cl
  C249     1.0000 0.31180  0.31930  0.98020  Biso   1.000  C
  C250     1.0000 0.15220  0.36160  0.96680  Biso   1.000  C
  C251     1.0000 0.26910  0.31100  0.92450  Biso   1.000  C
  H162     1.0000 0.29430  0.29150  0.89170  Biso   1.000  H
  C252     1.0000 0.18860  0.33210  0.91840  Biso   1.000  C
  H163     1.0000 0.15860  0.32640  0.88150  Biso   1.000  H
  O59      1.0000 0.02030  0.36780  0.91100  Biso   1.000  O
  C253     1.0000 0.05880  0.37860  0.96180  Biso   1.000  C
  C254     1.0000 0.27800  0.34840  0.97080  Biso   1.000  C
  H164     1.0000 0.30840  0.35360  0.93390  Biso   1.000  H
  C255     1.0000 0.19680  0.37020  0.97760  Biso   1.000  C
  H165     1.0000 0.17240  0.39040  0.94500  Biso   1.000  H
  O60      1.0000 0.01360  0.35150  0.87520  Biso   1.000  O
  Cu16     1.0000 0.09323  0.70975  0.07925  Biso   1.000  Cu
  N61      1.0000 0.23847  0.63809  0.09180  Biso   1.000  N
  N62      1.0000 0.17660  0.66535  0.12457  Biso   1.000  N
  N63      1.0000 0.25680  0.62172  0.19080  Biso   1.000  N
  C256     1.0000 0.28640  0.61280  0.13234  Biso   1.000  C
  H166     1.0000 0.33390  0.59170  0.12250  Biso   1.000  H
  C257     1.0000 0.18830  0.65490  0.18405  Biso   1.000  C
  H167     1.0000 0.15470  0.66810  0.21670  Biso   1.000  H
  C258     1.0000 0.29320  0.60126  0.24865  Biso   1.000  C
  C259     1.0000 0.24700  0.56650  0.28655  Biso   1.000  C
  H168     1.0000 0.19180  0.55700  0.27610  Biso   1.000  H
  C260     1.0000 0.28380  0.54593  0.34044  Biso   1.000  C
  H169     1.0000 0.25370  0.52180  0.36630  Biso   1.000  H
  C261     1.0000 0.36560  0.56116  0.35612  Biso   1.000  C
  C262     1.0000 0.37380  0.61800  0.26420  Biso   1.000  C
  H170     1.0000 0.40350  0.64240  0.23850  Biso   1.000  H
  C263     1.0000 0.40970  0.59780  0.31850  Biso   1.000  C
  H171     1.0000 0.46400  0.60890  0.32980  Biso   1.000  H
  C264     1.0000 0.40820  0.53810  0.41296  Biso   1.000  C
  O61      1.0000 0.38140  0.49316  0.43525  Biso   1.000  O
  O62      1.0000 0.47024  0.56547  0.43381  Biso   1.000  O
  N64      1.0000 0.00650  0.74993  0.03182  Biso   1.000  N
  C265     1.0000 0.93900  0.77657  0.04990  Biso   1.000  C
  H172     1.0000 0.92360  0.78280  0.09150  Biso   1.000  H
  Cl16     1.0000 0.07620  0.76706  0.16317  Biso   1.000  Cl
  C266     1.0000 0.81180  0.81930  0.98020  Biso   1.000  C
  C267     1.0000 0.65220  0.86160  0.96680  Biso   1.000  C
  C268     1.0000 0.76910  0.81100  0.92450  Biso   1.000  C
  H173     1.0000 0.79430  0.79150  0.89170  Biso   1.000  H
  C269     1.0000 0.68860  0.83210  0.91840  Biso   1.000  C
  H174     1.0000 0.65860  0.82640  0.88150  Biso   1.000  H
  O63      1.0000 0.52030  0.86780  0.91100  Biso   1.000  O
  C270     1.0000 0.55880  0.87860  0.96180  Biso   1.000  C
  C271     1.0000 0.77800  0.84840  0.97080  Biso   1.000  C
  H175     1.0000 0.80840  0.85360  0.93390  Biso   1.000  H
  C272     1.0000 0.69680  0.87020  0.97760  Biso   1.000  C
  H176     1.0000 0.67240  0.89040  0.94500  Biso   1.000  H
  O64      1.0000 0.51360  0.85150  0.87520  Biso   1.000  O
  Cu17     1.0000 0.05001  0.04399  0.50000  Biso   1.000  Cu
  Cu18     1.0000 0.25872  0.14218  0.50000  Biso   1.000  Cu
  Cl17     1.0000 0.11491  0.13375  0.50000  Biso   1.000  Cl
  O65      1.0000 0.38220  0.16586  0.50000  Biso   1.000  O
  N65      1.0000 0.60490  0.29360  0.50000  Biso   1.000  N
  O66      1.0000 0.97510  0.40120  0.50000  Biso   1.000  O
  H177     1.0000 0.41500  0.13800  0.50000  Biso   1.000  H
  Cu19     1.0000 0.55001  0.54399  0.50000  Biso   1.000  Cu
  Cu20     1.0000 0.75872  0.64218  0.50000  Biso   1.000  Cu
  Cl18     1.0000 0.61491  0.63375  0.50000  Biso   1.000  Cl
  O67      1.0000 0.88220  0.66586  0.50000  Biso   1.000  O
  N66      1.0000 0.10490  0.79360  0.50000  Biso   1.000  N
  O68      1.0000 0.47510  0.90120  0.50000  Biso   1.000  O
  H178     1.0000 0.91500  0.63800  0.50000  Biso   1.000  H
  Cu21     1.0000 0.94999  0.95601  0.50000  Biso   1.000  Cu
  Cu22     1.0000 0.74128  0.85782  0.50000  Biso   1.000  Cu
  Cl19     1.0000 0.88509  0.86625  0.50000  Biso   1.000  Cl
  O69      1.0000 0.61780  0.83414  0.50000  Biso   1.000  O
  N67      1.0000 0.39510  0.70640  0.50000  Biso   1.000  N
  O70      1.0000 0.02490  0.59880  0.50000  Biso   1.000  O
  H179     1.0000 0.58500  0.86200  0.50000  Biso   1.000  H
  Cu23     1.0000 0.44999  0.45601  0.50000  Biso   1.000  Cu
  Cu24     1.0000 0.24128  0.35782  0.50000  Biso   1.000  Cu
  Cl20     1.0000 0.38509  0.36625  0.50000  Biso   1.000  Cl
  O71      1.0000 0.11780  0.33414  0.50000  Biso   1.000  O
  N68      1.0000 0.89510  0.20640  0.50000  Biso   1.000  N
  O72      1.0000 0.52490  0.09880  0.50000  Biso   1.000  O
  H180     1.0000 0.08500  0.36200  0.50000  Biso   1.000  H
  Cu25     1.0000 0.94999  0.04399  0.00000  Biso   1.000  Cu
  Cu26     1.0000 0.74128  0.14218  0.00000  Biso   1.000  Cu
  Cl21     1.0000 0.88509  0.13375  0.00000  Biso   1.000  Cl
  O73      1.0000 0.61780  0.16586  0.00000  Biso   1.000  O
  N69      1.0000 0.39510  0.29360  0.00000  Biso   1.000  N
  O74      1.0000 0.02490  0.40120  0.00000  Biso   1.000  O
  H181     1.0000 0.58500  0.13800  0.00000  Biso   1.000  H
  Cu27     1.0000 0.44999  0.54399  0.00000  Biso   1.000  Cu
  Cu28     1.0000 0.24128  0.64218  0.00000  Biso   1.000  Cu
  Cl22     1.0000 0.38509  0.63375  0.00000  Biso   1.000  Cl
  O75      1.0000 0.11780  0.66586  0.00000  Biso   1.000  O
  N70      1.0000 0.89510  0.79360  0.00000  Biso   1.000  N
  O76      1.0000 0.52490  0.90120  0.00000  Biso   1.000  O
  H182     1.0000 0.08500  0.63800  0.00000  Biso   1.000  H
  Cu29     1.0000 0.05001  0.95601  0.00000  Biso   1.000  Cu
  Cu30     1.0000 0.25872  0.85782  0.00000  Biso   1.000  Cu
  Cl23     1.0000 0.11491  0.86625  0.00000  Biso   1.000  Cl
  O77      1.0000 0.38220  0.83414  0.00000  Biso   1.000  O
  N71      1.0000 0.60490  0.70640  0.00000  Biso   1.000  N
  O78      1.0000 0.97510  0.59880  0.00000  Biso   1.000  O
  H183     1.0000 0.41500  0.86200  0.00000  Biso   1.000  H
  Cu31     1.0000 0.55001  0.45601  0.00000  Biso   1.000  Cu
  Cu32     1.0000 0.75872  0.35782  0.00000  Biso   1.000  Cu
  Cl24     1.0000 0.61491  0.36625  0.00000  Biso   1.000  Cl
  O79      1.0000 0.88220  0.33414  0.00000  Biso   1.000  O
  N72      1.0000 0.10490  0.20640  0.00000  Biso   1.000  N
  O80      1.0000 0.47510  0.09880  0.00000  Biso   1.000  O
  H184     1.0000 0.91500  0.36200  0.00000  Biso   1.000  H
  Cl25     1.0000 0.25000  0.25000  0.50000  Biso   1.000  Cl
  Cl26     1.0000 0.75000  0.75000  0.50000  Biso   1.000  Cl
  Cl27     1.0000 0.75000  0.25000  0.00000  Biso   1.000  Cl
  Cl28     1.0000 0.25000  0.75000  0.00000  Biso   1.000  Cl
