data_image0
_cell_length_a       29.555
_cell_length_b       28.856
_cell_length_c       17.719
_cell_angle_alpha    90
_cell_angle_beta     90
_cell_angle_gamma    90

_symmetry_space_group_name_H-M    "P 1"
_symmetry_int_tables_number       1

loop_
  _symmetry_equiv_pos_as_xyz
  'x, y, z'

loop_
  _atom_site_label
  _atom_site_occupancy
  _atom_site_fract_x
  _atom_site_fract_y
  _atom_site_fract_z
  _atom_site_thermal_displace_type
  _atom_site_B_iso_or_equiv
  _atom_site_type_symbol
  Zn1      1.0000 0.83755  0.75680  0.95392  Biso   1.000  Zn
  O1       1.0000 0.82912  0.75689  0.83680  Biso   1.000  O
  C1       1.0000 0.89490  0.67190  0.91220  Biso   1.000  C
  Zn2      1.0000 0.81599  0.82151  0.81071  Biso   1.000  Zn
  O2       1.0000 0.83840  0.75030  0.07400  Biso   1.000  O
  C2       1.0000 0.91130  0.62940  0.95350  Biso   1.000  C
  Zn3      1.0000 0.87561  0.72392  0.77922  Biso   1.000  Zn
  N1       1.0000 0.96100  0.74430  0.30900  Biso   1.000  N
  C3       1.0000 0.91840  0.58780  0.91380  Biso   1.000  C
  H1       1.0000 0.91370  0.58670  0.86080  Biso   1.000  H
  C4       1.0000 0.93210  0.54840  0.95210  Biso   1.000  C
  Zn4      1.0000 0.93798  0.43988  0.79534  Biso   1.000  Zn
  C5       1.0000 0.94010  0.50370  0.91100  Biso   1.000  C
  Zn5      1.0000 0.96421  0.86499  0.28738  Biso   1.000  Zn
  C6       1.0000 0.93820  0.55030  0.02930  Biso   1.000  C
  H2       1.0000 0.94810  0.52330  0.05510  Biso   1.000  H
  Zn6      1.0000 0.94304  0.92624  0.31588  Biso   1.000  Zn
  C7       1.0000 0.93030  0.59090  0.07090  Biso   1.000  C
  C8       1.0000 0.93380  0.59200  0.15480  Biso   1.000  C
  C9       1.0000 0.91720  0.63050  0.03080  Biso   1.000  C
  H3       1.0000 0.91210  0.65870  0.05740  Biso   1.000  H
  O3       1.0000 0.88884  0.70699  0.95000  Biso   1.000  O
  C10      1.0000 0.87930  0.85170  0.92210  Biso   1.000  C
  O4       1.0000 0.88780  0.66803  0.84150  Biso   1.000  O
  C11      1.0000 0.90140  0.88920  0.96500  Biso   1.000  C
  O5       1.0000 0.93238  0.50228  0.84070  Biso   1.000  O
  C12      1.0000 0.91340  0.88100  0.03980  Biso   1.000  C
  H4       1.0000 0.90910  0.85120  0.06140  Biso   1.000  H
  O6       1.0000 0.95181  0.46939  0.95000  Biso   1.000  O
  C13      1.0000 0.93200  0.91730  0.08310  Biso   1.000  C
  O7       1.0000 0.93150  0.55281  0.18710  Biso   1.000  O
  C14      1.0000 0.94290  0.90920  0.16520  Biso   1.000  C
  O8       1.0000 0.93880  0.62869  0.18750  Biso   1.000  O
  C15      1.0000 0.93840  0.96080  0.05060  Biso   1.000  C
  H5       1.0000 0.95040  0.98550  0.07990  Biso   1.000  H
  O9       1.0000 0.88268  0.81115  0.94690  Biso   1.000  O
  C16      1.0000 0.92740  0.96810  0.97610  Biso   1.000  C
  O10      1.0000 0.85645  0.86374  0.86370  Biso   1.000  O
  C17      1.0000 0.93870  0.01390  0.93870  Biso   1.000  C
  O11      1.0000 0.94590  0.87058  0.19140  Biso   1.000  O
  C18      1.0000 0.90930  0.93310  0.93260  Biso   1.000  C
  H6       1.0000 0.90220  0.93850  0.88110  Biso   1.000  H
  O12      1.0000 0.93230  0.94430  0.21130  Biso   1.000  O
  C19      1.0000 0.75110  0.70370  0.92890  Biso   1.000  C
  O13      1.0000 0.95240  0.04599  0.98150  Biso   1.000  O
  C20      1.0000 0.70870  0.68810  0.96760  Biso   1.000  C
  O14      1.0000 0.93460  0.01674  0.86930  Biso   1.000  O
  C21      1.0000 0.67070  0.67550  0.92670  Biso   1.000  C
  H7       1.0000 0.67180  0.67590  0.87310  Biso   1.000  H
  O15      1.0000 0.78588  0.70871  0.96930  Biso   1.000  O
  C22      1.0000 0.63050  0.66200  0.96320  Biso   1.000  C
  O16      1.0000 0.74949  0.71170  0.86020  Biso   1.000  O
  C23      1.0000 0.59050  0.64590  0.91930  Biso   1.000  C
  O17      1.0000 0.90750  0.85520  0.35030  Biso   1.000  O
  C24      1.0000 0.62810  0.66350  0.04120  Biso   1.000  C
  H8       1.0000 0.60050  0.65690  0.06630  Biso   1.000  H
  O18      1.0000 0.94702  0.85265  0.45150  Biso   1.000  O
  C25      1.0000 0.66720  0.67500  0.08310  Biso   1.000  C
  O19      1.0000 0.62700  0.68580  0.19920  Biso   1.000  O
  C26      1.0000 0.66310  0.67570  0.16770  Biso   1.000  C
  O20      1.0000 0.80103  0.83194  0.70500  Biso   1.000  O
  C27      1.0000 0.70680  0.68700  0.04740  Biso   1.000  C
  H9       1.0000 0.73290  0.69450  0.07630  Biso   1.000  H
  O21      1.0000 0.78457  0.80793  0.96850  Biso   1.000  O
  C28      1.0000 0.75240  0.82280  0.92730  Biso   1.000  C
  O22      1.0000 0.75588  0.83272  0.85900  Biso   1.000  O
  C29      1.0000 0.70730  0.82890  0.96280  Biso   1.000  C
  O23      1.0000 0.89808  0.39873  0.85430  Biso   1.000  O
  C30      1.0000 0.67250  0.84940  0.92260  Biso   1.000  C
  H10      1.0000 0.67780  0.86060  0.87290  Biso   1.000  H
  O24      1.0000 0.05246  0.36942  0.93780  Biso   1.000  O
  C31      1.0000 0.62950  0.85370  0.95490  Biso   1.000  C
  O25      1.0000 0.88970  0.69610  0.67580  Biso   1.000  O
  C32      1.0000 0.90880  0.37570  0.91200  Biso   1.000  C
  O26      1.0000 0.81910  0.71230  0.68720  Biso   1.000  O
  C33      1.0000 0.62190  0.83790  0.02860  Biso   1.000  C
  H11      1.0000 0.59250  0.84050  0.05010  Biso   1.000  H
  C34      1.0000 0.65660  0.81860  0.07030  Biso   1.000  C
  C35      1.0000 0.70010  0.81330  0.03590  Biso   1.000  C
  H12      1.0000 0.72410  0.79910  0.06310  Biso   1.000  H
  C36      1.0000 0.85190  0.69700  0.64900  Biso   1.000  C
  C37      1.0000 0.97620  0.78910  0.29590  Biso   1.000  C
  C38      1.0000 0.91700  0.72940  0.30930  Biso   1.000  C
  N2       1.0000 0.82100  0.69720  0.16880  Biso   1.000  N
  C39      1.0000 0.83740  0.70930  0.09700  Biso   1.000  C
  C40      1.0000 0.80210  0.72530  0.21750  Biso   1.000  C
  H13      1.0000 0.79380  0.70790  0.26300  Biso   1.000  H
  H14      1.0000 0.77490  0.73900  0.19510  Biso   1.000  H
  H15      1.0000 0.82350  0.74990  0.23090  Biso   1.000  H
  C41      1.0000 0.81710  0.64750  0.18870  Biso   1.000  C
  H16      1.0000 0.83210  0.62870  0.15000  Biso   1.000  H
  H17      1.0000 0.78500  0.63890  0.19150  Biso   1.000  H
  H18      1.0000 0.83150  0.64200  0.23770  Biso   1.000  H
  O27      1.0000 0.89910  0.88130  0.35740  Biso   1.000  O
  H19      1.0000 0.10330  0.75620  0.30930  Biso   1.000  H
  H20      1.0000 0.08870  0.71050  0.26430  Biso   1.000  H
  H21      1.0000 0.08850  0.71070  0.35460  Biso   1.000  H
  N3       1.0000 0.84790  0.73200  0.18380  Biso   1.000  N
  O28      1.0000 0.85120  0.76530  0.06750  Biso   1.000  O
  O29      1.0000 0.95800  0.94180  0.19960  Biso   1.000  O
  C42      1.0000 0.83150  0.74380  0.11690  Biso   1.000  C
  C43      1.0000 0.89430  0.74660  0.20340  Biso   1.000  C
  H22      1.0000 0.90250  0.73410  0.25300  Biso   1.000  H
  H23      1.0000 0.89580  0.78050  0.20490  Biso   1.000  H
  H24      1.0000 0.91550  0.73490  0.16540  Biso   1.000  H
  C44      1.0000 0.82520  0.70440  0.24020  Biso   1.000  C
  H25      1.0000 0.84550  0.69920  0.28300  Biso   1.000  H
  H26      1.0000 0.81650  0.67450  0.21820  Biso   1.000  H
  H27      1.0000 0.79800  0.72070  0.25750  Biso   1.000  H
  Zn7      1.0000 0.33755  0.25680  0.95392  Biso   1.000  Zn
  O30      1.0000 0.32912  0.25689  0.83680  Biso   1.000  O
  C45      1.0000 0.39490  0.17190  0.91220  Biso   1.000  C
  Zn8      1.0000 0.31599  0.32151  0.81071  Biso   1.000  Zn
  O31      1.0000 0.33840  0.25030  0.07400  Biso   1.000  O
  C46      1.0000 0.41130  0.12940  0.95350  Biso   1.000  C
  Zn9      1.0000 0.37561  0.22392  0.77922  Biso   1.000  Zn
  N4       1.0000 0.46100  0.24430  0.30900  Biso   1.000  N
  C47      1.0000 0.41840  0.08780  0.91380  Biso   1.000  C
  H28      1.0000 0.41370  0.08670  0.86080  Biso   1.000  H
  C48      1.0000 0.43210  0.04840  0.95210  Biso   1.000  C
  Zn10     1.0000 0.43798  0.93988  0.79534  Biso   1.000  Zn
  C49      1.0000 0.44010  0.00370  0.91100  Biso   1.000  C
  Zn11     1.0000 0.46421  0.36499  0.28738  Biso   1.000  Zn
  C50      1.0000 0.43820  0.05030  0.02930  Biso   1.000  C
  H29      1.0000 0.44810  0.02330  0.05510  Biso   1.000  H
  Zn12     1.0000 0.44304  0.42624  0.31588  Biso   1.000  Zn
  C51      1.0000 0.43030  0.09090  0.07090  Biso   1.000  C
  C52      1.0000 0.43380  0.09200  0.15480  Biso   1.000  C
  C53      1.0000 0.41720  0.13050  0.03080  Biso   1.000  C
  H30      1.0000 0.41210  0.15870  0.05740  Biso   1.000  H
  O32      1.0000 0.38884  0.20699  0.95000  Biso   1.000  O
  C54      1.0000 0.37930  0.35170  0.92210  Biso   1.000  C
  O33      1.0000 0.38780  0.16803  0.84150  Biso   1.000  O
  C55      1.0000 0.40140  0.38920  0.96500  Biso   1.000  C
  O34      1.0000 0.43238  0.00228  0.84070  Biso   1.000  O
  C56      1.0000 0.41340  0.38100  0.03980  Biso   1.000  C
  H31      1.0000 0.40910  0.35120  0.06140  Biso   1.000  H
  O35      1.0000 0.45181  0.96939  0.95000  Biso   1.000  O
  C57      1.0000 0.43200  0.41730  0.08310  Biso   1.000  C
  O36      1.0000 0.43150  0.05281  0.18710  Biso   1.000  O
  C58      1.0000 0.44290  0.40920  0.16520  Biso   1.000  C
  O37      1.0000 0.43880  0.12869  0.18750  Biso   1.000  O
  C59      1.0000 0.43840  0.46080  0.05060  Biso   1.000  C
  H32      1.0000 0.45040  0.48550  0.07990  Biso   1.000  H
  O38      1.0000 0.38268  0.31115  0.94690  Biso   1.000  O
  C60      1.0000 0.42740  0.46810  0.97610  Biso   1.000  C
  O39      1.0000 0.35645  0.36374  0.86370  Biso   1.000  O
  C61      1.0000 0.43870  0.51390  0.93870  Biso   1.000  C
  O40      1.0000 0.44590  0.37058  0.19140  Biso   1.000  O
  C62      1.0000 0.40930  0.43310  0.93260  Biso   1.000  C
  H33      1.0000 0.40220  0.43850  0.88110  Biso   1.000  H
  O41      1.0000 0.43230  0.44430  0.21130  Biso   1.000  O
  C63      1.0000 0.25110  0.20370  0.92890  Biso   1.000  C
  O42      1.0000 0.45240  0.54599  0.98150  Biso   1.000  O
  C64      1.0000 0.20870  0.18810  0.96760  Biso   1.000  C
  O43      1.0000 0.43460  0.51674  0.86930  Biso   1.000  O
  C65      1.0000 0.17070  0.17550  0.92670  Biso   1.000  C
  H34      1.0000 0.17180  0.17590  0.87310  Biso   1.000  H
  O44      1.0000 0.28588  0.20871  0.96930  Biso   1.000  O
  C66      1.0000 0.13050  0.16200  0.96320  Biso   1.000  C
  O45      1.0000 0.24949  0.21170  0.86020  Biso   1.000  O
  C67      1.0000 0.09050  0.14590  0.91930  Biso   1.000  C
  O46      1.0000 0.40750  0.35520  0.35030  Biso   1.000  O
  C68      1.0000 0.12810  0.16350  0.04120  Biso   1.000  C
  H35      1.0000 0.10050  0.15690  0.06630  Biso   1.000  H
  O47      1.0000 0.44702  0.35265  0.45150  Biso   1.000  O
  C69      1.0000 0.16720  0.17500  0.08310  Biso   1.000  C
  O48      1.0000 0.12700  0.18580  0.19920  Biso   1.000  O
  C70      1.0000 0.16310  0.17570  0.16770  Biso   1.000  C
  O49      1.0000 0.30103  0.33194  0.70500  Biso   1.000  O
  C71      1.0000 0.20680  0.18700  0.04740  Biso   1.000  C
  H36      1.0000 0.23290  0.19450  0.07630  Biso   1.000  H
  O50      1.0000 0.28457  0.30793  0.96850  Biso   1.000  O
  C72      1.0000 0.25240  0.32280  0.92730  Biso   1.000  C
  O51      1.0000 0.25588  0.33272  0.85900  Biso   1.000  O
  C73      1.0000 0.20730  0.32890  0.96280  Biso   1.000  C
  O52      1.0000 0.39808  0.89873  0.85430  Biso   1.000  O
  C74      1.0000 0.17250  0.34940  0.92260  Biso   1.000  C
  H37      1.0000 0.17780  0.36060  0.87290  Biso   1.000  H
  O53      1.0000 0.55246  0.86942  0.93780  Biso   1.000  O
  C75      1.0000 0.12950  0.35370  0.95490  Biso   1.000  C
  O54      1.0000 0.38970  0.19610  0.67580  Biso   1.000  O
  C76      1.0000 0.40880  0.87570  0.91200  Biso   1.000  C
  O55      1.0000 0.31910  0.21230  0.68720  Biso   1.000  O
  C77      1.0000 0.12190  0.33790  0.02860  Biso   1.000  C
  H38      1.0000 0.09250  0.34050  0.05010  Biso   1.000  H
  C78      1.0000 0.15660  0.31860  0.07030  Biso   1.000  C
  C79      1.0000 0.20010  0.31330  0.03590  Biso   1.000  C
  H39      1.0000 0.22410  0.29910  0.06310  Biso   1.000  H
  C80      1.0000 0.35190  0.19700  0.64900  Biso   1.000  C
  C81      1.0000 0.47620  0.28910  0.29590  Biso   1.000  C
  C82      1.0000 0.41700  0.22940  0.30930  Biso   1.000  C
  N5       1.0000 0.32100  0.19720  0.16880  Biso   1.000  N
  C83      1.0000 0.33740  0.20930  0.09700  Biso   1.000  C
  C84      1.0000 0.30210  0.22530  0.21750  Biso   1.000  C
  H40      1.0000 0.29380  0.20790  0.26300  Biso   1.000  H
  H41      1.0000 0.27490  0.23900  0.19510  Biso   1.000  H
  H42      1.0000 0.32350  0.24990  0.23090  Biso   1.000  H
  C85      1.0000 0.31710  0.14750  0.18870  Biso   1.000  C
  H43      1.0000 0.33210  0.12870  0.15000  Biso   1.000  H
  H44      1.0000 0.28500  0.13890  0.19150  Biso   1.000  H
  H45      1.0000 0.33150  0.14200  0.23770  Biso   1.000  H
  O56      1.0000 0.39910  0.38130  0.35740  Biso   1.000  O
  H46      1.0000 0.60330  0.25620  0.30930  Biso   1.000  H
  H47      1.0000 0.58870  0.21050  0.26430  Biso   1.000  H
  H48      1.0000 0.58850  0.21070  0.35460  Biso   1.000  H
  N6       1.0000 0.34790  0.23200  0.18380  Biso   1.000  N
  O57      1.0000 0.35120  0.26530  0.06750  Biso   1.000  O
  O58      1.0000 0.45800  0.44180  0.19960  Biso   1.000  O
  C86      1.0000 0.33150  0.24380  0.11690  Biso   1.000  C
  C87      1.0000 0.39430  0.24660  0.20340  Biso   1.000  C
  H49      1.0000 0.40250  0.23410  0.25300  Biso   1.000  H
  H50      1.0000 0.39580  0.28050  0.20490  Biso   1.000  H
  H51      1.0000 0.41550  0.23490  0.16540  Biso   1.000  H
  C88      1.0000 0.32520  0.20440  0.24020  Biso   1.000  C
  H52      1.0000 0.34550  0.19920  0.28300  Biso   1.000  H
  H53      1.0000 0.31650  0.17450  0.21820  Biso   1.000  H
  H54      1.0000 0.29800  0.22070  0.25750  Biso   1.000  H
  Zn13     1.0000 0.16245  0.24320  0.45392  Biso   1.000  Zn
  O59      1.0000 0.17088  0.24311  0.33680  Biso   1.000  O
  C89      1.0000 0.10510  0.32810  0.41220  Biso   1.000  C
  Zn14     1.0000 0.18401  0.17849  0.31071  Biso   1.000  Zn
  O60      1.0000 0.16160  0.24970  0.57400  Biso   1.000  O
  C90      1.0000 0.08870  0.37060  0.45350  Biso   1.000  C
  Zn15     1.0000 0.12439  0.27608  0.27922  Biso   1.000  Zn
  N7       1.0000 0.03900  0.25570  0.80900  Biso   1.000  N
  C91      1.0000 0.08160  0.41220  0.41380  Biso   1.000  C
  H55      1.0000 0.08630  0.41330  0.36080  Biso   1.000  H
  C92      1.0000 0.06790  0.45160  0.45210  Biso   1.000  C
  Zn16     1.0000 0.06202  0.56012  0.29534  Biso   1.000  Zn
  C93      1.0000 0.05990  0.49630  0.41100  Biso   1.000  C
  Zn17     1.0000 0.03579  0.13501  0.78738  Biso   1.000  Zn
  C94      1.0000 0.06180  0.44970  0.52930  Biso   1.000  C
  H56      1.0000 0.05190  0.47670  0.55510  Biso   1.000  H
  Zn18     1.0000 0.05696  0.07376  0.81588  Biso   1.000  Zn
  C95      1.0000 0.06970  0.40910  0.57090  Biso   1.000  C
  C96      1.0000 0.06620  0.40800  0.65480  Biso   1.000  C
  C97      1.0000 0.08280  0.36950  0.53080  Biso   1.000  C
  H57      1.0000 0.08790  0.34130  0.55740  Biso   1.000  H
  O61      1.0000 0.11116  0.29301  0.45000  Biso   1.000  O
  C98      1.0000 0.12070  0.14830  0.42210  Biso   1.000  C
  O62      1.0000 0.11220  0.33197  0.34150  Biso   1.000  O
  C99      1.0000 0.09860  0.11080  0.46500  Biso   1.000  C
  O63      1.0000 0.06762  0.49772  0.34070  Biso   1.000  O
  C100     1.0000 0.08660  0.11900  0.53980  Biso   1.000  C
  H58      1.0000 0.09090  0.14880  0.56140  Biso   1.000  H
  O64      1.0000 0.04819  0.53061  0.45000  Biso   1.000  O
  C101     1.0000 0.06800  0.08270  0.58310  Biso   1.000  C
  O65      1.0000 0.06850  0.44719  0.68710  Biso   1.000  O
  C102     1.0000 0.05710  0.09080  0.66520  Biso   1.000  C
  O66      1.0000 0.06120  0.37131  0.68750  Biso   1.000  O
  C103     1.0000 0.06160  0.03920  0.55060  Biso   1.000  C
  H59      1.0000 0.04960  0.01450  0.57990  Biso   1.000  H
  O67      1.0000 0.11732  0.18885  0.44690  Biso   1.000  O
  C104     1.0000 0.07260  0.03190  0.47610  Biso   1.000  C
  O68      1.0000 0.14355  0.13626  0.36370  Biso   1.000  O
  C105     1.0000 0.06130  0.98610  0.43870  Biso   1.000  C
  O69      1.0000 0.05410  0.12942  0.69140  Biso   1.000  O
  C106     1.0000 0.09070  0.06690  0.43260  Biso   1.000  C
  H60      1.0000 0.09780  0.06150  0.38110  Biso   1.000  H
  O70      1.0000 0.06770  0.05570  0.71130  Biso   1.000  O
  C107     1.0000 0.24890  0.29630  0.42890  Biso   1.000  C
  O71      1.0000 0.04760  0.95401  0.48150  Biso   1.000  O
  C108     1.0000 0.29130  0.31190  0.46760  Biso   1.000  C
  O72      1.0000 0.06540  0.98326  0.36930  Biso   1.000  O
  C109     1.0000 0.32930  0.32450  0.42670  Biso   1.000  C
  H61      1.0000 0.32820  0.32410  0.37310  Biso   1.000  H
  O73      1.0000 0.21412  0.29129  0.46930  Biso   1.000  O
  C110     1.0000 0.36950  0.33800  0.46320  Biso   1.000  C
  O74      1.0000 0.25051  0.28830  0.36020  Biso   1.000  O
  C111     1.0000 0.40950  0.35410  0.41930  Biso   1.000  C
  O75      1.0000 0.09250  0.14480  0.85030  Biso   1.000  O
  C112     1.0000 0.37190  0.33650  0.54120  Biso   1.000  C
  H62      1.0000 0.39950  0.34310  0.56630  Biso   1.000  H
  O76      1.0000 0.05298  0.14735  0.95150  Biso   1.000  O
  C113     1.0000 0.33280  0.32500  0.58310  Biso   1.000  C
  O77      1.0000 0.37300  0.31420  0.69920  Biso   1.000  O
  C114     1.0000 0.33690  0.32430  0.66770  Biso   1.000  C
  O78      1.0000 0.19897  0.16806  0.20500  Biso   1.000  O
  C115     1.0000 0.29320  0.31300  0.54740  Biso   1.000  C
  H63      1.0000 0.26710  0.30550  0.57630  Biso   1.000  H
  O79      1.0000 0.21543  0.19207  0.46850  Biso   1.000  O
  C116     1.0000 0.24760  0.17720  0.42730  Biso   1.000  C
  O80      1.0000 0.24412  0.16728  0.35900  Biso   1.000  O
  C117     1.0000 0.29270  0.17110  0.46280  Biso   1.000  C
  O81      1.0000 0.10192  0.60127  0.35430  Biso   1.000  O
  C118     1.0000 0.32750  0.15060  0.42260  Biso   1.000  C
  H64      1.0000 0.32220  0.13940  0.37290  Biso   1.000  H
  O82      1.0000 0.94754  0.63058  0.43780  Biso   1.000  O
  C119     1.0000 0.37050  0.14630  0.45490  Biso   1.000  C
  O83      1.0000 0.11030  0.30390  0.17580  Biso   1.000  O
  C120     1.0000 0.09120  0.62430  0.41200  Biso   1.000  C
  O84      1.0000 0.18090  0.28770  0.18720  Biso   1.000  O
  C121     1.0000 0.37810  0.16210  0.52860  Biso   1.000  C
  H65      1.0000 0.40750  0.15950  0.55010  Biso   1.000  H
  C122     1.0000 0.34340  0.18140  0.57030  Biso   1.000  C
  C123     1.0000 0.29990  0.18670  0.53590  Biso   1.000  C
  H66      1.0000 0.27590  0.20090  0.56310  Biso   1.000  H
  C124     1.0000 0.14810  0.30300  0.14900  Biso   1.000  C
  C125     1.0000 0.02380  0.21090  0.79590  Biso   1.000  C
  C126     1.0000 0.08300  0.27060  0.80930  Biso   1.000  C
  N8       1.0000 0.17900  0.30280  0.66880  Biso   1.000  N
  C127     1.0000 0.16260  0.29070  0.59700  Biso   1.000  C
  C128     1.0000 0.19790  0.27470  0.71750  Biso   1.000  C
  H67      1.0000 0.20620  0.29210  0.76300  Biso   1.000  H
  H68      1.0000 0.22510  0.26100  0.69510  Biso   1.000  H
  H69      1.0000 0.17650  0.25010  0.73090  Biso   1.000  H
  C129     1.0000 0.18290  0.35250  0.68870  Biso   1.000  C
  H70      1.0000 0.16790  0.37130  0.65000  Biso   1.000  H
  H71      1.0000 0.21500  0.36110  0.69150  Biso   1.000  H
  H72      1.0000 0.16850  0.35800  0.73770  Biso   1.000  H
  O85      1.0000 0.10090  0.11870  0.85740  Biso   1.000  O
  H73      1.0000 0.89670  0.24380  0.80930  Biso   1.000  H
  H74      1.0000 0.91130  0.28950  0.76430  Biso   1.000  H
  H75      1.0000 0.91150  0.28930  0.85460  Biso   1.000  H
  N9       1.0000 0.15210  0.26800  0.68380  Biso   1.000  N
  O86      1.0000 0.14880  0.23470  0.56750  Biso   1.000  O
  O87      1.0000 0.04200  0.05820  0.69960  Biso   1.000  O
  C130     1.0000 0.16850  0.25620  0.61690  Biso   1.000  C
  C131     1.0000 0.10570  0.25340  0.70340  Biso   1.000  C
  H76      1.0000 0.09750  0.26590  0.75300  Biso   1.000  H
  H77      1.0000 0.10420  0.21950  0.70490  Biso   1.000  H
  H78      1.0000 0.08450  0.26510  0.66540  Biso   1.000  H
  C132     1.0000 0.17480  0.29560  0.74020  Biso   1.000  C
  H79      1.0000 0.15450  0.30080  0.78300  Biso   1.000  H
  H80      1.0000 0.18350  0.32550  0.71820  Biso   1.000  H
  H81      1.0000 0.20200  0.27930  0.75750  Biso   1.000  H
  Zn19     1.0000 0.66245  0.74320  0.45392  Biso   1.000  Zn
  O88      1.0000 0.67088  0.74311  0.33680  Biso   1.000  O
  C133     1.0000 0.60510  0.82810  0.41220  Biso   1.000  C
  Zn20     1.0000 0.68401  0.67849  0.31071  Biso   1.000  Zn
  O89      1.0000 0.66160  0.74970  0.57400  Biso   1.000  O
  C134     1.0000 0.58870  0.87060  0.45350  Biso   1.000  C
  Zn21     1.0000 0.62439  0.77608  0.27922  Biso   1.000  Zn
  N10      1.0000 0.53900  0.75570  0.80900  Biso   1.000  N
  C135     1.0000 0.58160  0.91220  0.41380  Biso   1.000  C
  H82      1.0000 0.58630  0.91330  0.36080  Biso   1.000  H
  C136     1.0000 0.56790  0.95160  0.45210  Biso   1.000  C
  Zn22     1.0000 0.56202  0.06012  0.29534  Biso   1.000  Zn
  C137     1.0000 0.55990  0.99630  0.41100  Biso   1.000  C
  Zn23     1.0000 0.53579  0.63501  0.78738  Biso   1.000  Zn
  C138     1.0000 0.56180  0.94970  0.52930  Biso   1.000  C
  H83      1.0000 0.55190  0.97670  0.55510  Biso   1.000  H
  Zn24     1.0000 0.55696  0.57376  0.81588  Biso   1.000  Zn
  C139     1.0000 0.56970  0.90910  0.57090  Biso   1.000  C
  C140     1.0000 0.56620  0.90800  0.65480  Biso   1.000  C
  C141     1.0000 0.58280  0.86950  0.53080  Biso   1.000  C
  H84      1.0000 0.58790  0.84130  0.55740  Biso   1.000  H
  O90      1.0000 0.61116  0.79301  0.45000  Biso   1.000  O
  C142     1.0000 0.62070  0.64830  0.42210  Biso   1.000  C
  O91      1.0000 0.61220  0.83197  0.34150  Biso   1.000  O
  C143     1.0000 0.59860  0.61080  0.46500  Biso   1.000  C
  O92      1.0000 0.56762  0.99772  0.34070  Biso   1.000  O
  C144     1.0000 0.58660  0.61900  0.53980  Biso   1.000  C
  H85      1.0000 0.59090  0.64880  0.56140  Biso   1.000  H
  O93      1.0000 0.54819  0.03061  0.45000  Biso   1.000  O
  C145     1.0000 0.56800  0.58270  0.58310  Biso   1.000  C
  O94      1.0000 0.56850  0.94719  0.68710  Biso   1.000  O
  C146     1.0000 0.55710  0.59080  0.66520  Biso   1.000  C
  O95      1.0000 0.56120  0.87131  0.68750  Biso   1.000  O
  C147     1.0000 0.56160  0.53920  0.55060  Biso   1.000  C
  H86      1.0000 0.54960  0.51450  0.57990  Biso   1.000  H
  O96      1.0000 0.61732  0.68885  0.44690  Biso   1.000  O
  C148     1.0000 0.57260  0.53190  0.47610  Biso   1.000  C
  O97      1.0000 0.64355  0.63626  0.36370  Biso   1.000  O
  C149     1.0000 0.56130  0.48610  0.43870  Biso   1.000  C
  O98      1.0000 0.55410  0.62942  0.69140  Biso   1.000  O
  C150     1.0000 0.59070  0.56690  0.43260  Biso   1.000  C
  H87      1.0000 0.59780  0.56150  0.38110  Biso   1.000  H
  O99      1.0000 0.56770  0.55570  0.71130  Biso   1.000  O
  C151     1.0000 0.74890  0.79630  0.42890  Biso   1.000  C
  O100     1.0000 0.54760  0.45401  0.48150  Biso   1.000  O
  C152     1.0000 0.79130  0.81190  0.46760  Biso   1.000  C
  O101     1.0000 0.56540  0.48326  0.36930  Biso   1.000  O
  C153     1.0000 0.82930  0.82450  0.42670  Biso   1.000  C
  H88      1.0000 0.82820  0.82410  0.37310  Biso   1.000  H
  O102     1.0000 0.71412  0.79129  0.46930  Biso   1.000  O
  C154     1.0000 0.86950  0.83800  0.46320  Biso   1.000  C
  O103     1.0000 0.75051  0.78830  0.36020  Biso   1.000  O
  C155     1.0000 0.90950  0.85410  0.41930  Biso   1.000  C
  O104     1.0000 0.59250  0.64480  0.85030  Biso   1.000  O
  C156     1.0000 0.87190  0.83650  0.54120  Biso   1.000  C
  H89      1.0000 0.89950  0.84310  0.56630  Biso   1.000  H
  O105     1.0000 0.55298  0.64735  0.95150  Biso   1.000  O
  C157     1.0000 0.83280  0.82500  0.58310  Biso   1.000  C
  O106     1.0000 0.87300  0.81420  0.69920  Biso   1.000  O
  C158     1.0000 0.83690  0.82430  0.66770  Biso   1.000  C
  O107     1.0000 0.69897  0.66806  0.20500  Biso   1.000  O
  C159     1.0000 0.79320  0.81300  0.54740  Biso   1.000  C
  H90      1.0000 0.76710  0.80550  0.57630  Biso   1.000  H
  O108     1.0000 0.71543  0.69207  0.46850  Biso   1.000  O
  C160     1.0000 0.74760  0.67720  0.42730  Biso   1.000  C
  O109     1.0000 0.74412  0.66728  0.35900  Biso   1.000  O
  C161     1.0000 0.79270  0.67110  0.46280  Biso   1.000  C
  O110     1.0000 0.60192  0.10127  0.35430  Biso   1.000  O
  C162     1.0000 0.82750  0.65060  0.42260  Biso   1.000  C
  H91      1.0000 0.82220  0.63940  0.37290  Biso   1.000  H
  O111     1.0000 0.44754  0.13058  0.43780  Biso   1.000  O
  C163     1.0000 0.87050  0.64630  0.45490  Biso   1.000  C
  O112     1.0000 0.61030  0.80390  0.17580  Biso   1.000  O
  C164     1.0000 0.59120  0.12430  0.41200  Biso   1.000  C
  O113     1.0000 0.68090  0.78770  0.18720  Biso   1.000  O
  C165     1.0000 0.87810  0.66210  0.52860  Biso   1.000  C
  H92      1.0000 0.90750  0.65950  0.55010  Biso   1.000  H
  C166     1.0000 0.84340  0.68140  0.57030  Biso   1.000  C
  C167     1.0000 0.79990  0.68670  0.53590  Biso   1.000  C
  H93      1.0000 0.77590  0.70090  0.56310  Biso   1.000  H
  C168     1.0000 0.64810  0.80300  0.14900  Biso   1.000  C
  C169     1.0000 0.52380  0.71090  0.79590  Biso   1.000  C
  C170     1.0000 0.58300  0.77060  0.80930  Biso   1.000  C
  N11      1.0000 0.67900  0.80280  0.66880  Biso   1.000  N
  C171     1.0000 0.66260  0.79070  0.59700  Biso   1.000  C
  C172     1.0000 0.69790  0.77470  0.71750  Biso   1.000  C
  H94      1.0000 0.70620  0.79210  0.76300  Biso   1.000  H
  H95      1.0000 0.72510  0.76100  0.69510  Biso   1.000  H
  H96      1.0000 0.67650  0.75010  0.73090  Biso   1.000  H
  C173     1.0000 0.68290  0.85250  0.68870  Biso   1.000  C
  H97      1.0000 0.66790  0.87130  0.65000  Biso   1.000  H
  H98      1.0000 0.71500  0.86110  0.69150  Biso   1.000  H
  H99      1.0000 0.66850  0.85800  0.73770  Biso   1.000  H
  O114     1.0000 0.60090  0.61870  0.85740  Biso   1.000  O
  H100     1.0000 0.39670  0.74380  0.80930  Biso   1.000  H
  H101     1.0000 0.41130  0.78950  0.76430  Biso   1.000  H
  H102     1.0000 0.41150  0.78930  0.85460  Biso   1.000  H
  N12      1.0000 0.65210  0.76800  0.68380  Biso   1.000  N
  O115     1.0000 0.64880  0.73470  0.56750  Biso   1.000  O
  O116     1.0000 0.54200  0.55820  0.69960  Biso   1.000  O
  C174     1.0000 0.66850  0.75620  0.61690  Biso   1.000  C
  C175     1.0000 0.60570  0.75340  0.70340  Biso   1.000  C
  H103     1.0000 0.59750  0.76590  0.75300  Biso   1.000  H
  H104     1.0000 0.60420  0.71950  0.70490  Biso   1.000  H
  H105     1.0000 0.58450  0.76510  0.66540  Biso   1.000  H
  C176     1.0000 0.67480  0.79560  0.74020  Biso   1.000  C
  H106     1.0000 0.65450  0.80080  0.78300  Biso   1.000  H
  H107     1.0000 0.68350  0.82550  0.71820  Biso   1.000  H
  H108     1.0000 0.70200  0.77930  0.75750  Biso   1.000  H
  Zn25     1.0000 0.83755  0.24320  0.45392  Biso   1.000  Zn
  O117     1.0000 0.82912  0.24311  0.33680  Biso   1.000  O
  C177     1.0000 0.89490  0.32810  0.41220  Biso   1.000  C
  Zn26     1.0000 0.81599  0.17849  0.31071  Biso   1.000  Zn
  O118     1.0000 0.83840  0.24970  0.57400  Biso   1.000  O
  C178     1.0000 0.91130  0.37060  0.45350  Biso   1.000  C
  Zn27     1.0000 0.87561  0.27608  0.27922  Biso   1.000  Zn
  N13      1.0000 0.96100  0.25570  0.80900  Biso   1.000  N
  C179     1.0000 0.91840  0.41220  0.41380  Biso   1.000  C
  H109     1.0000 0.91370  0.41330  0.36080  Biso   1.000  H
  C180     1.0000 0.93210  0.45160  0.45210  Biso   1.000  C
  Zn28     1.0000 0.93798  0.56012  0.29534  Biso   1.000  Zn
  C181     1.0000 0.94010  0.49630  0.41100  Biso   1.000  C
  Zn29     1.0000 0.96421  0.13501  0.78738  Biso   1.000  Zn
  C182     1.0000 0.93820  0.44970  0.52930  Biso   1.000  C
  H110     1.0000 0.94810  0.47670  0.55510  Biso   1.000  H
  Zn30     1.0000 0.94304  0.07376  0.81588  Biso   1.000  Zn
  C183     1.0000 0.93030  0.40910  0.57090  Biso   1.000  C
  C184     1.0000 0.93380  0.40800  0.65480  Biso   1.000  C
  C185     1.0000 0.91720  0.36950  0.53080  Biso   1.000  C
  H111     1.0000 0.91210  0.34130  0.55740  Biso   1.000  H
  O119     1.0000 0.88884  0.29301  0.45000  Biso   1.000  O
  C186     1.0000 0.87930  0.14830  0.42210  Biso   1.000  C
  O120     1.0000 0.88780  0.33197  0.34150  Biso   1.000  O
  C187     1.0000 0.90140  0.11080  0.46500  Biso   1.000  C
  O121     1.0000 0.93238  0.49772  0.34070  Biso   1.000  O
  C188     1.0000 0.91340  0.11900  0.53980  Biso   1.000  C
  H112     1.0000 0.90910  0.14880  0.56140  Biso   1.000  H
  O122     1.0000 0.95181  0.53061  0.45000  Biso   1.000  O
  C189     1.0000 0.93200  0.08270  0.58310  Biso   1.000  C
  O123     1.0000 0.93150  0.44719  0.68710  Biso   1.000  O
  C190     1.0000 0.94290  0.09080  0.66520  Biso   1.000  C
  O124     1.0000 0.93880  0.37131  0.68750  Biso   1.000  O
  C191     1.0000 0.93840  0.03920  0.55060  Biso   1.000  C
  H113     1.0000 0.95040  0.01450  0.57990  Biso   1.000  H
  O125     1.0000 0.88268  0.18885  0.44690  Biso   1.000  O
  C192     1.0000 0.92740  0.03190  0.47610  Biso   1.000  C
  O126     1.0000 0.85645  0.13626  0.36370  Biso   1.000  O
  C193     1.0000 0.93870  0.98610  0.43870  Biso   1.000  C
  O127     1.0000 0.94590  0.12942  0.69140  Biso   1.000  O
  C194     1.0000 0.90930  0.06690  0.43260  Biso   1.000  C
  H114     1.0000 0.90220  0.06150  0.38110  Biso   1.000  H
  O128     1.0000 0.93230  0.05570  0.71130  Biso   1.000  O
  C195     1.0000 0.75110  0.29630  0.42890  Biso   1.000  C
  O129     1.0000 0.95240  0.95401  0.48150  Biso   1.000  O
  C196     1.0000 0.70870  0.31190  0.46760  Biso   1.000  C
  O130     1.0000 0.93460  0.98326  0.36930  Biso   1.000  O
  C197     1.0000 0.67070  0.32450  0.42670  Biso   1.000  C
  H115     1.0000 0.67180  0.32410  0.37310  Biso   1.000  H
  O131     1.0000 0.78588  0.29129  0.46930  Biso   1.000  O
  C198     1.0000 0.63050  0.33800  0.46320  Biso   1.000  C
  O132     1.0000 0.74949  0.28830  0.36020  Biso   1.000  O
  C199     1.0000 0.59050  0.35410  0.41930  Biso   1.000  C
  O133     1.0000 0.90750  0.14480  0.85030  Biso   1.000  O
  C200     1.0000 0.62810  0.33650  0.54120  Biso   1.000  C
  H116     1.0000 0.60050  0.34310  0.56630  Biso   1.000  H
  O134     1.0000 0.94702  0.14735  0.95150  Biso   1.000  O
  C201     1.0000 0.66720  0.32500  0.58310  Biso   1.000  C
  O135     1.0000 0.62700  0.31420  0.69920  Biso   1.000  O
  C202     1.0000 0.66310  0.32430  0.66770  Biso   1.000  C
  O136     1.0000 0.80103  0.16806  0.20500  Biso   1.000  O
  C203     1.0000 0.70680  0.31300  0.54740  Biso   1.000  C
  H117     1.0000 0.73290  0.30550  0.57630  Biso   1.000  H
  O137     1.0000 0.78457  0.19207  0.46850  Biso   1.000  O
  C204     1.0000 0.75240  0.17720  0.42730  Biso   1.000  C
  O138     1.0000 0.75588  0.16728  0.35900  Biso   1.000  O
  C205     1.0000 0.70730  0.17110  0.46280  Biso   1.000  C
  O139     1.0000 0.89808  0.60127  0.35430  Biso   1.000  O
  C206     1.0000 0.67250  0.15060  0.42260  Biso   1.000  C
  H118     1.0000 0.67780  0.13940  0.37290  Biso   1.000  H
  O140     1.0000 0.05246  0.63058  0.43780  Biso   1.000  O
  C207     1.0000 0.62950  0.14630  0.45490  Biso   1.000  C
  O141     1.0000 0.88970  0.30390  0.17580  Biso   1.000  O
  C208     1.0000 0.90880  0.62430  0.41200  Biso   1.000  C
  O142     1.0000 0.81910  0.28770  0.18720  Biso   1.000  O
  C209     1.0000 0.62190  0.16210  0.52860  Biso   1.000  C
  H119     1.0000 0.59250  0.15950  0.55010  Biso   1.000  H
  C210     1.0000 0.65660  0.18140  0.57030  Biso   1.000  C
  C211     1.0000 0.70010  0.18670  0.53590  Biso   1.000  C
  H120     1.0000 0.72410  0.20090  0.56310  Biso   1.000  H
  C212     1.0000 0.85190  0.30300  0.14900  Biso   1.000  C
  C213     1.0000 0.97620  0.21090  0.79590  Biso   1.000  C
  C214     1.0000 0.91700  0.27060  0.80930  Biso   1.000  C
  N14      1.0000 0.82100  0.30280  0.66880  Biso   1.000  N
  C215     1.0000 0.83740  0.29070  0.59700  Biso   1.000  C
  C216     1.0000 0.80210  0.27470  0.71750  Biso   1.000  C
  H121     1.0000 0.79380  0.29210  0.76300  Biso   1.000  H
  H122     1.0000 0.77490  0.26100  0.69510  Biso   1.000  H
  H123     1.0000 0.82350  0.25010  0.73090  Biso   1.000  H
  C217     1.0000 0.81710  0.35250  0.68870  Biso   1.000  C
  H124     1.0000 0.83210  0.37130  0.65000  Biso   1.000  H
  H125     1.0000 0.78500  0.36110  0.69150  Biso   1.000  H
  H126     1.0000 0.83150  0.35800  0.73770  Biso   1.000  H
  O143     1.0000 0.89910  0.11870  0.85740  Biso   1.000  O
  H127     1.0000 0.10330  0.24380  0.80930  Biso   1.000  H
  H128     1.0000 0.08870  0.28950  0.76430  Biso   1.000  H
  H129     1.0000 0.08850  0.28930  0.85460  Biso   1.000  H
  N15      1.0000 0.84790  0.26800  0.68380  Biso   1.000  N
  O144     1.0000 0.85120  0.23470  0.56750  Biso   1.000  O
  O145     1.0000 0.95800  0.05820  0.69960  Biso   1.000  O
  C218     1.0000 0.83150  0.25620  0.61690  Biso   1.000  C
  C219     1.0000 0.89430  0.25340  0.70340  Biso   1.000  C
  H130     1.0000 0.90250  0.26590  0.75300  Biso   1.000  H
  H131     1.0000 0.89580  0.21950  0.70490  Biso   1.000  H
  H132     1.0000 0.91550  0.26510  0.66540  Biso   1.000  H
  C220     1.0000 0.82520  0.29560  0.74020  Biso   1.000  C
  H133     1.0000 0.84550  0.30080  0.78300  Biso   1.000  H
  H134     1.0000 0.81650  0.32550  0.71820  Biso   1.000  H
  H135     1.0000 0.79800  0.27930  0.75750  Biso   1.000  H
  Zn31     1.0000 0.33755  0.74320  0.45392  Biso   1.000  Zn
  O146     1.0000 0.32912  0.74311  0.33680  Biso   1.000  O
  C221     1.0000 0.39490  0.82810  0.41220  Biso   1.000  C
  Zn32     1.0000 0.31599  0.67849  0.31071  Biso   1.000  Zn
  O147     1.0000 0.33840  0.74970  0.57400  Biso   1.000  O
  C222     1.0000 0.41130  0.87060  0.45350  Biso   1.000  C
  Zn33     1.0000 0.37561  0.77608  0.27922  Biso   1.000  Zn
  N16      1.0000 0.46100  0.75570  0.80900  Biso   1.000  N
  C223     1.0000 0.41840  0.91220  0.41380  Biso   1.000  C
  H136     1.0000 0.41370  0.91330  0.36080  Biso   1.000  H
  C224     1.0000 0.43210  0.95160  0.45210  Biso   1.000  C
  Zn34     1.0000 0.43798  0.06012  0.29534  Biso   1.000  Zn
  C225     1.0000 0.44010  0.99630  0.41100  Biso   1.000  C
  Zn35     1.0000 0.46421  0.63501  0.78738  Biso   1.000  Zn
  C226     1.0000 0.43820  0.94970  0.52930  Biso   1.000  C
  H137     1.0000 0.44810  0.97670  0.55510  Biso   1.000  H
  Zn36     1.0000 0.44304  0.57376  0.81588  Biso   1.000  Zn
  C227     1.0000 0.43030  0.90910  0.57090  Biso   1.000  C
  C228     1.0000 0.43380  0.90800  0.65480  Biso   1.000  C
  C229     1.0000 0.41720  0.86950  0.53080  Biso   1.000  C
  H138     1.0000 0.41210  0.84130  0.55740  Biso   1.000  H
  O148     1.0000 0.38884  0.79301  0.45000  Biso   1.000  O
  C230     1.0000 0.37930  0.64830  0.42210  Biso   1.000  C
  O149     1.0000 0.38780  0.83197  0.34150  Biso   1.000  O
  C231     1.0000 0.40140  0.61080  0.46500  Biso   1.000  C
  O150     1.0000 0.43238  0.99772  0.34070  Biso   1.000  O
  C232     1.0000 0.41340  0.61900  0.53980  Biso   1.000  C
  H139     1.0000 0.40910  0.64880  0.56140  Biso   1.000  H
  O151     1.0000 0.45181  0.03061  0.45000  Biso   1.000  O
  C233     1.0000 0.43200  0.58270  0.58310  Biso   1.000  C
  O152     1.0000 0.43150  0.94719  0.68710  Biso   1.000  O
  C234     1.0000 0.44290  0.59080  0.66520  Biso   1.000  C
  O153     1.0000 0.43880  0.87131  0.68750  Biso   1.000  O
  C235     1.0000 0.43840  0.53920  0.55060  Biso   1.000  C
  H140     1.0000 0.45040  0.51450  0.57990  Biso   1.000  H
  O154     1.0000 0.38268  0.68885  0.44690  Biso   1.000  O
  C236     1.0000 0.42740  0.53190  0.47610  Biso   1.000  C
  O155     1.0000 0.35645  0.63626  0.36370  Biso   1.000  O
  C237     1.0000 0.43870  0.48610  0.43870  Biso   1.000  C
  O156     1.0000 0.44590  0.62942  0.69140  Biso   1.000  O
  C238     1.0000 0.40930  0.56690  0.43260  Biso   1.000  C
  H141     1.0000 0.40220  0.56150  0.38110  Biso   1.000  H
  O157     1.0000 0.43230  0.55570  0.71130  Biso   1.000  O
  C239     1.0000 0.25110  0.79630  0.42890  Biso   1.000  C
  O158     1.0000 0.45240  0.45401  0.48150  Biso   1.000  O
  C240     1.0000 0.20870  0.81190  0.46760  Biso   1.000  C
  O159     1.0000 0.43460  0.48326  0.36930  Biso   1.000  O
  C241     1.0000 0.17070  0.82450  0.42670  Biso   1.000  C
  H142     1.0000 0.17180  0.82410  0.37310  Biso   1.000  H
  O160     1.0000 0.28588  0.79129  0.46930  Biso   1.000  O
  C242     1.0000 0.13050  0.83800  0.46320  Biso   1.000  C
  O161     1.0000 0.24949  0.78830  0.36020  Biso   1.000  O
  C243     1.0000 0.09050  0.85410  0.41930  Biso   1.000  C
  O162     1.0000 0.40750  0.64480  0.85030  Biso   1.000  O
  C244     1.0000 0.12810  0.83650  0.54120  Biso   1.000  C
  H143     1.0000 0.10050  0.84310  0.56630  Biso   1.000  H
  O163     1.0000 0.44702  0.64735  0.95150  Biso   1.000  O
  C245     1.0000 0.16720  0.82500  0.58310  Biso   1.000  C
  O164     1.0000 0.12700  0.81420  0.69920  Biso   1.000  O
  C246     1.0000 0.16310  0.82430  0.66770  Biso   1.000  C
  O165     1.0000 0.30103  0.66806  0.20500  Biso   1.000  O
  C247     1.0000 0.20680  0.81300  0.54740  Biso   1.000  C
  H144     1.0000 0.23290  0.80550  0.57630  Biso   1.000  H
  O166     1.0000 0.28457  0.69207  0.46850  Biso   1.000  O
  C248     1.0000 0.25240  0.67720  0.42730  Biso   1.000  C
  O167     1.0000 0.25588  0.66728  0.35900  Biso   1.000  O
  C249     1.0000 0.20730  0.67110  0.46280  Biso   1.000  C
  O168     1.0000 0.39808  0.10127  0.35430  Biso   1.000  O
  C250     1.0000 0.17250  0.65060  0.42260  Biso   1.000  C
  H145     1.0000 0.17780  0.63940  0.37290  Biso   1.000  H
  O169     1.0000 0.55246  0.13058  0.43780  Biso   1.000  O
  C251     1.0000 0.12950  0.64630  0.45490  Biso   1.000  C
  O170     1.0000 0.38970  0.80390  0.17580  Biso   1.000  O
  C252     1.0000 0.40880  0.12430  0.41200  Biso   1.000  C
  O171     1.0000 0.31910  0.78770  0.18720  Biso   1.000  O
  C253     1.0000 0.12190  0.66210  0.52860  Biso   1.000  C
  H146     1.0000 0.09250  0.65950  0.55010  Biso   1.000  H
  C254     1.0000 0.15660  0.68140  0.57030  Biso   1.000  C
  C255     1.0000 0.20010  0.68670  0.53590  Biso   1.000  C
  H147     1.0000 0.22410  0.70090  0.56310  Biso   1.000  H
  C256     1.0000 0.35190  0.80300  0.14900  Biso   1.000  C
  C257     1.0000 0.47620  0.71090  0.79590  Biso   1.000  C
  C258     1.0000 0.41700  0.77060  0.80930  Biso   1.000  C
  N17      1.0000 0.32100  0.80280  0.66880  Biso   1.000  N
  C259     1.0000 0.33740  0.79070  0.59700  Biso   1.000  C
  C260     1.0000 0.30210  0.77470  0.71750  Biso   1.000  C
  H148     1.0000 0.29380  0.79210  0.76300  Biso   1.000  H
  H149     1.0000 0.27490  0.76100  0.69510  Biso   1.000  H
  H150     1.0000 0.32350  0.75010  0.73090  Biso   1.000  H
  C261     1.0000 0.31710  0.85250  0.68870  Biso   1.000  C
  H151     1.0000 0.33210  0.87130  0.65000  Biso   1.000  H
  H152     1.0000 0.28500  0.86110  0.69150  Biso   1.000  H
  H153     1.0000 0.33150  0.85800  0.73770  Biso   1.000  H
  O172     1.0000 0.39910  0.61870  0.85740  Biso   1.000  O
  H154     1.0000 0.60330  0.74380  0.80930  Biso   1.000  H
  H155     1.0000 0.58870  0.78950  0.76430  Biso   1.000  H
  H156     1.0000 0.58850  0.78930  0.85460  Biso   1.000  H
  N18      1.0000 0.34790  0.76800  0.68380  Biso   1.000  N
  O173     1.0000 0.35120  0.73470  0.56750  Biso   1.000  O
  O174     1.0000 0.45800  0.55820  0.69960  Biso   1.000  O
  C262     1.0000 0.33150  0.75620  0.61690  Biso   1.000  C
  C263     1.0000 0.39430  0.75340  0.70340  Biso   1.000  C
  H157     1.0000 0.40250  0.76590  0.75300  Biso   1.000  H
  H158     1.0000 0.39580  0.71950  0.70490  Biso   1.000  H
  H159     1.0000 0.41550  0.76510  0.66540  Biso   1.000  H
  C264     1.0000 0.32520  0.79560  0.74020  Biso   1.000  C
  H160     1.0000 0.34550  0.80080  0.78300  Biso   1.000  H
  H161     1.0000 0.31650  0.82550  0.71820  Biso   1.000  H
  H162     1.0000 0.29800  0.77930  0.75750  Biso   1.000  H
  Zn37     1.0000 0.16245  0.75680  0.95392  Biso   1.000  Zn
  O175     1.0000 0.17088  0.75689  0.83680  Biso   1.000  O
  C265     1.0000 0.10510  0.67190  0.91220  Biso   1.000  C
  Zn38     1.0000 0.18401  0.82151  0.81071  Biso   1.000  Zn
  O176     1.0000 0.16160  0.75030  0.07400  Biso   1.000  O
  C266     1.0000 0.08870  0.62940  0.95350  Biso   1.000  C
  Zn39     1.0000 0.12439  0.72392  0.77922  Biso   1.000  Zn
  N19      1.0000 0.03900  0.74430  0.30900  Biso   1.000  N
  C267     1.0000 0.08160  0.58780  0.91380  Biso   1.000  C
  H163     1.0000 0.08630  0.58670  0.86080  Biso   1.000  H
  C268     1.0000 0.06790  0.54840  0.95210  Biso   1.000  C
  Zn40     1.0000 0.06202  0.43988  0.79534  Biso   1.000  Zn
  C269     1.0000 0.05990  0.50370  0.91100  Biso   1.000  C
  Zn41     1.0000 0.03579  0.86499  0.28738  Biso   1.000  Zn
  C270     1.0000 0.06180  0.55030  0.02930  Biso   1.000  C
  H164     1.0000 0.05190  0.52330  0.05510  Biso   1.000  H
  Zn42     1.0000 0.05696  0.92624  0.31588  Biso   1.000  Zn
  C271     1.0000 0.06970  0.59090  0.07090  Biso   1.000  C
  C272     1.0000 0.06620  0.59200  0.15480  Biso   1.000  C
  C273     1.0000 0.08280  0.63050  0.03080  Biso   1.000  C
  H165     1.0000 0.08790  0.65870  0.05740  Biso   1.000  H
  O177     1.0000 0.11116  0.70699  0.95000  Biso   1.000  O
  C274     1.0000 0.12070  0.85170  0.92210  Biso   1.000  C
  O178     1.0000 0.11220  0.66803  0.84150  Biso   1.000  O
  C275     1.0000 0.09860  0.88920  0.96500  Biso   1.000  C
  O179     1.0000 0.06762  0.50228  0.84070  Biso   1.000  O
  C276     1.0000 0.08660  0.88100  0.03980  Biso   1.000  C
  H166     1.0000 0.09090  0.85120  0.06140  Biso   1.000  H
  O180     1.0000 0.04819  0.46939  0.95000  Biso   1.000  O
  C277     1.0000 0.06800  0.91730  0.08310  Biso   1.000  C
  O181     1.0000 0.06850  0.55281  0.18710  Biso   1.000  O
  C278     1.0000 0.05710  0.90920  0.16520  Biso   1.000  C
  O182     1.0000 0.06120  0.62869  0.18750  Biso   1.000  O
  C279     1.0000 0.06160  0.96080  0.05060  Biso   1.000  C
  H167     1.0000 0.04960  0.98550  0.07990  Biso   1.000  H
  O183     1.0000 0.11732  0.81115  0.94690  Biso   1.000  O
  C280     1.0000 0.07260  0.96810  0.97610  Biso   1.000  C
  O184     1.0000 0.14355  0.86374  0.86370  Biso   1.000  O
  C281     1.0000 0.06130  0.01390  0.93870  Biso   1.000  C
  O185     1.0000 0.05410  0.87058  0.19140  Biso   1.000  O
  C282     1.0000 0.09070  0.93310  0.93260  Biso   1.000  C
  H168     1.0000 0.09780  0.93850  0.88110  Biso   1.000  H
  O186     1.0000 0.06770  0.94430  0.21130  Biso   1.000  O
  C283     1.0000 0.24890  0.70370  0.92890  Biso   1.000  C
  O187     1.0000 0.04760  0.04599  0.98150  Biso   1.000  O
  C284     1.0000 0.29130  0.68810  0.96760  Biso   1.000  C
  O188     1.0000 0.06540  0.01674  0.86930  Biso   1.000  O
  C285     1.0000 0.32930  0.67550  0.92670  Biso   1.000  C
  H169     1.0000 0.32820  0.67590  0.87310  Biso   1.000  H
  O189     1.0000 0.21412  0.70871  0.96930  Biso   1.000  O
  C286     1.0000 0.36950  0.66200  0.96320  Biso   1.000  C
  O190     1.0000 0.25051  0.71170  0.86020  Biso   1.000  O
  C287     1.0000 0.40950  0.64590  0.91930  Biso   1.000  C
  O191     1.0000 0.09250  0.85520  0.35030  Biso   1.000  O
  C288     1.0000 0.37190  0.66350  0.04120  Biso   1.000  C
  H170     1.0000 0.39950  0.65690  0.06630  Biso   1.000  H
  O192     1.0000 0.05298  0.85265  0.45150  Biso   1.000  O
  C289     1.0000 0.33280  0.67500  0.08310  Biso   1.000  C
  O193     1.0000 0.37300  0.68580  0.19920  Biso   1.000  O
  C290     1.0000 0.33690  0.67570  0.16770  Biso   1.000  C
  O194     1.0000 0.19897  0.83194  0.70500  Biso   1.000  O
  C291     1.0000 0.29320  0.68700  0.04740  Biso   1.000  C
  H171     1.0000 0.26710  0.69450  0.07630  Biso   1.000  H
  O195     1.0000 0.21543  0.80793  0.96850  Biso   1.000  O
  C292     1.0000 0.24760  0.82280  0.92730  Biso   1.000  C
  O196     1.0000 0.24412  0.83272  0.85900  Biso   1.000  O
  C293     1.0000 0.29270  0.82890  0.96280  Biso   1.000  C
  O197     1.0000 0.10192  0.39873  0.85430  Biso   1.000  O
  C294     1.0000 0.32750  0.84940  0.92260  Biso   1.000  C
  H172     1.0000 0.32220  0.86060  0.87290  Biso   1.000  H
  O198     1.0000 0.94754  0.36942  0.93780  Biso   1.000  O
  C295     1.0000 0.37050  0.85370  0.95490  Biso   1.000  C
  O199     1.0000 0.11030  0.69610  0.67580  Biso   1.000  O
  C296     1.0000 0.09120  0.37570  0.91200  Biso   1.000  C
  O200     1.0000 0.18090  0.71230  0.68720  Biso   1.000  O
  C297     1.0000 0.37810  0.83790  0.02860  Biso   1.000  C
  H173     1.0000 0.40750  0.84050  0.05010  Biso   1.000  H
  C298     1.0000 0.34340  0.81860  0.07030  Biso   1.000  C
  C299     1.0000 0.29990  0.81330  0.03590  Biso   1.000  C
  H174     1.0000 0.27590  0.79910  0.06310  Biso   1.000  H
  C300     1.0000 0.14810  0.69700  0.64900  Biso   1.000  C
  C301     1.0000 0.02380  0.78910  0.29590  Biso   1.000  C
  C302     1.0000 0.08300  0.72940  0.30930  Biso   1.000  C
  N20      1.0000 0.17900  0.69720  0.16880  Biso   1.000  N
  C303     1.0000 0.16260  0.70930  0.09700  Biso   1.000  C
  C304     1.0000 0.19790  0.72530  0.21750  Biso   1.000  C
  H175     1.0000 0.20620  0.70790  0.26300  Biso   1.000  H
  H176     1.0000 0.22510  0.73900  0.19510  Biso   1.000  H
  H177     1.0000 0.17650  0.74990  0.23090  Biso   1.000  H
  C305     1.0000 0.18290  0.64750  0.18870  Biso   1.000  C
  H178     1.0000 0.16790  0.62870  0.15000  Biso   1.000  H
  H179     1.0000 0.21500  0.63890  0.19150  Biso   1.000  H
  H180     1.0000 0.16850  0.64200  0.23770  Biso   1.000  H
  O201     1.0000 0.10090  0.88130  0.35740  Biso   1.000  O
  H181     1.0000 0.89670  0.75620  0.30930  Biso   1.000  H
  H182     1.0000 0.91130  0.71050  0.26430  Biso   1.000  H
  H183     1.0000 0.91150  0.71070  0.35460  Biso   1.000  H
  N21      1.0000 0.15210  0.73200  0.18380  Biso   1.000  N
  O202     1.0000 0.14880  0.76530  0.06750  Biso   1.000  O
  O203     1.0000 0.04200  0.94180  0.19960  Biso   1.000  O
  C306     1.0000 0.16850  0.74380  0.11690  Biso   1.000  C
  C307     1.0000 0.10570  0.74660  0.20340  Biso   1.000  C
  H184     1.0000 0.09750  0.73410  0.25300  Biso   1.000  H
  H185     1.0000 0.10420  0.78050  0.20490  Biso   1.000  H
  H186     1.0000 0.08450  0.73490  0.16540  Biso   1.000  H
  C308     1.0000 0.17480  0.70440  0.24020  Biso   1.000  C
  H187     1.0000 0.15450  0.69920  0.28300  Biso   1.000  H
  H188     1.0000 0.18350  0.67450  0.21820  Biso   1.000  H
  H189     1.0000 0.20200  0.72070  0.25750  Biso   1.000  H
  Zn43     1.0000 0.66245  0.25680  0.95392  Biso   1.000  Zn
  O204     1.0000 0.67088  0.25689  0.83680  Biso   1.000  O
  C309     1.0000 0.60510  0.17190  0.91220  Biso   1.000  C
  Zn44     1.0000 0.68401  0.32151  0.81071  Biso   1.000  Zn
  O205     1.0000 0.66160  0.25030  0.07400  Biso   1.000  O
  C310     1.0000 0.58870  0.12940  0.95350  Biso   1.000  C
  Zn45     1.0000 0.62439  0.22392  0.77922  Biso   1.000  Zn
  N22      1.0000 0.53900  0.24430  0.30900  Biso   1.000  N
  C311     1.0000 0.58160  0.08780  0.91380  Biso   1.000  C
  H190     1.0000 0.58630  0.08670  0.86080  Biso   1.000  H
  C312     1.0000 0.56790  0.04840  0.95210  Biso   1.000  C
  Zn46     1.0000 0.56202  0.93988  0.79534  Biso   1.000  Zn
  C313     1.0000 0.55990  0.00370  0.91100  Biso   1.000  C
  Zn47     1.0000 0.53579  0.36499  0.28738  Biso   1.000  Zn
  C314     1.0000 0.56180  0.05030  0.02930  Biso   1.000  C
  H191     1.0000 0.55190  0.02330  0.05510  Biso   1.000  H
  Zn48     1.0000 0.55696  0.42624  0.31588  Biso   1.000  Zn
  C315     1.0000 0.56970  0.09090  0.07090  Biso   1.000  C
  C316     1.0000 0.56620  0.09200  0.15480  Biso   1.000  C
  C317     1.0000 0.58280  0.13050  0.03080  Biso   1.000  C
  H192     1.0000 0.58790  0.15870  0.05740  Biso   1.000  H
  O206     1.0000 0.61116  0.20699  0.95000  Biso   1.000  O
  C318     1.0000 0.62070  0.35170  0.92210  Biso   1.000  C
  O207     1.0000 0.61220  0.16803  0.84150  Biso   1.000  O
  C319     1.0000 0.59860  0.38920  0.96500  Biso   1.000  C
  O208     1.0000 0.56762  0.00228  0.84070  Biso   1.000  O
  C320     1.0000 0.58660  0.38100  0.03980  Biso   1.000  C
  H193     1.0000 0.59090  0.35120  0.06140  Biso   1.000  H
  O209     1.0000 0.54819  0.96939  0.95000  Biso   1.000  O
  C321     1.0000 0.56800  0.41730  0.08310  Biso   1.000  C
  O210     1.0000 0.56850  0.05281  0.18710  Biso   1.000  O
  C322     1.0000 0.55710  0.40920  0.16520  Biso   1.000  C
  O211     1.0000 0.56120  0.12869  0.18750  Biso   1.000  O
  C323     1.0000 0.56160  0.46080  0.05060  Biso   1.000  C
  H194     1.0000 0.54960  0.48550  0.07990  Biso   1.000  H
  O212     1.0000 0.61732  0.31115  0.94690  Biso   1.000  O
  C324     1.0000 0.57260  0.46810  0.97610  Biso   1.000  C
  O213     1.0000 0.64355  0.36374  0.86370  Biso   1.000  O
  C325     1.0000 0.56130  0.51390  0.93870  Biso   1.000  C
  O214     1.0000 0.55410  0.37058  0.19140  Biso   1.000  O
  C326     1.0000 0.59070  0.43310  0.93260  Biso   1.000  C
  H195     1.0000 0.59780  0.43850  0.88110  Biso   1.000  H
  O215     1.0000 0.56770  0.44430  0.21130  Biso   1.000  O
  C327     1.0000 0.74890  0.20370  0.92890  Biso   1.000  C
  O216     1.0000 0.54760  0.54599  0.98150  Biso   1.000  O
  C328     1.0000 0.79130  0.18810  0.96760  Biso   1.000  C
  O217     1.0000 0.56540  0.51674  0.86930  Biso   1.000  O
  C329     1.0000 0.82930  0.17550  0.92670  Biso   1.000  C
  H196     1.0000 0.82820  0.17590  0.87310  Biso   1.000  H
  O218     1.0000 0.71412  0.20871  0.96930  Biso   1.000  O
  C330     1.0000 0.86950  0.16200  0.96320  Biso   1.000  C
  O219     1.0000 0.75051  0.21170  0.86020  Biso   1.000  O
  C331     1.0000 0.90950  0.14590  0.91930  Biso   1.000  C
  O220     1.0000 0.59250  0.35520  0.35030  Biso   1.000  O
  C332     1.0000 0.87190  0.16350  0.04120  Biso   1.000  C
  H197     1.0000 0.89950  0.15690  0.06630  Biso   1.000  H
  O221     1.0000 0.55298  0.35265  0.45150  Biso   1.000  O
  C333     1.0000 0.83280  0.17500  0.08310  Biso   1.000  C
  O222     1.0000 0.87300  0.18580  0.19920  Biso   1.000  O
  C334     1.0000 0.83690  0.17570  0.16770  Biso   1.000  C
  O223     1.0000 0.69897  0.33194  0.70500  Biso   1.000  O
  C335     1.0000 0.79320  0.18700  0.04740  Biso   1.000  C
  H198     1.0000 0.76710  0.19450  0.07630  Biso   1.000  H
  O224     1.0000 0.71543  0.30793  0.96850  Biso   1.000  O
  C336     1.0000 0.74760  0.32280  0.92730  Biso   1.000  C
  O225     1.0000 0.74412  0.33272  0.85900  Biso   1.000  O
  C337     1.0000 0.79270  0.32890  0.96280  Biso   1.000  C
  O226     1.0000 0.60192  0.89873  0.85430  Biso   1.000  O
  C338     1.0000 0.82750  0.34940  0.92260  Biso   1.000  C
  H199     1.0000 0.82220  0.36060  0.87290  Biso   1.000  H
  O227     1.0000 0.44754  0.86942  0.93780  Biso   1.000  O
  C339     1.0000 0.87050  0.35370  0.95490  Biso   1.000  C
  O228     1.0000 0.61030  0.19610  0.67580  Biso   1.000  O
  C340     1.0000 0.59120  0.87570  0.91200  Biso   1.000  C
  O229     1.0000 0.68090  0.21230  0.68720  Biso   1.000  O
  C341     1.0000 0.87810  0.33790  0.02860  Biso   1.000  C
  H200     1.0000 0.90750  0.34050  0.05010  Biso   1.000  H
  C342     1.0000 0.84340  0.31860  0.07030  Biso   1.000  C
  C343     1.0000 0.79990  0.31330  0.03590  Biso   1.000  C
  H201     1.0000 0.77590  0.29910  0.06310  Biso   1.000  H
  C344     1.0000 0.64810  0.19700  0.64900  Biso   1.000  C
  C345     1.0000 0.52380  0.28910  0.29590  Biso   1.000  C
  C346     1.0000 0.58300  0.22940  0.30930  Biso   1.000  C
  N23      1.0000 0.67900  0.19720  0.16880  Biso   1.000  N
  C347     1.0000 0.66260  0.20930  0.09700  Biso   1.000  C
  C348     1.0000 0.69790  0.22530  0.21750  Biso   1.000  C
  H202     1.0000 0.70620  0.20790  0.26300  Biso   1.000  H
  H203     1.0000 0.72510  0.23900  0.19510  Biso   1.000  H
  H204     1.0000 0.67650  0.24990  0.23090  Biso   1.000  H
  C349     1.0000 0.68290  0.14750  0.18870  Biso   1.000  C
  H205     1.0000 0.66790  0.12870  0.15000  Biso   1.000  H
  H206     1.0000 0.71500  0.13890  0.19150  Biso   1.000  H
  H207     1.0000 0.66850  0.14200  0.23770  Biso   1.000  H
  O230     1.0000 0.60090  0.38130  0.35740  Biso   1.000  O
  H208     1.0000 0.39670  0.25620  0.30930  Biso   1.000  H
  H209     1.0000 0.41130  0.21050  0.26430  Biso   1.000  H
  H210     1.0000 0.41150  0.21070  0.35460  Biso   1.000  H
  N24      1.0000 0.65210  0.23200  0.18380  Biso   1.000  N
  O231     1.0000 0.64880  0.26530  0.06750  Biso   1.000  O
  O232     1.0000 0.54200  0.44180  0.19960  Biso   1.000  O
  C350     1.0000 0.66850  0.24380  0.11690  Biso   1.000  C
  C351     1.0000 0.60570  0.24660  0.20340  Biso   1.000  C
  H211     1.0000 0.59750  0.23410  0.25300  Biso   1.000  H
  H212     1.0000 0.60420  0.28050  0.20490  Biso   1.000  H
  H213     1.0000 0.58450  0.23490  0.16540  Biso   1.000  H
  C352     1.0000 0.67480  0.20440  0.24020  Biso   1.000  C
  H214     1.0000 0.65450  0.19920  0.28300  Biso   1.000  H
  H215     1.0000 0.68350  0.17450  0.21820  Biso   1.000  H
  H216     1.0000 0.70200  0.22070  0.25750  Biso   1.000  H
  Zn49     1.0000 0.00000  0.41670  0.94125  Biso   1.000  Zn
  O233     1.0000 0.00000  0.41850  0.82060  Biso   1.000  O
  O234     1.0000 0.00000  0.91030  0.34720  Biso   1.000  O
  Zn50     1.0000 0.00000  0.90040  0.46382  Biso   1.000  Zn
  O235     1.0000 0.00000  0.80210  0.29220  Biso   1.000  O
  C353     1.0000 0.00000  0.70740  0.31100  Biso   1.000  C
  Zn51     1.0000 0.50000  0.91670  0.94125  Biso   1.000  Zn
  O236     1.0000 0.50000  0.91850  0.82060  Biso   1.000  O
  O237     1.0000 0.50000  0.41030  0.34720  Biso   1.000  O
  Zn52     1.0000 0.50000  0.40040  0.46382  Biso   1.000  Zn
  O238     1.0000 0.50000  0.30210  0.29220  Biso   1.000  O
  C354     1.0000 0.50000  0.20740  0.31100  Biso   1.000  C
  Zn53     1.0000 0.00000  0.58330  0.44125  Biso   1.000  Zn
  O239     1.0000 0.00000  0.58150  0.32060  Biso   1.000  O
  O240     1.0000 0.00000  0.08970  0.84720  Biso   1.000  O
  Zn54     1.0000 0.00000  0.09960  0.96382  Biso   1.000  Zn
  O241     1.0000 0.00000  0.19790  0.79220  Biso   1.000  O
  C355     1.0000 0.00000  0.29260  0.81100  Biso   1.000  C
  Zn55     1.0000 0.50000  0.08330  0.44125  Biso   1.000  Zn
  O242     1.0000 0.50000  0.08150  0.32060  Biso   1.000  O
  O243     1.0000 0.50000  0.58970  0.84720  Biso   1.000  O
  Zn56     1.0000 0.50000  0.59960  0.96382  Biso   1.000  Zn
  O244     1.0000 0.50000  0.69790  0.79220  Biso   1.000  O
  C356     1.0000 0.50000  0.79260  0.81100  Biso   1.000  C
