data_image0
_cell_length_a       30.664
_cell_length_b       17.225
_cell_length_c       27.371
_cell_angle_alpha    90
_cell_angle_beta     105.9
_cell_angle_gamma    90

_symmetry_space_group_name_H-M    "P 1"
_symmetry_int_tables_number       1

loop_
  _symmetry_equiv_pos_as_xyz
  'x, y, z'

loop_
  _atom_site_label
  _atom_site_occupancy
  _atom_site_fract_x
  _atom_site_fract_y
  _atom_site_fract_z
  _atom_site_thermal_displace_type
  _atom_site_B_iso_or_equiv
  _atom_site_type_symbol
  Cd1      1.0000 0.37079  0.76297  0.14349  Biso   1.000  Cd
  C1       1.0000 0.28802  0.95090  0.22700  Biso   1.000  C
  N1       1.0000 0.26840  0.92620  0.17920  Biso   1.000  N
  C2       1.0000 0.29248  0.88370  0.15426  Biso   1.000  C
  N2       1.0000 0.33618  0.86600  0.17710  Biso   1.000  N
  C3       1.0000 0.35581  0.89060  0.22490  Biso   1.000  C
  N3       1.0000 0.33172  0.93310  0.24982  Biso   1.000  N
  C4       1.0000 0.23090  0.87940  0.07320  Biso   1.000  C
  C5       1.0000 0.20860  0.95260  0.07870  Biso   1.000  C
  H1       1.0000 0.21960  0.98430  0.10690  Biso   1.000  H
  C6       1.0000 0.16940  0.97350  0.03910  Biso   1.000  C
  H2       1.0000 0.15540  0.02110  0.04000  Biso   1.000  H
  C7       1.0000 0.15160  0.92110  0.99800  Biso   1.000  C
  H3       1.0000 0.12600  0.93470  0.97220  Biso   1.000  H
  C8       1.0000 0.17300  0.84790  0.99650  Biso   1.000  C
  C9       1.0000 0.15770  0.80180  0.94800  Biso   1.000  C
  C10      1.0000 0.22280  0.03640  0.23240  Biso   1.000  C
  C11      1.0000 0.18910  0.00140  0.19260  Biso   1.000  C
  H4       1.0000 0.19700  0.96180  0.17340  Biso   1.000  H
  C12      1.0000 0.14350  0.02650  0.18190  Biso   1.000  C
  H5       1.0000 0.12140  0.00350  0.15570  Biso   1.000  H
  C13      1.0000 0.13160  0.08670  0.21100  Biso   1.000  C
  H6       1.0000 0.10170  0.10320  0.20400  Biso   1.000  H
  C14      1.0000 0.15440  0.15990  0.29620  Biso   1.000  C
  C15      1.0000 0.43150  0.91320  0.28880  Biso   1.000  C
  C16      1.0000 0.42390  0.97130  0.32010  Biso   1.000  C
  H7       1.0000 0.39560  0.99500  0.31320  Biso   1.000  H
  C17      1.0000 0.55140  0.84740  0.35450  Biso   1.000  C
  N4       1.0000 0.27800  0.87850  0.09990  Biso   1.000  N
  N5       1.0000 0.27100  0.00970  0.24880  Biso   1.000  N
  N6       1.0000 0.40160  0.89180  0.23700  Biso   1.000  N
  O1       1.0000 0.18082  0.74730  0.94208  Biso   1.000  O
  O2       1.0000 0.12168  0.82540  0.91700  Biso   1.000  O
  O3       1.0000 0.11373  0.18120  0.28570  Biso   1.000  O
  O4       1.0000 0.18500  0.18200  0.33170  Biso   1.000  O
  O5       1.0000 0.55650  0.80120  0.32210  Biso   1.000  O
  O6       1.0000 0.58090  0.86400  0.39370  Biso   1.000  O
  C18      1.0000 0.50010  0.95910  0.37170  Biso   1.000  C
  H8       1.0000 0.52330  0.97470  0.39980  Biso   1.000  H
  C19      1.0000 0.50770  0.90110  0.34040  Biso   1.000  C
  C20      1.0000 0.47340  0.87810  0.29890  Biso   1.000  C
  H9       1.0000 0.47850  0.83890  0.27780  Biso   1.000  H
  C21      1.0000 0.45820  0.99420  0.36160  Biso   1.000  C
  H10      1.0000 0.45310  0.03340  0.38270  Biso   1.000  H
  C22      1.0000 0.16530  0.12180  0.25080  Biso   1.000  C
  C23      1.0000 0.21090  0.09660  0.26150  Biso   1.000  C
  H11      1.0000 0.23300  0.11970  0.28770  Biso   1.000  H
  C24      1.0000 0.21230  0.82710  0.03610  Biso   1.000  C
  H12      1.0000 0.22500  0.77800  0.03650  Biso   1.000  H
  C25      1.0000 0.22940  0.87930  0.07300  Biso   1.000  C
  C26      1.0000 0.19460  0.91190  0.09410  Biso   1.000  C
  H13      1.0000 0.20230  0.92980  0.12740  Biso   1.000  H
  C27      1.0000 0.14780  0.91650  0.06290  Biso   1.000  C
  H14      1.0000 0.12560  0.93730  0.07640  Biso   1.000  H
  C28      1.0000 0.13570  0.88850  0.01070  Biso   1.000  C
  H15      1.0000 0.10670  0.89240  0.98890  Biso   1.000  H
  C29      1.0000 0.17480  0.85240  0.99530  Biso   1.000  C
  C30      1.0000 0.21780  0.99650  0.24910  Biso   1.000  C
  C31      1.0000 0.18240  0.95770  0.21320  Biso   1.000  C
  H16      1.0000 0.18890  0.91530  0.19530  Biso   1.000  H
  C32      1.0000 0.13700  0.98340  0.20440  Biso   1.000  C
  H17      1.0000 0.11380  0.95790  0.18080  Biso   1.000  H
  C33      1.0000 0.12710  0.04790  0.23160  Biso   1.000  C
  H18      1.0000 0.09730  0.06480  0.22590  Biso   1.000  H
  C34      1.0000 0.42530  0.87990  0.29710  Biso   1.000  C
  C35      1.0000 0.41340  0.92960  0.33590  Biso   1.000  C
  H19      1.0000 0.38420  0.94810  0.33220  Biso   1.000  H
  N7       1.0000 0.27070  0.84410  0.11140  Biso   1.000  N
  N8       1.0000 0.26240  0.96980  0.26200  Biso   1.000  N
  N9       1.0000 0.39600  0.85680  0.24920  Biso   1.000  N
  C36      1.0000 0.49220  0.91880  0.39030  Biso   1.000  C
  H20      1.0000 0.51410  0.92880  0.42060  Biso   1.000  H
  C37      1.0000 0.50120  0.87160  0.35140  Biso   1.000  C
  C38      1.0000 0.46750  0.84700  0.30900  Biso   1.000  C
  H21      1.0000 0.47370  0.80780  0.28850  Biso   1.000  H
  C39      1.0000 0.45100  0.94730  0.38040  Biso   1.000  C
  H22      1.0000 0.44520  0.98190  0.40400  Biso   1.000  H
  C40      1.0000 0.16250  0.08670  0.26750  Biso   1.000  C
  C41      1.0000 0.20780  0.06100  0.27630  Biso   1.000  C
  H23      1.0000 0.23110  0.08640  0.29990  Biso   1.000  H
  C42      1.0000 0.21730  0.85130  0.02070  Biso   1.000  C
  H24      1.0000 0.23940  0.83320  0.00610  Biso   1.000  H
  Cd2      1.0000 0.87079  0.26297  0.14349  Biso   1.000  Cd
  C43      1.0000 0.78802  0.45090  0.22700  Biso   1.000  C
  N10      1.0000 0.76840  0.42620  0.17920  Biso   1.000  N
  C44      1.0000 0.79248  0.38370  0.15426  Biso   1.000  C
  N11      1.0000 0.83618  0.36600  0.17710  Biso   1.000  N
  C45      1.0000 0.85581  0.39060  0.22490  Biso   1.000  C
  N12      1.0000 0.83172  0.43310  0.24982  Biso   1.000  N
  C46      1.0000 0.73090  0.37940  0.07320  Biso   1.000  C
  C47      1.0000 0.70860  0.45260  0.07870  Biso   1.000  C
  H25      1.0000 0.71960  0.48430  0.10690  Biso   1.000  H
  C48      1.0000 0.66940  0.47350  0.03910  Biso   1.000  C
  H26      1.0000 0.65540  0.52110  0.04000  Biso   1.000  H
  C49      1.0000 0.65160  0.42110  0.99800  Biso   1.000  C
  H27      1.0000 0.62600  0.43470  0.97220  Biso   1.000  H
  C50      1.0000 0.67300  0.34790  0.99650  Biso   1.000  C
  C51      1.0000 0.65770  0.30180  0.94800  Biso   1.000  C
  C52      1.0000 0.72280  0.53640  0.23240  Biso   1.000  C
  C53      1.0000 0.68910  0.50140  0.19260  Biso   1.000  C
  H28      1.0000 0.69700  0.46180  0.17340  Biso   1.000  H
  C54      1.0000 0.64350  0.52650  0.18190  Biso   1.000  C
  H29      1.0000 0.62140  0.50350  0.15570  Biso   1.000  H
  C55      1.0000 0.63160  0.58670  0.21100  Biso   1.000  C
  H30      1.0000 0.60170  0.60320  0.20400  Biso   1.000  H
  C56      1.0000 0.65440  0.65990  0.29620  Biso   1.000  C
  C57      1.0000 0.93150  0.41320  0.28880  Biso   1.000  C
  C58      1.0000 0.92390  0.47130  0.32010  Biso   1.000  C
  H31      1.0000 0.89560  0.49500  0.31320  Biso   1.000  H
  C59      1.0000 0.05140  0.34740  0.35450  Biso   1.000  C
  N13      1.0000 0.77800  0.37850  0.09990  Biso   1.000  N
  N14      1.0000 0.77100  0.50970  0.24880  Biso   1.000  N
  N15      1.0000 0.90160  0.39180  0.23700  Biso   1.000  N
  O7       1.0000 0.68082  0.24730  0.94208  Biso   1.000  O
  O8       1.0000 0.62168  0.32540  0.91700  Biso   1.000  O
  O9       1.0000 0.61373  0.68120  0.28570  Biso   1.000  O
  O10      1.0000 0.68500  0.68200  0.33170  Biso   1.000  O
  O11      1.0000 0.05650  0.30120  0.32210  Biso   1.000  O
  O12      1.0000 0.08090  0.36400  0.39370  Biso   1.000  O
  C60      1.0000 0.00010  0.45910  0.37170  Biso   1.000  C
  H32      1.0000 0.02330  0.47470  0.39980  Biso   1.000  H
  C61      1.0000 0.00770  0.40110  0.34040  Biso   1.000  C
  C62      1.0000 0.97340  0.37810  0.29890  Biso   1.000  C
  H33      1.0000 0.97850  0.33890  0.27780  Biso   1.000  H
  C63      1.0000 0.95820  0.49420  0.36160  Biso   1.000  C
  H34      1.0000 0.95310  0.53340  0.38270  Biso   1.000  H
  C64      1.0000 0.66530  0.62180  0.25080  Biso   1.000  C
  C65      1.0000 0.71090  0.59660  0.26150  Biso   1.000  C
  H35      1.0000 0.73300  0.61970  0.28770  Biso   1.000  H
  C66      1.0000 0.71230  0.32710  0.03610  Biso   1.000  C
  H36      1.0000 0.72500  0.27800  0.03650  Biso   1.000  H
  C67      1.0000 0.72940  0.37930  0.07300  Biso   1.000  C
  C68      1.0000 0.69460  0.41190  0.09410  Biso   1.000  C
  H37      1.0000 0.70230  0.42980  0.12740  Biso   1.000  H
  C69      1.0000 0.64780  0.41650  0.06290  Biso   1.000  C
  H38      1.0000 0.62560  0.43730  0.07640  Biso   1.000  H
  C70      1.0000 0.63570  0.38850  0.01070  Biso   1.000  C
  H39      1.0000 0.60670  0.39240  0.98890  Biso   1.000  H
  C71      1.0000 0.67480  0.35240  0.99530  Biso   1.000  C
  C72      1.0000 0.71780  0.49650  0.24910  Biso   1.000  C
  C73      1.0000 0.68240  0.45770  0.21320  Biso   1.000  C
  H40      1.0000 0.68890  0.41530  0.19530  Biso   1.000  H
  C74      1.0000 0.63700  0.48340  0.20440  Biso   1.000  C
  H41      1.0000 0.61380  0.45790  0.18080  Biso   1.000  H
  C75      1.0000 0.62710  0.54790  0.23160  Biso   1.000  C
  H42      1.0000 0.59730  0.56480  0.22590  Biso   1.000  H
  C76      1.0000 0.92530  0.37990  0.29710  Biso   1.000  C
  C77      1.0000 0.91340  0.42960  0.33590  Biso   1.000  C
  H43      1.0000 0.88420  0.44810  0.33220  Biso   1.000  H
  N16      1.0000 0.77070  0.34410  0.11140  Biso   1.000  N
  N17      1.0000 0.76240  0.46980  0.26200  Biso   1.000  N
  N18      1.0000 0.89600  0.35680  0.24920  Biso   1.000  N
  C78      1.0000 0.99220  0.41880  0.39030  Biso   1.000  C
  H44      1.0000 0.01410  0.42880  0.42060  Biso   1.000  H
  C79      1.0000 0.00120  0.37160  0.35140  Biso   1.000  C
  C80      1.0000 0.96750  0.34700  0.30900  Biso   1.000  C
  H45      1.0000 0.97370  0.30780  0.28850  Biso   1.000  H
  C81      1.0000 0.95100  0.44730  0.38040  Biso   1.000  C
  H46      1.0000 0.94520  0.48190  0.40400  Biso   1.000  H
  C82      1.0000 0.66250  0.58670  0.26750  Biso   1.000  C
  C83      1.0000 0.70780  0.56100  0.27630  Biso   1.000  C
  H47      1.0000 0.73110  0.58640  0.29990  Biso   1.000  H
  C84      1.0000 0.71730  0.35130  0.02070  Biso   1.000  C
  H48      1.0000 0.73940  0.33320  0.00610  Biso   1.000  H
  Cd3      1.0000 0.62921  0.76297  0.35651  Biso   1.000  Cd
  C85      1.0000 0.71198  0.95090  0.27300  Biso   1.000  C
  N19      1.0000 0.73160  0.92620  0.32080  Biso   1.000  N
  C86      1.0000 0.70752  0.88370  0.34574  Biso   1.000  C
  N20      1.0000 0.66382  0.86600  0.32290  Biso   1.000  N
  C87      1.0000 0.64419  0.89060  0.27510  Biso   1.000  C
  N21      1.0000 0.66828  0.93310  0.25018  Biso   1.000  N
  C88      1.0000 0.76910  0.87940  0.42680  Biso   1.000  C
  C89      1.0000 0.79140  0.95260  0.42130  Biso   1.000  C
  H49      1.0000 0.78040  0.98430  0.39310  Biso   1.000  H
  C90      1.0000 0.83060  0.97350  0.46090  Biso   1.000  C
  H50      1.0000 0.84460  0.02110  0.46000  Biso   1.000  H
  C91      1.0000 0.84840  0.92110  0.50200  Biso   1.000  C
  H51      1.0000 0.87400  0.93470  0.52780  Biso   1.000  H
  C92      1.0000 0.82700  0.84790  0.50350  Biso   1.000  C
  C93      1.0000 0.84230  0.80180  0.55200  Biso   1.000  C
  C94      1.0000 0.77720  0.03640  0.26760  Biso   1.000  C
  C95      1.0000 0.81090  0.00140  0.30740  Biso   1.000  C
  H52      1.0000 0.80300  0.96180  0.32660  Biso   1.000  H
  C96      1.0000 0.85650  0.02650  0.31810  Biso   1.000  C
  H53      1.0000 0.87860  0.00350  0.34430  Biso   1.000  H
  C97      1.0000 0.86840  0.08670  0.28900  Biso   1.000  C
  H54      1.0000 0.89830  0.10320  0.29600  Biso   1.000  H
  C98      1.0000 0.84560  0.15990  0.20380  Biso   1.000  C
  C99      1.0000 0.56850  0.91320  0.21120  Biso   1.000  C
  C100     1.0000 0.57610  0.97130  0.17990  Biso   1.000  C
  H55      1.0000 0.60440  0.99500  0.18680  Biso   1.000  H
  C101     1.0000 0.44860  0.84740  0.14550  Biso   1.000  C
  N22      1.0000 0.72200  0.87850  0.40010  Biso   1.000  N
  N23      1.0000 0.72900  0.00970  0.25120  Biso   1.000  N
  N24      1.0000 0.59840  0.89180  0.26300  Biso   1.000  N
  O13      1.0000 0.81918  0.74730  0.55792  Biso   1.000  O
  O14      1.0000 0.87832  0.82540  0.58300  Biso   1.000  O
  O15      1.0000 0.88627  0.18120  0.21430  Biso   1.000  O
  O16      1.0000 0.81500  0.18200  0.16830  Biso   1.000  O
  O17      1.0000 0.44350  0.80120  0.17790  Biso   1.000  O
  O18      1.0000 0.41910  0.86400  0.10630  Biso   1.000  O
  C102     1.0000 0.49990  0.95910  0.12830  Biso   1.000  C
  H56      1.0000 0.47670  0.97470  0.10020  Biso   1.000  H
  C103     1.0000 0.49230  0.90110  0.15960  Biso   1.000  C
  C104     1.0000 0.52660  0.87810  0.20110  Biso   1.000  C
  H57      1.0000 0.52150  0.83890  0.22220  Biso   1.000  H
  C105     1.0000 0.54180  0.99420  0.13840  Biso   1.000  C
  H58      1.0000 0.54690  0.03340  0.11730  Biso   1.000  H
  C106     1.0000 0.83470  0.12180  0.24920  Biso   1.000  C
  C107     1.0000 0.78910  0.09660  0.23850  Biso   1.000  C
  H59      1.0000 0.76700  0.11970  0.21230  Biso   1.000  H
  C108     1.0000 0.78770  0.82710  0.46390  Biso   1.000  C
  H60      1.0000 0.77500  0.77800  0.46350  Biso   1.000  H
  C109     1.0000 0.77060  0.87930  0.42700  Biso   1.000  C
  C110     1.0000 0.80540  0.91190  0.40590  Biso   1.000  C
  H61      1.0000 0.79770  0.92980  0.37260  Biso   1.000  H
  C111     1.0000 0.85220  0.91650  0.43710  Biso   1.000  C
  H62      1.0000 0.87440  0.93730  0.42360  Biso   1.000  H
  C112     1.0000 0.86430  0.88850  0.48930  Biso   1.000  C
  H63      1.0000 0.89330  0.89240  0.51110  Biso   1.000  H
  C113     1.0000 0.82520  0.85240  0.50470  Biso   1.000  C
  C114     1.0000 0.78220  0.99650  0.25090  Biso   1.000  C
  C115     1.0000 0.81760  0.95770  0.28680  Biso   1.000  C
  H64      1.0000 0.81110  0.91530  0.30470  Biso   1.000  H
  C116     1.0000 0.86300  0.98340  0.29560  Biso   1.000  C
  H65      1.0000 0.88620  0.95790  0.31920  Biso   1.000  H
  C117     1.0000 0.87290  0.04790  0.26840  Biso   1.000  C
  H66      1.0000 0.90270  0.06480  0.27410  Biso   1.000  H
  C118     1.0000 0.57470  0.87990  0.20290  Biso   1.000  C
  C119     1.0000 0.58660  0.92960  0.16410  Biso   1.000  C
  H67      1.0000 0.61580  0.94810  0.16780  Biso   1.000  H
  N25      1.0000 0.72930  0.84410  0.38860  Biso   1.000  N
  N26      1.0000 0.73760  0.96980  0.23800  Biso   1.000  N
  N27      1.0000 0.60400  0.85680  0.25080  Biso   1.000  N
  C120     1.0000 0.50780  0.91880  0.10970  Biso   1.000  C
  H68      1.0000 0.48590  0.92880  0.07940  Biso   1.000  H
  C121     1.0000 0.49880  0.87160  0.14860  Biso   1.000  C
  C122     1.0000 0.53250  0.84700  0.19100  Biso   1.000  C
  H69      1.0000 0.52630  0.80780  0.21150  Biso   1.000  H
  C123     1.0000 0.54900  0.94730  0.11960  Biso   1.000  C
  H70      1.0000 0.55480  0.98190  0.09600  Biso   1.000  H
  C124     1.0000 0.83750  0.08670  0.23250  Biso   1.000  C
  C125     1.0000 0.79220  0.06100  0.22370  Biso   1.000  C
  H71      1.0000 0.76890  0.08640  0.20010  Biso   1.000  H
  C126     1.0000 0.78270  0.85130  0.47930  Biso   1.000  C
  H72      1.0000 0.76060  0.83320  0.49390  Biso   1.000  H
  Cd4      1.0000 0.12921  0.26297  0.35651  Biso   1.000  Cd
  C127     1.0000 0.21198  0.45090  0.27300  Biso   1.000  C
  N28      1.0000 0.23160  0.42620  0.32080  Biso   1.000  N
  C128     1.0000 0.20752  0.38370  0.34574  Biso   1.000  C
  N29      1.0000 0.16382  0.36600  0.32290  Biso   1.000  N
  C129     1.0000 0.14419  0.39060  0.27510  Biso   1.000  C
  N30      1.0000 0.16828  0.43310  0.25018  Biso   1.000  N
  C130     1.0000 0.26910  0.37940  0.42680  Biso   1.000  C
  C131     1.0000 0.29140  0.45260  0.42130  Biso   1.000  C
  H73      1.0000 0.28040  0.48430  0.39310  Biso   1.000  H
  C132     1.0000 0.33060  0.47350  0.46090  Biso   1.000  C
  H74      1.0000 0.34460  0.52110  0.46000  Biso   1.000  H
  C133     1.0000 0.34840  0.42110  0.50200  Biso   1.000  C
  H75      1.0000 0.37400  0.43470  0.52780  Biso   1.000  H
  C134     1.0000 0.32700  0.34790  0.50350  Biso   1.000  C
  C135     1.0000 0.34230  0.30180  0.55200  Biso   1.000  C
  C136     1.0000 0.27720  0.53640  0.26760  Biso   1.000  C
  C137     1.0000 0.31090  0.50140  0.30740  Biso   1.000  C
  H76      1.0000 0.30300  0.46180  0.32660  Biso   1.000  H
  C138     1.0000 0.35650  0.52650  0.31810  Biso   1.000  C
  H77      1.0000 0.37860  0.50350  0.34430  Biso   1.000  H
  C139     1.0000 0.36840  0.58670  0.28900  Biso   1.000  C
  H78      1.0000 0.39830  0.60320  0.29600  Biso   1.000  H
  C140     1.0000 0.34560  0.65990  0.20380  Biso   1.000  C
  C141     1.0000 0.06850  0.41320  0.21120  Biso   1.000  C
  C142     1.0000 0.07610  0.47130  0.17990  Biso   1.000  C
  H79      1.0000 0.10440  0.49500  0.18680  Biso   1.000  H
  C143     1.0000 0.94860  0.34740  0.14550  Biso   1.000  C
  N31      1.0000 0.22200  0.37850  0.40010  Biso   1.000  N
  N32      1.0000 0.22900  0.50970  0.25120  Biso   1.000  N
  N33      1.0000 0.09840  0.39180  0.26300  Biso   1.000  N
  O19      1.0000 0.31918  0.24730  0.55792  Biso   1.000  O
  O20      1.0000 0.37832  0.32540  0.58300  Biso   1.000  O
  O21      1.0000 0.38627  0.68120  0.21430  Biso   1.000  O
  O22      1.0000 0.31500  0.68200  0.16830  Biso   1.000  O
  O23      1.0000 0.94350  0.30120  0.17790  Biso   1.000  O
  O24      1.0000 0.91910  0.36400  0.10630  Biso   1.000  O
  C144     1.0000 0.99990  0.45910  0.12830  Biso   1.000  C
  H80      1.0000 0.97670  0.47470  0.10020  Biso   1.000  H
  C145     1.0000 0.99230  0.40110  0.15960  Biso   1.000  C
  C146     1.0000 0.02660  0.37810  0.20110  Biso   1.000  C
  H81      1.0000 0.02150  0.33890  0.22220  Biso   1.000  H
  C147     1.0000 0.04180  0.49420  0.13840  Biso   1.000  C
  H82      1.0000 0.04690  0.53340  0.11730  Biso   1.000  H
  C148     1.0000 0.33470  0.62180  0.24920  Biso   1.000  C
  C149     1.0000 0.28910  0.59660  0.23850  Biso   1.000  C
  H83      1.0000 0.26700  0.61970  0.21230  Biso   1.000  H
  C150     1.0000 0.28770  0.32710  0.46390  Biso   1.000  C
  H84      1.0000 0.27500  0.27800  0.46350  Biso   1.000  H
  C151     1.0000 0.27060  0.37930  0.42700  Biso   1.000  C
  C152     1.0000 0.30540  0.41190  0.40590  Biso   1.000  C
  H85      1.0000 0.29770  0.42980  0.37260  Biso   1.000  H
  C153     1.0000 0.35220  0.41650  0.43710  Biso   1.000  C
  H86      1.0000 0.37440  0.43730  0.42360  Biso   1.000  H
  C154     1.0000 0.36430  0.38850  0.48930  Biso   1.000  C
  H87      1.0000 0.39330  0.39240  0.51110  Biso   1.000  H
  C155     1.0000 0.32520  0.35240  0.50470  Biso   1.000  C
  C156     1.0000 0.28220  0.49650  0.25090  Biso   1.000  C
  C157     1.0000 0.31760  0.45770  0.28680  Biso   1.000  C
  H88      1.0000 0.31110  0.41530  0.30470  Biso   1.000  H
  C158     1.0000 0.36300  0.48340  0.29560  Biso   1.000  C
  H89      1.0000 0.38620  0.45790  0.31920  Biso   1.000  H
  C159     1.0000 0.37290  0.54790  0.26840  Biso   1.000  C
  H90      1.0000 0.40270  0.56480  0.27410  Biso   1.000  H
  C160     1.0000 0.07470  0.37990  0.20290  Biso   1.000  C
  C161     1.0000 0.08660  0.42960  0.16410  Biso   1.000  C
  H91      1.0000 0.11580  0.44810  0.16780  Biso   1.000  H
  N34      1.0000 0.22930  0.34410  0.38860  Biso   1.000  N
  N35      1.0000 0.23760  0.46980  0.23800  Biso   1.000  N
  N36      1.0000 0.10400  0.35680  0.25080  Biso   1.000  N
  C162     1.0000 0.00780  0.41880  0.10970  Biso   1.000  C
  H92      1.0000 0.98590  0.42880  0.07940  Biso   1.000  H
  C163     1.0000 0.99880  0.37160  0.14860  Biso   1.000  C
  C164     1.0000 0.03250  0.34700  0.19100  Biso   1.000  C
  H93      1.0000 0.02630  0.30780  0.21150  Biso   1.000  H
  C165     1.0000 0.04900  0.44730  0.11960  Biso   1.000  C
  H94      1.0000 0.05480  0.48190  0.09600  Biso   1.000  H
  C166     1.0000 0.33750  0.58670  0.23250  Biso   1.000  C
  C167     1.0000 0.29220  0.56100  0.22370  Biso   1.000  C
  H95      1.0000 0.26890  0.58640  0.20010  Biso   1.000  H
  C168     1.0000 0.28270  0.35130  0.47930  Biso   1.000  C
  H96      1.0000 0.26060  0.33320  0.49390  Biso   1.000  H
  Cd5      1.0000 0.62921  0.23703  0.85651  Biso   1.000  Cd
  C169     1.0000 0.71198  0.04910  0.77300  Biso   1.000  C
  N37      1.0000 0.73160  0.07380  0.82080  Biso   1.000  N
  C170     1.0000 0.70752  0.11630  0.84574  Biso   1.000  C
  N38      1.0000 0.66382  0.13400  0.82290  Biso   1.000  N
  C171     1.0000 0.64419  0.10940  0.77510  Biso   1.000  C
  N39      1.0000 0.66828  0.06690  0.75018  Biso   1.000  N
  C172     1.0000 0.76910  0.12060  0.92680  Biso   1.000  C
  C173     1.0000 0.79140  0.04740  0.92130  Biso   1.000  C
  H97      1.0000 0.78040  0.01570  0.89310  Biso   1.000  H
  C174     1.0000 0.83060  0.02650  0.96090  Biso   1.000  C
  H98      1.0000 0.84460  0.97890  0.96000  Biso   1.000  H
  C175     1.0000 0.84840  0.07890  0.00200  Biso   1.000  C
  H99      1.0000 0.87400  0.06530  0.02780  Biso   1.000  H
  C176     1.0000 0.82700  0.15210  0.00350  Biso   1.000  C
  C177     1.0000 0.84230  0.19820  0.05200  Biso   1.000  C
  C178     1.0000 0.77720  0.96360  0.76760  Biso   1.000  C
  C179     1.0000 0.81090  0.99860  0.80740  Biso   1.000  C
  H100     1.0000 0.80300  0.03820  0.82660  Biso   1.000  H
  C180     1.0000 0.85650  0.97350  0.81810  Biso   1.000  C
  H101     1.0000 0.87860  0.99650  0.84430  Biso   1.000  H
  C181     1.0000 0.86840  0.91330  0.78900  Biso   1.000  C
  H102     1.0000 0.89830  0.89680  0.79600  Biso   1.000  H
  C182     1.0000 0.84560  0.84010  0.70380  Biso   1.000  C
  C183     1.0000 0.56850  0.08680  0.71120  Biso   1.000  C
  C184     1.0000 0.57610  0.02870  0.67990  Biso   1.000  C
  H103     1.0000 0.60440  0.00500  0.68680  Biso   1.000  H
  C185     1.0000 0.44860  0.15260  0.64550  Biso   1.000  C
  N40      1.0000 0.72200  0.12150  0.90010  Biso   1.000  N
  N41      1.0000 0.72900  0.99030  0.75120  Biso   1.000  N
  N42      1.0000 0.59840  0.10820  0.76300  Biso   1.000  N
  O25      1.0000 0.81918  0.25270  0.05792  Biso   1.000  O
  O26      1.0000 0.87832  0.17460  0.08300  Biso   1.000  O
  O27      1.0000 0.88627  0.81880  0.71430  Biso   1.000  O
  O28      1.0000 0.81500  0.81800  0.66830  Biso   1.000  O
  O29      1.0000 0.44350  0.19880  0.67790  Biso   1.000  O
  O30      1.0000 0.41910  0.13600  0.60630  Biso   1.000  O
  C186     1.0000 0.49990  0.04090  0.62830  Biso   1.000  C
  H104     1.0000 0.47670  0.02530  0.60020  Biso   1.000  H
  C187     1.0000 0.49230  0.09890  0.65960  Biso   1.000  C
  C188     1.0000 0.52660  0.12190  0.70110  Biso   1.000  C
  H105     1.0000 0.52150  0.16110  0.72220  Biso   1.000  H
  C189     1.0000 0.54180  0.00580  0.63840  Biso   1.000  C
  H106     1.0000 0.54690  0.96660  0.61730  Biso   1.000  H
  C190     1.0000 0.83470  0.87820  0.74920  Biso   1.000  C
  C191     1.0000 0.78910  0.90340  0.73850  Biso   1.000  C
  H107     1.0000 0.76700  0.88030  0.71230  Biso   1.000  H
  C192     1.0000 0.78770  0.17290  0.96390  Biso   1.000  C
  H108     1.0000 0.77500  0.22200  0.96350  Biso   1.000  H
  C193     1.0000 0.77060  0.12070  0.92700  Biso   1.000  C
  C194     1.0000 0.80540  0.08810  0.90590  Biso   1.000  C
  H109     1.0000 0.79770  0.07020  0.87260  Biso   1.000  H
  C195     1.0000 0.85220  0.08350  0.93710  Biso   1.000  C
  H110     1.0000 0.87440  0.06270  0.92360  Biso   1.000  H
  C196     1.0000 0.86430  0.11150  0.98930  Biso   1.000  C
  H111     1.0000 0.89330  0.10760  0.01110  Biso   1.000  H
  C197     1.0000 0.82520  0.14760  0.00470  Biso   1.000  C
  C198     1.0000 0.78220  0.00350  0.75090  Biso   1.000  C
  C199     1.0000 0.81760  0.04230  0.78680  Biso   1.000  C
  H112     1.0000 0.81110  0.08470  0.80470  Biso   1.000  H
  C200     1.0000 0.86300  0.01660  0.79560  Biso   1.000  C
  H113     1.0000 0.88620  0.04210  0.81920  Biso   1.000  H
  C201     1.0000 0.87290  0.95210  0.76840  Biso   1.000  C
  H114     1.0000 0.90270  0.93520  0.77410  Biso   1.000  H
  C202     1.0000 0.57470  0.12010  0.70290  Biso   1.000  C
  C203     1.0000 0.58660  0.07040  0.66410  Biso   1.000  C
  H115     1.0000 0.61580  0.05190  0.66780  Biso   1.000  H
  N43      1.0000 0.72930  0.15590  0.88860  Biso   1.000  N
  N44      1.0000 0.73760  0.03020  0.73800  Biso   1.000  N
  N45      1.0000 0.60400  0.14320  0.75080  Biso   1.000  N
  C204     1.0000 0.50780  0.08120  0.60970  Biso   1.000  C
  H116     1.0000 0.48590  0.07120  0.57940  Biso   1.000  H
  C205     1.0000 0.49880  0.12840  0.64860  Biso   1.000  C
  C206     1.0000 0.53250  0.15300  0.69100  Biso   1.000  C
  H117     1.0000 0.52630  0.19220  0.71150  Biso   1.000  H
  C207     1.0000 0.54900  0.05270  0.61960  Biso   1.000  C
  H118     1.0000 0.55480  0.01810  0.59600  Biso   1.000  H
  C208     1.0000 0.83750  0.91330  0.73250  Biso   1.000  C
  C209     1.0000 0.79220  0.93900  0.72370  Biso   1.000  C
  H119     1.0000 0.76890  0.91360  0.70010  Biso   1.000  H
  C210     1.0000 0.78270  0.14870  0.97930  Biso   1.000  C
  H120     1.0000 0.76060  0.16680  0.99390  Biso   1.000  H
  Cd6      1.0000 0.12921  0.73703  0.85651  Biso   1.000  Cd
  C211     1.0000 0.21198  0.54910  0.77300  Biso   1.000  C
  N46      1.0000 0.23160  0.57380  0.82080  Biso   1.000  N
  C212     1.0000 0.20752  0.61630  0.84574  Biso   1.000  C
  N47      1.0000 0.16382  0.63400  0.82290  Biso   1.000  N
  C213     1.0000 0.14419  0.60940  0.77510  Biso   1.000  C
  N48      1.0000 0.16828  0.56690  0.75018  Biso   1.000  N
  C214     1.0000 0.26910  0.62060  0.92680  Biso   1.000  C
  C215     1.0000 0.29140  0.54740  0.92130  Biso   1.000  C
  H121     1.0000 0.28040  0.51570  0.89310  Biso   1.000  H
  C216     1.0000 0.33060  0.52650  0.96090  Biso   1.000  C
  H122     1.0000 0.34460  0.47890  0.96000  Biso   1.000  H
  C217     1.0000 0.34840  0.57890  0.00200  Biso   1.000  C
  H123     1.0000 0.37400  0.56530  0.02780  Biso   1.000  H
  C218     1.0000 0.32700  0.65210  0.00350  Biso   1.000  C
  C219     1.0000 0.34230  0.69820  0.05200  Biso   1.000  C
  C220     1.0000 0.27720  0.46360  0.76760  Biso   1.000  C
  C221     1.0000 0.31090  0.49860  0.80740  Biso   1.000  C
  H124     1.0000 0.30300  0.53820  0.82660  Biso   1.000  H
  C222     1.0000 0.35650  0.47350  0.81810  Biso   1.000  C
  H125     1.0000 0.37860  0.49650  0.84430  Biso   1.000  H
  C223     1.0000 0.36840  0.41330  0.78900  Biso   1.000  C
  H126     1.0000 0.39830  0.39680  0.79600  Biso   1.000  H
  C224     1.0000 0.34560  0.34010  0.70380  Biso   1.000  C
  C225     1.0000 0.06850  0.58680  0.71120  Biso   1.000  C
  C226     1.0000 0.07610  0.52870  0.67990  Biso   1.000  C
  H127     1.0000 0.10440  0.50500  0.68680  Biso   1.000  H
  C227     1.0000 0.94860  0.65260  0.64550  Biso   1.000  C
  N49      1.0000 0.22200  0.62150  0.90010  Biso   1.000  N
  N50      1.0000 0.22900  0.49030  0.75120  Biso   1.000  N
  N51      1.0000 0.09840  0.60820  0.76300  Biso   1.000  N
  O31      1.0000 0.31918  0.75270  0.05792  Biso   1.000  O
  O32      1.0000 0.37832  0.67460  0.08300  Biso   1.000  O
  O33      1.0000 0.38627  0.31880  0.71430  Biso   1.000  O
  O34      1.0000 0.31500  0.31800  0.66830  Biso   1.000  O
  O35      1.0000 0.94350  0.69880  0.67790  Biso   1.000  O
  O36      1.0000 0.91910  0.63600  0.60630  Biso   1.000  O
  C228     1.0000 0.99990  0.54090  0.62830  Biso   1.000  C
  H128     1.0000 0.97670  0.52530  0.60020  Biso   1.000  H
  C229     1.0000 0.99230  0.59890  0.65960  Biso   1.000  C
  C230     1.0000 0.02660  0.62190  0.70110  Biso   1.000  C
  H129     1.0000 0.02150  0.66110  0.72220  Biso   1.000  H
  C231     1.0000 0.04180  0.50580  0.63840  Biso   1.000  C
  H130     1.0000 0.04690  0.46660  0.61730  Biso   1.000  H
  C232     1.0000 0.33470  0.37820  0.74920  Biso   1.000  C
  C233     1.0000 0.28910  0.40340  0.73850  Biso   1.000  C
  H131     1.0000 0.26700  0.38030  0.71230  Biso   1.000  H
  C234     1.0000 0.28770  0.67290  0.96390  Biso   1.000  C
  H132     1.0000 0.27500  0.72200  0.96350  Biso   1.000  H
  C235     1.0000 0.27060  0.62070  0.92700  Biso   1.000  C
  C236     1.0000 0.30540  0.58810  0.90590  Biso   1.000  C
  H133     1.0000 0.29770  0.57020  0.87260  Biso   1.000  H
  C237     1.0000 0.35220  0.58350  0.93710  Biso   1.000  C
  H134     1.0000 0.37440  0.56270  0.92360  Biso   1.000  H
  C238     1.0000 0.36430  0.61150  0.98930  Biso   1.000  C
  H135     1.0000 0.39330  0.60760  0.01110  Biso   1.000  H
  C239     1.0000 0.32520  0.64760  0.00470  Biso   1.000  C
  C240     1.0000 0.28220  0.50350  0.75090  Biso   1.000  C
  C241     1.0000 0.31760  0.54230  0.78680  Biso   1.000  C
  H136     1.0000 0.31110  0.58470  0.80470  Biso   1.000  H
  C242     1.0000 0.36300  0.51660  0.79560  Biso   1.000  C
  H137     1.0000 0.38620  0.54210  0.81920  Biso   1.000  H
  C243     1.0000 0.37290  0.45210  0.76840  Biso   1.000  C
  H138     1.0000 0.40270  0.43520  0.77410  Biso   1.000  H
  C244     1.0000 0.07470  0.62010  0.70290  Biso   1.000  C
  C245     1.0000 0.08660  0.57040  0.66410  Biso   1.000  C
  H139     1.0000 0.11580  0.55190  0.66780  Biso   1.000  H
  N52      1.0000 0.22930  0.65590  0.88860  Biso   1.000  N
  N53      1.0000 0.23760  0.53020  0.73800  Biso   1.000  N
  N54      1.0000 0.10400  0.64320  0.75080  Biso   1.000  N
  C246     1.0000 0.00780  0.58120  0.60970  Biso   1.000  C
  H140     1.0000 0.98590  0.57120  0.57940  Biso   1.000  H
  C247     1.0000 0.99880  0.62840  0.64860  Biso   1.000  C
  C248     1.0000 0.03250  0.65300  0.69100  Biso   1.000  C
  H141     1.0000 0.02630  0.69220  0.71150  Biso   1.000  H
  C249     1.0000 0.04900  0.55270  0.61960  Biso   1.000  C
  H142     1.0000 0.05480  0.51810  0.59600  Biso   1.000  H
  C250     1.0000 0.33750  0.41330  0.73250  Biso   1.000  C
  C251     1.0000 0.29220  0.43900  0.72370  Biso   1.000  C
  H143     1.0000 0.26890  0.41360  0.70010  Biso   1.000  H
  C252     1.0000 0.28270  0.64870  0.97930  Biso   1.000  C
  H144     1.0000 0.26060  0.66680  0.99390  Biso   1.000  H
  Cd7      1.0000 0.37079  0.23703  0.64349  Biso   1.000  Cd
  C253     1.0000 0.28802  0.04910  0.72700  Biso   1.000  C
  N55      1.0000 0.26840  0.07380  0.67920  Biso   1.000  N
  C254     1.0000 0.29248  0.11630  0.65426  Biso   1.000  C
  N56      1.0000 0.33618  0.13400  0.67710  Biso   1.000  N
  C255     1.0000 0.35581  0.10940  0.72490  Biso   1.000  C
  N57      1.0000 0.33172  0.06690  0.74982  Biso   1.000  N
  C256     1.0000 0.23090  0.12060  0.57320  Biso   1.000  C
  C257     1.0000 0.20860  0.04740  0.57870  Biso   1.000  C
  H145     1.0000 0.21960  0.01570  0.60690  Biso   1.000  H
  C258     1.0000 0.16940  0.02650  0.53910  Biso   1.000  C
  H146     1.0000 0.15540  0.97890  0.54000  Biso   1.000  H
  C259     1.0000 0.15160  0.07890  0.49800  Biso   1.000  C
  H147     1.0000 0.12600  0.06530  0.47220  Biso   1.000  H
  C260     1.0000 0.17300  0.15210  0.49650  Biso   1.000  C
  C261     1.0000 0.15770  0.19820  0.44800  Biso   1.000  C
  C262     1.0000 0.22280  0.96360  0.73240  Biso   1.000  C
  C263     1.0000 0.18910  0.99860  0.69260  Biso   1.000  C
  H148     1.0000 0.19700  0.03820  0.67340  Biso   1.000  H
  C264     1.0000 0.14350  0.97350  0.68190  Biso   1.000  C
  H149     1.0000 0.12140  0.99650  0.65570  Biso   1.000  H
  C265     1.0000 0.13160  0.91330  0.71100  Biso   1.000  C
  H150     1.0000 0.10170  0.89680  0.70400  Biso   1.000  H
  C266     1.0000 0.15440  0.84010  0.79620  Biso   1.000  C
  C267     1.0000 0.43150  0.08680  0.78880  Biso   1.000  C
  C268     1.0000 0.42390  0.02870  0.82010  Biso   1.000  C
  H151     1.0000 0.39560  0.00500  0.81320  Biso   1.000  H
  C269     1.0000 0.55140  0.15260  0.85450  Biso   1.000  C
  N58      1.0000 0.27800  0.12150  0.59990  Biso   1.000  N
  N59      1.0000 0.27100  0.99030  0.74880  Biso   1.000  N
  N60      1.0000 0.40160  0.10820  0.73700  Biso   1.000  N
  O37      1.0000 0.18082  0.25270  0.44208  Biso   1.000  O
  O38      1.0000 0.12168  0.17460  0.41700  Biso   1.000  O
  O39      1.0000 0.11373  0.81880  0.78570  Biso   1.000  O
  O40      1.0000 0.18500  0.81800  0.83170  Biso   1.000  O
  O41      1.0000 0.55650  0.19880  0.82210  Biso   1.000  O
  O42      1.0000 0.58090  0.13600  0.89370  Biso   1.000  O
  C270     1.0000 0.50010  0.04090  0.87170  Biso   1.000  C
  H152     1.0000 0.52330  0.02530  0.89980  Biso   1.000  H
  C271     1.0000 0.50770  0.09890  0.84040  Biso   1.000  C
  C272     1.0000 0.47340  0.12190  0.79890  Biso   1.000  C
  H153     1.0000 0.47850  0.16110  0.77780  Biso   1.000  H
  C273     1.0000 0.45820  0.00580  0.86160  Biso   1.000  C
  H154     1.0000 0.45310  0.96660  0.88270  Biso   1.000  H
  C274     1.0000 0.16530  0.87820  0.75080  Biso   1.000  C
  C275     1.0000 0.21090  0.90340  0.76150  Biso   1.000  C
  H155     1.0000 0.23300  0.88030  0.78770  Biso   1.000  H
  C276     1.0000 0.21230  0.17290  0.53610  Biso   1.000  C
  H156     1.0000 0.22500  0.22200  0.53650  Biso   1.000  H
  C277     1.0000 0.22940  0.12070  0.57300  Biso   1.000  C
  C278     1.0000 0.19460  0.08810  0.59410  Biso   1.000  C
  H157     1.0000 0.20230  0.07020  0.62740  Biso   1.000  H
  C279     1.0000 0.14780  0.08350  0.56290  Biso   1.000  C
  H158     1.0000 0.12560  0.06270  0.57640  Biso   1.000  H
  C280     1.0000 0.13570  0.11150  0.51070  Biso   1.000  C
  H159     1.0000 0.10670  0.10760  0.48890  Biso   1.000  H
  C281     1.0000 0.17480  0.14760  0.49530  Biso   1.000  C
  C282     1.0000 0.21780  0.00350  0.74910  Biso   1.000  C
  C283     1.0000 0.18240  0.04230  0.71320  Biso   1.000  C
  H160     1.0000 0.18890  0.08470  0.69530  Biso   1.000  H
  C284     1.0000 0.13700  0.01660  0.70440  Biso   1.000  C
  H161     1.0000 0.11380  0.04210  0.68080  Biso   1.000  H
  C285     1.0000 0.12710  0.95210  0.73160  Biso   1.000  C
  H162     1.0000 0.09730  0.93520  0.72590  Biso   1.000  H
  C286     1.0000 0.42530  0.12010  0.79710  Biso   1.000  C
  C287     1.0000 0.41340  0.07040  0.83590  Biso   1.000  C
  H163     1.0000 0.38420  0.05190  0.83220  Biso   1.000  H
  N61      1.0000 0.27070  0.15590  0.61140  Biso   1.000  N
  N62      1.0000 0.26240  0.03020  0.76200  Biso   1.000  N
  N63      1.0000 0.39600  0.14320  0.74920  Biso   1.000  N
  C288     1.0000 0.49220  0.08120  0.89030  Biso   1.000  C
  H164     1.0000 0.51410  0.07120  0.92060  Biso   1.000  H
  C289     1.0000 0.50120  0.12840  0.85140  Biso   1.000  C
  C290     1.0000 0.46750  0.15300  0.80900  Biso   1.000  C
  H165     1.0000 0.47370  0.19220  0.78850  Biso   1.000  H
  C291     1.0000 0.45100  0.05270  0.88040  Biso   1.000  C
  H166     1.0000 0.44520  0.01810  0.90400  Biso   1.000  H
  C292     1.0000 0.16250  0.91330  0.76750  Biso   1.000  C
  C293     1.0000 0.20780  0.93900  0.77630  Biso   1.000  C
  H167     1.0000 0.23110  0.91360  0.79990  Biso   1.000  H
  C294     1.0000 0.21730  0.14870  0.52070  Biso   1.000  C
  H168     1.0000 0.23940  0.16680  0.50610  Biso   1.000  H
  Cd8      1.0000 0.87079  0.73703  0.64349  Biso   1.000  Cd
  C295     1.0000 0.78802  0.54910  0.72700  Biso   1.000  C
  N64      1.0000 0.76840  0.57380  0.67920  Biso   1.000  N
  C296     1.0000 0.79248  0.61630  0.65426  Biso   1.000  C
  N65      1.0000 0.83618  0.63400  0.67710  Biso   1.000  N
  C297     1.0000 0.85581  0.60940  0.72490  Biso   1.000  C
  N66      1.0000 0.83172  0.56690  0.74982  Biso   1.000  N
  C298     1.0000 0.73090  0.62060  0.57320  Biso   1.000  C
  C299     1.0000 0.70860  0.54740  0.57870  Biso   1.000  C
  H169     1.0000 0.71960  0.51570  0.60690  Biso   1.000  H
  C300     1.0000 0.66940  0.52650  0.53910  Biso   1.000  C
  H170     1.0000 0.65540  0.47890  0.54000  Biso   1.000  H
  C301     1.0000 0.65160  0.57890  0.49800  Biso   1.000  C
  H171     1.0000 0.62600  0.56530  0.47220  Biso   1.000  H
  C302     1.0000 0.67300  0.65210  0.49650  Biso   1.000  C
  C303     1.0000 0.65770  0.69820  0.44800  Biso   1.000  C
  C304     1.0000 0.72280  0.46360  0.73240  Biso   1.000  C
  C305     1.0000 0.68910  0.49860  0.69260  Biso   1.000  C
  H172     1.0000 0.69700  0.53820  0.67340  Biso   1.000  H
  C306     1.0000 0.64350  0.47350  0.68190  Biso   1.000  C
  H173     1.0000 0.62140  0.49650  0.65570  Biso   1.000  H
  C307     1.0000 0.63160  0.41330  0.71100  Biso   1.000  C
  H174     1.0000 0.60170  0.39680  0.70400  Biso   1.000  H
  C308     1.0000 0.65440  0.34010  0.79620  Biso   1.000  C
  C309     1.0000 0.93150  0.58680  0.78880  Biso   1.000  C
  C310     1.0000 0.92390  0.52870  0.82010  Biso   1.000  C
  H175     1.0000 0.89560  0.50500  0.81320  Biso   1.000  H
  C311     1.0000 0.05140  0.65260  0.85450  Biso   1.000  C
  N67      1.0000 0.77800  0.62150  0.59990  Biso   1.000  N
  N68      1.0000 0.77100  0.49030  0.74880  Biso   1.000  N
  N69      1.0000 0.90160  0.60820  0.73700  Biso   1.000  N
  O43      1.0000 0.68082  0.75270  0.44208  Biso   1.000  O
  O44      1.0000 0.62168  0.67460  0.41700  Biso   1.000  O
  O45      1.0000 0.61373  0.31880  0.78570  Biso   1.000  O
  O46      1.0000 0.68500  0.31800  0.83170  Biso   1.000  O
  O47      1.0000 0.05650  0.69880  0.82210  Biso   1.000  O
  O48      1.0000 0.08090  0.63600  0.89370  Biso   1.000  O
  C312     1.0000 0.00010  0.54090  0.87170  Biso   1.000  C
  H176     1.0000 0.02330  0.52530  0.89980  Biso   1.000  H
  C313     1.0000 0.00770  0.59890  0.84040  Biso   1.000  C
  C314     1.0000 0.97340  0.62190  0.79890  Biso   1.000  C
  H177     1.0000 0.97850  0.66110  0.77780  Biso   1.000  H
  C315     1.0000 0.95820  0.50580  0.86160  Biso   1.000  C
  H178     1.0000 0.95310  0.46660  0.88270  Biso   1.000  H
  C316     1.0000 0.66530  0.37820  0.75080  Biso   1.000  C
  C317     1.0000 0.71090  0.40340  0.76150  Biso   1.000  C
  H179     1.0000 0.73300  0.38030  0.78770  Biso   1.000  H
  C318     1.0000 0.71230  0.67290  0.53610  Biso   1.000  C
  H180     1.0000 0.72500  0.72200  0.53650  Biso   1.000  H
  C319     1.0000 0.72940  0.62070  0.57300  Biso   1.000  C
  C320     1.0000 0.69460  0.58810  0.59410  Biso   1.000  C
  H181     1.0000 0.70230  0.57020  0.62740  Biso   1.000  H
  C321     1.0000 0.64780  0.58350  0.56290  Biso   1.000  C
  H182     1.0000 0.62560  0.56270  0.57640  Biso   1.000  H
  C322     1.0000 0.63570  0.61150  0.51070  Biso   1.000  C
  H183     1.0000 0.60670  0.60760  0.48890  Biso   1.000  H
  C323     1.0000 0.67480  0.64760  0.49530  Biso   1.000  C
  C324     1.0000 0.71780  0.50350  0.74910  Biso   1.000  C
  C325     1.0000 0.68240  0.54230  0.71320  Biso   1.000  C
  H184     1.0000 0.68890  0.58470  0.69530  Biso   1.000  H
  C326     1.0000 0.63700  0.51660  0.70440  Biso   1.000  C
  H185     1.0000 0.61380  0.54210  0.68080  Biso   1.000  H
  C327     1.0000 0.62710  0.45210  0.73160  Biso   1.000  C
  H186     1.0000 0.59730  0.43520  0.72590  Biso   1.000  H
  C328     1.0000 0.92530  0.62010  0.79710  Biso   1.000  C
  C329     1.0000 0.91340  0.57040  0.83590  Biso   1.000  C
  H187     1.0000 0.88420  0.55190  0.83220  Biso   1.000  H
  N70      1.0000 0.77070  0.65590  0.61140  Biso   1.000  N
  N71      1.0000 0.76240  0.53020  0.76200  Biso   1.000  N
  N72      1.0000 0.89600  0.64320  0.74920  Biso   1.000  N
  C330     1.0000 0.99220  0.58120  0.89030  Biso   1.000  C
  H188     1.0000 0.01410  0.57120  0.92060  Biso   1.000  H
  C331     1.0000 0.00120  0.62840  0.85140  Biso   1.000  C
  C332     1.0000 0.96750  0.65300  0.80900  Biso   1.000  C
  H189     1.0000 0.97370  0.69220  0.78850  Biso   1.000  H
  C333     1.0000 0.95100  0.55270  0.88040  Biso   1.000  C
  H190     1.0000 0.94520  0.51810  0.90400  Biso   1.000  H
  C334     1.0000 0.66250  0.41330  0.76750  Biso   1.000  C
  C335     1.0000 0.70780  0.43900  0.77630  Biso   1.000  C
  H191     1.0000 0.73110  0.41360  0.79990  Biso   1.000  H
  C336     1.0000 0.71730  0.64870  0.52070  Biso   1.000  C
  H192     1.0000 0.73940  0.66680  0.50610  Biso   1.000  H
