data_image0
_cell_length_a       15.456
_cell_length_b       33.898
_cell_length_c       17.976
_cell_angle_alpha    90
_cell_angle_beta     96.038
_cell_angle_gamma    90

_symmetry_space_group_name_H-M    "P 1"
_symmetry_int_tables_number       1

loop_
  _symmetry_equiv_pos_as_xyz
  'x, y, z'

loop_
  _atom_site_label
  _atom_site_occupancy
  _atom_site_fract_x
  _atom_site_fract_y
  _atom_site_fract_z
  _atom_site_thermal_displace_type
  _atom_site_B_iso_or_equiv
  _atom_site_type_symbol
  C1       1.0000 0.69500  0.14510  0.65200  Biso   1.000  C
  C2       1.0000 0.66810  0.10670  0.61700  Biso   1.000  C
  C3       1.0000 0.67720  0.09090  0.54690  Biso   1.000  C
  C4       1.0000 0.65800  0.05140  0.53250  Biso   1.000  C
  H1       1.0000 0.66410  0.04090  0.48550  Biso   1.000  H
  C5       1.0000 0.62980  0.02770  0.58820  Biso   1.000  C
  C6       1.0000 0.62100  0.04340  0.65830  Biso   1.000  C
  H2       1.0000 0.60190  0.02760  0.69560  Biso   1.000  H
  C7       1.0000 0.63990  0.08290  0.67270  Biso   1.000  C
  H3       1.0000 0.63380  0.09350  0.71960  Biso   1.000  H
  C8       1.0000 0.89730  0.24120  0.62940  Biso   1.000  C
  C9       1.0000 0.98450  0.24650  0.60210  Biso   1.000  C
  C10      1.0000 0.04920  0.22290  0.62640  Biso   1.000  C
  H4       1.0000 0.04130  0.20440  0.66330  Biso   1.000  H
  C11      1.0000 0.12960  0.22530  0.59730  Biso   1.000  C
  H5       1.0000 0.17520  0.20910  0.61650  Biso   1.000  H
  C12      1.0000 0.14210  0.25140  0.54020  Biso   1.000  C
  C13      1.0000 0.07440  0.27670  0.51720  Biso   1.000  C
  H6       1.0000 0.08120  0.29550  0.48050  Biso   1.000  H
  C14      1.0000 0.99570  0.27420  0.54880  Biso   1.000  C
  H7       1.0000 0.95060  0.29150  0.53330  Biso   1.000  H
  C15      1.0000 0.22090  0.25530  0.49980  Biso   1.000  C
  C16      1.0000 0.56060  0.27430  0.61510  Biso   1.000  C
  H8       1.0000 0.52990  0.25950  0.64720  Biso   1.000  H
  C17      1.0000 0.66000  0.29220  0.55030  Biso   1.000  C
  H9       1.0000 0.71080  0.29370  0.52700  Biso   1.000  H
  C18      1.0000 0.58510  0.35120  0.49570  Biso   1.000  C
  H10      1.0000 0.53640  0.34740  0.45770  Biso   1.000  H
  H11      1.0000 0.63690  0.35470  0.47030  Biso   1.000  H
  C19      1.0000 0.56990  0.38780  0.53850  Biso   1.000  C
  C20      1.0000 0.63580  0.40420  0.58480  Biso   1.000  C
  C21      1.0000 0.62870  0.43990  0.62400  Biso   1.000  C
  C22      1.0000 0.54630  0.45700  0.61660  Biso   1.000  C
  H12      1.0000 0.53760  0.47970  0.64410  Biso   1.000  H
  C23      1.0000 0.47770  0.44210  0.57090  Biso   1.000  C
  C24      1.0000 0.49140  0.40700  0.53350  Biso   1.000  C
  C25      1.0000 0.38910  0.46050  0.56480  Biso   1.000  C
  H13      1.0000 0.35980  0.45330  0.51570  Biso   1.000  H
  C26      1.0000 0.36420  0.36690  0.52030  Biso   1.000  C
  H14      1.0000 0.39260  0.35590  0.56640  Biso   1.000  H
  H15      1.0000 0.34510  0.34520  0.48740  Biso   1.000  H
  C27      1.0000 0.33700  0.44140  0.62410  Biso   1.000  C
  C28      1.0000 0.33690  0.45740  0.69370  Biso   1.000  C
  H16      1.0000 0.36560  0.48120  0.70460  Biso   1.000  H
  C29      1.0000 0.29500  0.43890  0.74830  Biso   1.000  C
  C30      1.0000 0.25340  0.40370  0.73140  Biso   1.000  C
  C31      1.0000 0.25070  0.38710  0.66180  Biso   1.000  C
  C32      1.0000 0.29410  0.40660  0.60750  Biso   1.000  C
  C33      1.0000 0.70230  0.45690  0.67240  Biso   1.000  C
  H17      1.0000 0.75510  0.44770  0.65210  Biso   1.000  H
  C34      1.0000 0.26190  0.36370  0.84050  Biso   1.000  C
  H18      1.0000 0.31490  0.35510  0.82090  Biso   1.000  H
  H19      1.0000 0.23030  0.34020  0.85270  Biso   1.000  H
  N1       1.0000 0.59520  0.31690  0.54090  Biso   1.000  N
  N2       1.0000 0.52940  0.30620  0.58190  Biso   1.000  N
  N3       1.0000 0.64140  0.26450  0.59890  Biso   1.000  N
  O1       1.0000 0.70100  0.16590  0.71350  Biso   1.000  O
  O2       1.0000 0.71400  0.16640  0.59600  Biso   1.000  O
  O3       1.0000 0.83920  0.26550  0.60890  Biso   1.000  O
  O4       1.0000 0.88340  0.21130  0.66590  Biso   1.000  O
  O5       1.0000 0.71520  0.38510  0.59280  Biso   1.000  O
  O6       1.0000 0.42390  0.39062  0.48590  Biso   1.000  O
  O7       1.0000 0.28930  0.38998  0.53660  Biso   1.000  O
  O8       1.0000 0.21140  0.38440  0.78440  Biso   1.000  O
  Cd1      1.0000 0.73753  0.22121  0.66190  Biso   1.000  Cd
  C35      1.0000 0.19890  0.35040  0.64160  Biso   1.000  C
  H20      1.0000 0.14150  0.35300  0.65850  Biso   1.000  H
  H21      1.0000 0.19160  0.34740  0.58770  Biso   1.000  H
  C36      1.0000 0.33440  0.27200  0.70140  Biso   1.000  C
  H22      1.0000 0.38560  0.25750  0.70280  Biso   1.000  H
  C37      1.0000 0.20920  0.28910  0.72020  Biso   1.000  C
  H23      1.0000 0.15410  0.28980  0.73650  Biso   1.000  H
  N4       1.0000 0.24090  0.31590  0.67500  Biso   1.000  N
  N5       1.0000 0.32120  0.30510  0.66230  Biso   1.000  N
  N6       1.0000 0.26860  0.26170  0.73790  Biso   1.000  N
  C38      1.0000 0.59200  0.98670  0.58300  Biso   1.000  C
  C39      1.0000 0.58400  0.96350  0.52200  Biso   1.000  C
  C40      1.0000 0.52700  0.92730  0.52210  Biso   1.000  C
  C41      1.0000 0.44510  0.91840  0.54270  Biso   1.000  C
  H24      1.0000 0.42350  0.93200  0.58160  Biso   1.000  H
  C42      1.0000 0.42750  0.86850  0.44680  Biso   1.000  C
  C43      1.0000 0.50940  0.87750  0.42630  Biso   1.000  C
  H25      1.0000 0.53100  0.86380  0.38730  Biso   1.000  H
  C44      1.0000 0.55920  0.90680  0.46390  Biso   1.000  C
  H26      1.0000 0.61410  0.91280  0.45010  Biso   1.000  H
  C45      1.0000 0.39530  0.88900  0.50500  Biso   1.000  C
  C46      1.0000 0.70600  0.50160  0.67040  Biso   1.000  C
  H27      1.0000 0.75540  0.51060  0.70280  Biso   1.000  H
  H28      1.0000 0.65380  0.51230  0.68700  Biso   1.000  H
  H29      1.0000 0.71120  0.51020  0.62020  Biso   1.000  H
  C47      1.0000 0.37650  0.83480  0.40950  Biso   1.000  C
  O9       1.0000 0.40110  0.81800  0.35420  Biso   1.000  O
  C48      1.0000 0.39070  0.50590  0.56880  Biso   1.000  C
  H30      1.0000 0.33220  0.51570  0.56520  Biso   1.000  H
  H31      1.0000 0.41960  0.51610  0.52820  Biso   1.000  H
  H32      1.0000 0.42140  0.51400  0.61540  Biso   1.000  H
  O10      1.0000 0.29400  0.82860  0.42930  Biso   1.000  O
  C49      1.0000 0.19500  0.64510  0.65200  Biso   1.000  C
  C50      1.0000 0.16810  0.60670  0.61700  Biso   1.000  C
  C51      1.0000 0.17720  0.59090  0.54690  Biso   1.000  C
  C52      1.0000 0.15800  0.55140  0.53250  Biso   1.000  C
  H33      1.0000 0.16410  0.54090  0.48550  Biso   1.000  H
  C53      1.0000 0.12980  0.52770  0.58820  Biso   1.000  C
  C54      1.0000 0.12100  0.54340  0.65830  Biso   1.000  C
  H34      1.0000 0.10190  0.52760  0.69560  Biso   1.000  H
  C55      1.0000 0.13990  0.58290  0.67270  Biso   1.000  C
  H35      1.0000 0.13380  0.59350  0.71960  Biso   1.000  H
  C56      1.0000 0.39730  0.74120  0.62940  Biso   1.000  C
  C57      1.0000 0.48450  0.74650  0.60210  Biso   1.000  C
  C58      1.0000 0.54920  0.72290  0.62640  Biso   1.000  C
  H36      1.0000 0.54130  0.70440  0.66330  Biso   1.000  H
  C59      1.0000 0.62960  0.72530  0.59730  Biso   1.000  C
  H37      1.0000 0.67520  0.70910  0.61650  Biso   1.000  H
  C60      1.0000 0.64210  0.75140  0.54020  Biso   1.000  C
  C61      1.0000 0.57440  0.77670  0.51720  Biso   1.000  C
  H38      1.0000 0.58120  0.79550  0.48050  Biso   1.000  H
  C62      1.0000 0.49570  0.77420  0.54880  Biso   1.000  C
  H39      1.0000 0.45060  0.79150  0.53330  Biso   1.000  H
  C63      1.0000 0.72090  0.75530  0.49980  Biso   1.000  C
  C64      1.0000 0.06060  0.77430  0.61510  Biso   1.000  C
  H40      1.0000 0.02990  0.75950  0.64720  Biso   1.000  H
  C65      1.0000 0.16000  0.79220  0.55030  Biso   1.000  C
  H41      1.0000 0.21080  0.79370  0.52700  Biso   1.000  H
  C66      1.0000 0.08510  0.85120  0.49570  Biso   1.000  C
  H42      1.0000 0.03640  0.84740  0.45770  Biso   1.000  H
  H43      1.0000 0.13690  0.85470  0.47030  Biso   1.000  H
  C67      1.0000 0.06990  0.88780  0.53850  Biso   1.000  C
  C68      1.0000 0.13580  0.90420  0.58480  Biso   1.000  C
  C69      1.0000 0.12870  0.93990  0.62400  Biso   1.000  C
  C70      1.0000 0.04630  0.95700  0.61660  Biso   1.000  C
  H44      1.0000 0.03760  0.97970  0.64410  Biso   1.000  H
  C71      1.0000 0.97770  0.94210  0.57090  Biso   1.000  C
  C72      1.0000 0.99140  0.90700  0.53350  Biso   1.000  C
  C73      1.0000 0.88910  0.96050  0.56480  Biso   1.000  C
  H45      1.0000 0.85980  0.95330  0.51570  Biso   1.000  H
  C74      1.0000 0.86420  0.86690  0.52030  Biso   1.000  C
  H46      1.0000 0.89260  0.85590  0.56640  Biso   1.000  H
  H47      1.0000 0.84510  0.84520  0.48740  Biso   1.000  H
  C75      1.0000 0.83700  0.94140  0.62410  Biso   1.000  C
  C76      1.0000 0.83690  0.95740  0.69370  Biso   1.000  C
  H48      1.0000 0.86560  0.98120  0.70460  Biso   1.000  H
  C77      1.0000 0.79500  0.93890  0.74830  Biso   1.000  C
  C78      1.0000 0.75340  0.90370  0.73140  Biso   1.000  C
  C79      1.0000 0.75070  0.88710  0.66180  Biso   1.000  C
  C80      1.0000 0.79410  0.90660  0.60750  Biso   1.000  C
  C81      1.0000 0.20230  0.95690  0.67240  Biso   1.000  C
  H49      1.0000 0.25510  0.94770  0.65210  Biso   1.000  H
  C82      1.0000 0.76190  0.86370  0.84050  Biso   1.000  C
  H50      1.0000 0.81490  0.85510  0.82090  Biso   1.000  H
  H51      1.0000 0.73030  0.84020  0.85270  Biso   1.000  H
  N7       1.0000 0.09520  0.81690  0.54090  Biso   1.000  N
  N8       1.0000 0.02940  0.80620  0.58190  Biso   1.000  N
  N9       1.0000 0.14140  0.76450  0.59890  Biso   1.000  N
  O11      1.0000 0.20100  0.66590  0.71350  Biso   1.000  O
  O12      1.0000 0.21400  0.66640  0.59600  Biso   1.000  O
  O13      1.0000 0.33920  0.76550  0.60890  Biso   1.000  O
  O14      1.0000 0.38340  0.71130  0.66590  Biso   1.000  O
  O15      1.0000 0.21520  0.88510  0.59280  Biso   1.000  O
  O16      1.0000 0.92390  0.89062  0.48590  Biso   1.000  O
  O17      1.0000 0.78930  0.88998  0.53660  Biso   1.000  O
  O18      1.0000 0.71140  0.88440  0.78440  Biso   1.000  O
  Cd2      1.0000 0.23753  0.72121  0.66190  Biso   1.000  Cd
  C83      1.0000 0.69890  0.85040  0.64160  Biso   1.000  C
  H52      1.0000 0.64150  0.85300  0.65850  Biso   1.000  H
  H53      1.0000 0.69160  0.84740  0.58770  Biso   1.000  H
  C84      1.0000 0.83440  0.77200  0.70140  Biso   1.000  C
  H54      1.0000 0.88560  0.75750  0.70280  Biso   1.000  H
  C85      1.0000 0.70920  0.78910  0.72020  Biso   1.000  C
  H55      1.0000 0.65410  0.78980  0.73650  Biso   1.000  H
  N10      1.0000 0.74090  0.81590  0.67500  Biso   1.000  N
  N11      1.0000 0.82120  0.80510  0.66230  Biso   1.000  N
  N12      1.0000 0.76860  0.76170  0.73790  Biso   1.000  N
  C86      1.0000 0.09200  0.48670  0.58300  Biso   1.000  C
  C87      1.0000 0.08400  0.46350  0.52200  Biso   1.000  C
  C88      1.0000 0.02700  0.42730  0.52210  Biso   1.000  C
  C89      1.0000 0.94510  0.41840  0.54270  Biso   1.000  C
  H56      1.0000 0.92350  0.43200  0.58160  Biso   1.000  H
  C90      1.0000 0.92750  0.36850  0.44680  Biso   1.000  C
  C91      1.0000 0.00940  0.37750  0.42630  Biso   1.000  C
  H57      1.0000 0.03100  0.36380  0.38730  Biso   1.000  H
  C92      1.0000 0.05920  0.40680  0.46390  Biso   1.000  C
  H58      1.0000 0.11410  0.41280  0.45010  Biso   1.000  H
  C93      1.0000 0.89530  0.38900  0.50500  Biso   1.000  C
  C94      1.0000 0.20600  0.00160  0.67040  Biso   1.000  C
  H59      1.0000 0.25540  0.01060  0.70280  Biso   1.000  H
  H60      1.0000 0.15380  0.01230  0.68700  Biso   1.000  H
  H61      1.0000 0.21120  0.01020  0.62020  Biso   1.000  H
  C95      1.0000 0.87650  0.33480  0.40950  Biso   1.000  C
  O19      1.0000 0.90110  0.31800  0.35420  Biso   1.000  O
  C96      1.0000 0.89070  0.00590  0.56880  Biso   1.000  C
  H62      1.0000 0.83220  0.01570  0.56520  Biso   1.000  H
  H63      1.0000 0.91960  0.01610  0.52820  Biso   1.000  H
  H64      1.0000 0.92140  0.01400  0.61540  Biso   1.000  H
  O20      1.0000 0.79400  0.32860  0.42930  Biso   1.000  O
  C97      1.0000 0.30500  0.14510  0.84800  Biso   1.000  C
  C98      1.0000 0.33190  0.10670  0.88300  Biso   1.000  C
  C99      1.0000 0.32280  0.09090  0.95310  Biso   1.000  C
  C100     1.0000 0.34200  0.05140  0.96750  Biso   1.000  C
  H65      1.0000 0.33590  0.04090  0.01450  Biso   1.000  H
  C101     1.0000 0.37020  0.02770  0.91180  Biso   1.000  C
  C102     1.0000 0.37900  0.04340  0.84170  Biso   1.000  C
  H66      1.0000 0.39810  0.02760  0.80440  Biso   1.000  H
  C103     1.0000 0.36010  0.08290  0.82730  Biso   1.000  C
  H67      1.0000 0.36620  0.09350  0.78040  Biso   1.000  H
  C104     1.0000 0.10270  0.24120  0.87060  Biso   1.000  C
  C105     1.0000 0.01550  0.24650  0.89790  Biso   1.000  C
  C106     1.0000 0.95080  0.22290  0.87360  Biso   1.000  C
  H68      1.0000 0.95870  0.20440  0.83670  Biso   1.000  H
  C107     1.0000 0.87040  0.22530  0.90270  Biso   1.000  C
  H69      1.0000 0.82480  0.20910  0.88350  Biso   1.000  H
  C108     1.0000 0.85790  0.25140  0.95980  Biso   1.000  C
  C109     1.0000 0.92560  0.27670  0.98280  Biso   1.000  C
  H70      1.0000 0.91880  0.29550  0.01950  Biso   1.000  H
  C110     1.0000 0.00430  0.27420  0.95120  Biso   1.000  C
  H71      1.0000 0.04940  0.29150  0.96670  Biso   1.000  H
  C111     1.0000 0.77910  0.25530  0.00020  Biso   1.000  C
  C112     1.0000 0.43940  0.27430  0.88490  Biso   1.000  C
  H72      1.0000 0.47010  0.25950  0.85280  Biso   1.000  H
  C113     1.0000 0.34000  0.29220  0.94970  Biso   1.000  C
  H73      1.0000 0.28920  0.29370  0.97300  Biso   1.000  H
  C114     1.0000 0.41490  0.35120  0.00430  Biso   1.000  C
  H74      1.0000 0.46360  0.34740  0.04230  Biso   1.000  H
  H75      1.0000 0.36310  0.35470  0.02970  Biso   1.000  H
  C115     1.0000 0.43010  0.38780  0.96150  Biso   1.000  C
  C116     1.0000 0.36420  0.40420  0.91520  Biso   1.000  C
  C117     1.0000 0.37130  0.43990  0.87600  Biso   1.000  C
  C118     1.0000 0.45370  0.45700  0.88340  Biso   1.000  C
  H76      1.0000 0.46240  0.47970  0.85590  Biso   1.000  H
  C119     1.0000 0.52230  0.44210  0.92910  Biso   1.000  C
  C120     1.0000 0.50860  0.40700  0.96650  Biso   1.000  C
  C121     1.0000 0.61090  0.46050  0.93520  Biso   1.000  C
  H77      1.0000 0.64020  0.45330  0.98430  Biso   1.000  H
  C122     1.0000 0.63580  0.36690  0.97970  Biso   1.000  C
  H78      1.0000 0.60740  0.35590  0.93360  Biso   1.000  H
  H79      1.0000 0.65490  0.34520  0.01260  Biso   1.000  H
  C123     1.0000 0.66300  0.44140  0.87590  Biso   1.000  C
  C124     1.0000 0.66310  0.45740  0.80630  Biso   1.000  C
  H80      1.0000 0.63440  0.48120  0.79540  Biso   1.000  H
  C125     1.0000 0.70500  0.43890  0.75170  Biso   1.000  C
  C126     1.0000 0.74660  0.40370  0.76860  Biso   1.000  C
  C127     1.0000 0.74930  0.38710  0.83820  Biso   1.000  C
  C128     1.0000 0.70590  0.40660  0.89250  Biso   1.000  C
  C129     1.0000 0.29770  0.45690  0.82760  Biso   1.000  C
  H81      1.0000 0.24490  0.44770  0.84790  Biso   1.000  H
  C130     1.0000 0.73810  0.36370  0.65950  Biso   1.000  C
  H82      1.0000 0.68510  0.35510  0.67910  Biso   1.000  H
  H83      1.0000 0.76970  0.34020  0.64730  Biso   1.000  H
  N13      1.0000 0.40480  0.31690  0.95910  Biso   1.000  N
  N14      1.0000 0.47060  0.30620  0.91810  Biso   1.000  N
  N15      1.0000 0.35860  0.26450  0.90110  Biso   1.000  N
  O21      1.0000 0.29900  0.16590  0.78650  Biso   1.000  O
  O22      1.0000 0.28600  0.16640  0.90400  Biso   1.000  O
  O23      1.0000 0.16080  0.26550  0.89110  Biso   1.000  O
  O24      1.0000 0.11660  0.21130  0.83410  Biso   1.000  O
  O25      1.0000 0.28480  0.38510  0.90720  Biso   1.000  O
  O26      1.0000 0.57610  0.39062  0.01410  Biso   1.000  O
  O27      1.0000 0.71070  0.38998  0.96340  Biso   1.000  O
  O28      1.0000 0.78860  0.38440  0.71560  Biso   1.000  O
  Cd3      1.0000 0.26247  0.22121  0.83810  Biso   1.000  Cd
  C131     1.0000 0.80110  0.35040  0.85840  Biso   1.000  C
  H84      1.0000 0.85850  0.35300  0.84150  Biso   1.000  H
  H85      1.0000 0.80840  0.34740  0.91230  Biso   1.000  H
  C132     1.0000 0.66560  0.27200  0.79860  Biso   1.000  C
  H86      1.0000 0.61440  0.25750  0.79720  Biso   1.000  H
  C133     1.0000 0.79080  0.28910  0.77980  Biso   1.000  C
  H87      1.0000 0.84590  0.28980  0.76350  Biso   1.000  H
  N16      1.0000 0.75910  0.31590  0.82500  Biso   1.000  N
  N17      1.0000 0.67880  0.30510  0.83770  Biso   1.000  N
  N18      1.0000 0.73140  0.26170  0.76210  Biso   1.000  N
  C134     1.0000 0.40800  0.98670  0.91700  Biso   1.000  C
  C135     1.0000 0.41600  0.96350  0.97800  Biso   1.000  C
  C136     1.0000 0.47300  0.92730  0.97790  Biso   1.000  C
  C137     1.0000 0.55490  0.91840  0.95730  Biso   1.000  C
  H88      1.0000 0.57650  0.93200  0.91840  Biso   1.000  H
  C138     1.0000 0.57250  0.86850  0.05320  Biso   1.000  C
  C139     1.0000 0.49060  0.87750  0.07370  Biso   1.000  C
  H89      1.0000 0.46900  0.86380  0.11270  Biso   1.000  H
  C140     1.0000 0.44080  0.90680  0.03610  Biso   1.000  C
  H90      1.0000 0.38590  0.91280  0.04990  Biso   1.000  H
  C141     1.0000 0.60470  0.88900  0.99500  Biso   1.000  C
  C142     1.0000 0.29400  0.50160  0.82960  Biso   1.000  C
  H91      1.0000 0.24460  0.51060  0.79720  Biso   1.000  H
  H92      1.0000 0.34620  0.51230  0.81300  Biso   1.000  H
  H93      1.0000 0.28880  0.51020  0.87980  Biso   1.000  H
  C143     1.0000 0.62350  0.83480  0.09050  Biso   1.000  C
  O29      1.0000 0.59890  0.81800  0.14580  Biso   1.000  O
  C144     1.0000 0.60930  0.50590  0.93120  Biso   1.000  C
  H94      1.0000 0.66780  0.51570  0.93480  Biso   1.000  H
  H95      1.0000 0.58040  0.51610  0.97180  Biso   1.000  H
  H96      1.0000 0.57860  0.51400  0.88460  Biso   1.000  H
  O30      1.0000 0.70600  0.82860  0.07070  Biso   1.000  O
  C145     1.0000 0.80500  0.64510  0.84800  Biso   1.000  C
  C146     1.0000 0.83190  0.60670  0.88300  Biso   1.000  C
  C147     1.0000 0.82280  0.59090  0.95310  Biso   1.000  C
  C148     1.0000 0.84200  0.55140  0.96750  Biso   1.000  C
  H97      1.0000 0.83590  0.54090  0.01450  Biso   1.000  H
  C149     1.0000 0.87020  0.52770  0.91180  Biso   1.000  C
  C150     1.0000 0.87900  0.54340  0.84170  Biso   1.000  C
  H98      1.0000 0.89810  0.52760  0.80440  Biso   1.000  H
  C151     1.0000 0.86010  0.58290  0.82730  Biso   1.000  C
  H99      1.0000 0.86620  0.59350  0.78040  Biso   1.000  H
  C152     1.0000 0.60270  0.74120  0.87060  Biso   1.000  C
  C153     1.0000 0.51550  0.74650  0.89790  Biso   1.000  C
  C154     1.0000 0.45080  0.72290  0.87360  Biso   1.000  C
  H100     1.0000 0.45870  0.70440  0.83670  Biso   1.000  H
  C155     1.0000 0.37040  0.72530  0.90270  Biso   1.000  C
  H101     1.0000 0.32480  0.70910  0.88350  Biso   1.000  H
  C156     1.0000 0.35790  0.75140  0.95980  Biso   1.000  C
  C157     1.0000 0.42560  0.77670  0.98280  Biso   1.000  C
  H102     1.0000 0.41880  0.79550  0.01950  Biso   1.000  H
  C158     1.0000 0.50430  0.77420  0.95120  Biso   1.000  C
  H103     1.0000 0.54940  0.79150  0.96670  Biso   1.000  H
  C159     1.0000 0.27910  0.75530  0.00020  Biso   1.000  C
  C160     1.0000 0.93940  0.77430  0.88490  Biso   1.000  C
  H104     1.0000 0.97010  0.75950  0.85280  Biso   1.000  H
  C161     1.0000 0.84000  0.79220  0.94970  Biso   1.000  C
  H105     1.0000 0.78920  0.79370  0.97300  Biso   1.000  H
  C162     1.0000 0.91490  0.85120  0.00430  Biso   1.000  C
  H106     1.0000 0.96360  0.84740  0.04230  Biso   1.000  H
  H107     1.0000 0.86310  0.85470  0.02970  Biso   1.000  H
  C163     1.0000 0.93010  0.88780  0.96150  Biso   1.000  C
  C164     1.0000 0.86420  0.90420  0.91520  Biso   1.000  C
  C165     1.0000 0.87130  0.93990  0.87600  Biso   1.000  C
  C166     1.0000 0.95370  0.95700  0.88340  Biso   1.000  C
  H108     1.0000 0.96240  0.97970  0.85590  Biso   1.000  H
  C167     1.0000 0.02230  0.94210  0.92910  Biso   1.000  C
  C168     1.0000 0.00860  0.90700  0.96650  Biso   1.000  C
  C169     1.0000 0.11090  0.96050  0.93520  Biso   1.000  C
  H109     1.0000 0.14020  0.95330  0.98430  Biso   1.000  H
  C170     1.0000 0.13580  0.86690  0.97970  Biso   1.000  C
  H110     1.0000 0.10740  0.85590  0.93360  Biso   1.000  H
  H111     1.0000 0.15490  0.84520  0.01260  Biso   1.000  H
  C171     1.0000 0.16300  0.94140  0.87590  Biso   1.000  C
  C172     1.0000 0.16310  0.95740  0.80630  Biso   1.000  C
  H112     1.0000 0.13440  0.98120  0.79540  Biso   1.000  H
  C173     1.0000 0.20500  0.93890  0.75170  Biso   1.000  C
  C174     1.0000 0.24660  0.90370  0.76860  Biso   1.000  C
  C175     1.0000 0.24930  0.88710  0.83820  Biso   1.000  C
  C176     1.0000 0.20590  0.90660  0.89250  Biso   1.000  C
  C177     1.0000 0.79770  0.95690  0.82760  Biso   1.000  C
  H113     1.0000 0.74490  0.94770  0.84790  Biso   1.000  H
  C178     1.0000 0.23810  0.86370  0.65950  Biso   1.000  C
  H114     1.0000 0.18510  0.85510  0.67910  Biso   1.000  H
  H115     1.0000 0.26970  0.84020  0.64730  Biso   1.000  H
  N19      1.0000 0.90480  0.81690  0.95910  Biso   1.000  N
  N20      1.0000 0.97060  0.80620  0.91810  Biso   1.000  N
  N21      1.0000 0.85860  0.76450  0.90110  Biso   1.000  N
  O31      1.0000 0.79900  0.66590  0.78650  Biso   1.000  O
  O32      1.0000 0.78600  0.66640  0.90400  Biso   1.000  O
  O33      1.0000 0.66080  0.76550  0.89110  Biso   1.000  O
  O34      1.0000 0.61660  0.71130  0.83410  Biso   1.000  O
  O35      1.0000 0.78480  0.88510  0.90720  Biso   1.000  O
  O36      1.0000 0.07610  0.89062  0.01410  Biso   1.000  O
  O37      1.0000 0.21070  0.88998  0.96340  Biso   1.000  O
  O38      1.0000 0.28860  0.88440  0.71560  Biso   1.000  O
  Cd4      1.0000 0.76247  0.72121  0.83810  Biso   1.000  Cd
  C179     1.0000 0.30110  0.85040  0.85840  Biso   1.000  C
  H116     1.0000 0.35850  0.85300  0.84150  Biso   1.000  H
  H117     1.0000 0.30840  0.84740  0.91230  Biso   1.000  H
  C180     1.0000 0.16560  0.77200  0.79860  Biso   1.000  C
  H118     1.0000 0.11440  0.75750  0.79720  Biso   1.000  H
  C181     1.0000 0.29080  0.78910  0.77980  Biso   1.000  C
  H119     1.0000 0.34590  0.78980  0.76350  Biso   1.000  H
  N22      1.0000 0.25910  0.81590  0.82500  Biso   1.000  N
  N23      1.0000 0.17880  0.80510  0.83770  Biso   1.000  N
  N24      1.0000 0.23140  0.76170  0.76210  Biso   1.000  N
  C182     1.0000 0.90800  0.48670  0.91700  Biso   1.000  C
  C183     1.0000 0.91600  0.46350  0.97800  Biso   1.000  C
  C184     1.0000 0.97300  0.42730  0.97790  Biso   1.000  C
  C185     1.0000 0.05490  0.41840  0.95730  Biso   1.000  C
  H120     1.0000 0.07650  0.43200  0.91840  Biso   1.000  H
  C186     1.0000 0.07250  0.36850  0.05320  Biso   1.000  C
  C187     1.0000 0.99060  0.37750  0.07370  Biso   1.000  C
  H121     1.0000 0.96900  0.36380  0.11270  Biso   1.000  H
  C188     1.0000 0.94080  0.40680  0.03610  Biso   1.000  C
  H122     1.0000 0.88590  0.41280  0.04990  Biso   1.000  H
  C189     1.0000 0.10470  0.38900  0.99500  Biso   1.000  C
  C190     1.0000 0.79400  0.00160  0.82960  Biso   1.000  C
  H123     1.0000 0.74460  0.01060  0.79720  Biso   1.000  H
  H124     1.0000 0.84620  0.01230  0.81300  Biso   1.000  H
  H125     1.0000 0.78880  0.01020  0.87980  Biso   1.000  H
  C191     1.0000 0.12350  0.33480  0.09050  Biso   1.000  C
  O39      1.0000 0.09890  0.31800  0.14580  Biso   1.000  O
  C192     1.0000 0.10930  0.00590  0.93120  Biso   1.000  C
  H126     1.0000 0.16780  0.01570  0.93480  Biso   1.000  H
  H127     1.0000 0.08040  0.01610  0.97180  Biso   1.000  H
  H128     1.0000 0.07860  0.01400  0.88460  Biso   1.000  H
  O40      1.0000 0.20600  0.32860  0.07070  Biso   1.000  O
  C193     1.0000 0.30500  0.85490  0.34800  Biso   1.000  C
  C194     1.0000 0.33190  0.89330  0.38300  Biso   1.000  C
  C195     1.0000 0.32280  0.90910  0.45310  Biso   1.000  C
  C196     1.0000 0.34200  0.94860  0.46750  Biso   1.000  C
  H129     1.0000 0.33590  0.95910  0.51450  Biso   1.000  H
  C197     1.0000 0.37020  0.97230  0.41180  Biso   1.000  C
  C198     1.0000 0.37900  0.95660  0.34170  Biso   1.000  C
  H130     1.0000 0.39810  0.97240  0.30440  Biso   1.000  H
  C199     1.0000 0.36010  0.91710  0.32730  Biso   1.000  C
  H131     1.0000 0.36620  0.90650  0.28040  Biso   1.000  H
  C200     1.0000 0.10270  0.75880  0.37060  Biso   1.000  C
  C201     1.0000 0.01550  0.75350  0.39790  Biso   1.000  C
  C202     1.0000 0.95080  0.77710  0.37360  Biso   1.000  C
  H132     1.0000 0.95870  0.79560  0.33670  Biso   1.000  H
  C203     1.0000 0.87040  0.77470  0.40270  Biso   1.000  C
  H133     1.0000 0.82480  0.79090  0.38350  Biso   1.000  H
  C204     1.0000 0.85790  0.74860  0.45980  Biso   1.000  C
  C205     1.0000 0.92560  0.72330  0.48280  Biso   1.000  C
  H134     1.0000 0.91880  0.70450  0.51950  Biso   1.000  H
  C206     1.0000 0.00430  0.72580  0.45120  Biso   1.000  C
  H135     1.0000 0.04940  0.70850  0.46670  Biso   1.000  H
  C207     1.0000 0.77910  0.74470  0.50020  Biso   1.000  C
  C208     1.0000 0.43940  0.72570  0.38490  Biso   1.000  C
  H136     1.0000 0.47010  0.74050  0.35280  Biso   1.000  H
  C209     1.0000 0.34000  0.70780  0.44970  Biso   1.000  C
  H137     1.0000 0.28920  0.70630  0.47300  Biso   1.000  H
  C210     1.0000 0.41490  0.64880  0.50430  Biso   1.000  C
  H138     1.0000 0.46360  0.65260  0.54230  Biso   1.000  H
  H139     1.0000 0.36310  0.64530  0.52970  Biso   1.000  H
  C211     1.0000 0.43010  0.61220  0.46150  Biso   1.000  C
  C212     1.0000 0.36420  0.59580  0.41520  Biso   1.000  C
  C213     1.0000 0.37130  0.56010  0.37600  Biso   1.000  C
  C214     1.0000 0.45370  0.54300  0.38340  Biso   1.000  C
  H140     1.0000 0.46240  0.52030  0.35590  Biso   1.000  H
  C215     1.0000 0.52230  0.55790  0.42910  Biso   1.000  C
  C216     1.0000 0.50860  0.59300  0.46650  Biso   1.000  C
  C217     1.0000 0.61090  0.53950  0.43520  Biso   1.000  C
  H141     1.0000 0.64020  0.54670  0.48430  Biso   1.000  H
  C218     1.0000 0.63580  0.63310  0.47970  Biso   1.000  C
  H142     1.0000 0.60740  0.64410  0.43360  Biso   1.000  H
  H143     1.0000 0.65490  0.65480  0.51260  Biso   1.000  H
  C219     1.0000 0.66300  0.55860  0.37590  Biso   1.000  C
  C220     1.0000 0.66310  0.54260  0.30630  Biso   1.000  C
  H144     1.0000 0.63440  0.51880  0.29540  Biso   1.000  H
  C221     1.0000 0.70500  0.56110  0.25170  Biso   1.000  C
  C222     1.0000 0.74660  0.59630  0.26860  Biso   1.000  C
  C223     1.0000 0.74930  0.61290  0.33820  Biso   1.000  C
  C224     1.0000 0.70590  0.59340  0.39250  Biso   1.000  C
  C225     1.0000 0.29770  0.54310  0.32760  Biso   1.000  C
  H145     1.0000 0.24490  0.55230  0.34790  Biso   1.000  H
  C226     1.0000 0.73810  0.63630  0.15950  Biso   1.000  C
  H146     1.0000 0.68510  0.64490  0.17910  Biso   1.000  H
  H147     1.0000 0.76970  0.65980  0.14730  Biso   1.000  H
  N25      1.0000 0.40480  0.68310  0.45910  Biso   1.000  N
  N26      1.0000 0.47060  0.69380  0.41810  Biso   1.000  N
  N27      1.0000 0.35860  0.73550  0.40110  Biso   1.000  N
  O41      1.0000 0.29900  0.83410  0.28650  Biso   1.000  O
  O42      1.0000 0.28600  0.83360  0.40400  Biso   1.000  O
  O43      1.0000 0.16080  0.73450  0.39110  Biso   1.000  O
  O44      1.0000 0.11660  0.78870  0.33410  Biso   1.000  O
  O45      1.0000 0.28480  0.61490  0.40720  Biso   1.000  O
  O46      1.0000 0.57610  0.60938  0.51410  Biso   1.000  O
  O47      1.0000 0.71070  0.61002  0.46340  Biso   1.000  O
  O48      1.0000 0.78860  0.61560  0.21560  Biso   1.000  O
  Cd5      1.0000 0.26247  0.77879  0.33810  Biso   1.000  Cd
  C227     1.0000 0.80110  0.64960  0.35840  Biso   1.000  C
  H148     1.0000 0.85850  0.64700  0.34150  Biso   1.000  H
  H149     1.0000 0.80840  0.65260  0.41230  Biso   1.000  H
  C228     1.0000 0.66560  0.72800  0.29860  Biso   1.000  C
  H150     1.0000 0.61440  0.74250  0.29720  Biso   1.000  H
  C229     1.0000 0.79080  0.71090  0.27980  Biso   1.000  C
  H151     1.0000 0.84590  0.71020  0.26350  Biso   1.000  H
  N28      1.0000 0.75910  0.68410  0.32500  Biso   1.000  N
  N29      1.0000 0.67880  0.69490  0.33770  Biso   1.000  N
  N30      1.0000 0.73140  0.73830  0.26210  Biso   1.000  N
  C230     1.0000 0.40800  0.01330  0.41700  Biso   1.000  C
  C231     1.0000 0.41600  0.03650  0.47800  Biso   1.000  C
  C232     1.0000 0.47300  0.07270  0.47790  Biso   1.000  C
  C233     1.0000 0.55490  0.08160  0.45730  Biso   1.000  C
  H152     1.0000 0.57650  0.06800  0.41840  Biso   1.000  H
  C234     1.0000 0.57250  0.13150  0.55320  Biso   1.000  C
  C235     1.0000 0.49060  0.12250  0.57370  Biso   1.000  C
  H153     1.0000 0.46900  0.13620  0.61270  Biso   1.000  H
  C236     1.0000 0.44080  0.09320  0.53610  Biso   1.000  C
  H154     1.0000 0.38590  0.08720  0.54990  Biso   1.000  H
  C237     1.0000 0.60470  0.11100  0.49500  Biso   1.000  C
  C238     1.0000 0.29400  0.49840  0.32960  Biso   1.000  C
  H155     1.0000 0.24460  0.48940  0.29720  Biso   1.000  H
  H156     1.0000 0.34620  0.48770  0.31300  Biso   1.000  H
  H157     1.0000 0.28880  0.48980  0.37980  Biso   1.000  H
  C239     1.0000 0.62350  0.16520  0.59050  Biso   1.000  C
  O49      1.0000 0.59890  0.18200  0.64580  Biso   1.000  O
  C240     1.0000 0.60930  0.49410  0.43120  Biso   1.000  C
  H158     1.0000 0.66780  0.48430  0.43480  Biso   1.000  H
  H159     1.0000 0.58040  0.48390  0.47180  Biso   1.000  H
  H160     1.0000 0.57860  0.48600  0.38460  Biso   1.000  H
  O50      1.0000 0.70600  0.17140  0.57070  Biso   1.000  O
  C241     1.0000 0.80500  0.35490  0.34800  Biso   1.000  C
  C242     1.0000 0.83190  0.39330  0.38300  Biso   1.000  C
  C243     1.0000 0.82280  0.40910  0.45310  Biso   1.000  C
  C244     1.0000 0.84200  0.44860  0.46750  Biso   1.000  C
  H161     1.0000 0.83590  0.45910  0.51450  Biso   1.000  H
  C245     1.0000 0.87020  0.47230  0.41180  Biso   1.000  C
  C246     1.0000 0.87900  0.45660  0.34170  Biso   1.000  C
  H162     1.0000 0.89810  0.47240  0.30440  Biso   1.000  H
  C247     1.0000 0.86010  0.41710  0.32730  Biso   1.000  C
  H163     1.0000 0.86620  0.40650  0.28040  Biso   1.000  H
  C248     1.0000 0.60270  0.25880  0.37060  Biso   1.000  C
  C249     1.0000 0.51550  0.25350  0.39790  Biso   1.000  C
  C250     1.0000 0.45080  0.27710  0.37360  Biso   1.000  C
  H164     1.0000 0.45870  0.29560  0.33670  Biso   1.000  H
  C251     1.0000 0.37040  0.27470  0.40270  Biso   1.000  C
  H165     1.0000 0.32480  0.29090  0.38350  Biso   1.000  H
  C252     1.0000 0.35790  0.24860  0.45980  Biso   1.000  C
  C253     1.0000 0.42560  0.22330  0.48280  Biso   1.000  C
  H166     1.0000 0.41880  0.20450  0.51950  Biso   1.000  H
  C254     1.0000 0.50430  0.22580  0.45120  Biso   1.000  C
  H167     1.0000 0.54940  0.20850  0.46670  Biso   1.000  H
  C255     1.0000 0.27910  0.24470  0.50020  Biso   1.000  C
  C256     1.0000 0.93940  0.22570  0.38490  Biso   1.000  C
  H168     1.0000 0.97010  0.24050  0.35280  Biso   1.000  H
  C257     1.0000 0.84000  0.20780  0.44970  Biso   1.000  C
  H169     1.0000 0.78920  0.20630  0.47300  Biso   1.000  H
  C258     1.0000 0.91490  0.14880  0.50430  Biso   1.000  C
  H170     1.0000 0.96360  0.15260  0.54230  Biso   1.000  H
  H171     1.0000 0.86310  0.14530  0.52970  Biso   1.000  H
  C259     1.0000 0.93010  0.11220  0.46150  Biso   1.000  C
  C260     1.0000 0.86420  0.09580  0.41520  Biso   1.000  C
  C261     1.0000 0.87130  0.06010  0.37600  Biso   1.000  C
  C262     1.0000 0.95370  0.04300  0.38340  Biso   1.000  C
  H172     1.0000 0.96240  0.02030  0.35590  Biso   1.000  H
  C263     1.0000 0.02230  0.05790  0.42910  Biso   1.000  C
  C264     1.0000 0.00860  0.09300  0.46650  Biso   1.000  C
  C265     1.0000 0.11090  0.03950  0.43520  Biso   1.000  C
  H173     1.0000 0.14020  0.04670  0.48430  Biso   1.000  H
  C266     1.0000 0.13580  0.13310  0.47970  Biso   1.000  C
  H174     1.0000 0.10740  0.14410  0.43360  Biso   1.000  H
  H175     1.0000 0.15490  0.15480  0.51260  Biso   1.000  H
  C267     1.0000 0.16300  0.05860  0.37590  Biso   1.000  C
  C268     1.0000 0.16310  0.04260  0.30630  Biso   1.000  C
  H176     1.0000 0.13440  0.01880  0.29540  Biso   1.000  H
  C269     1.0000 0.20500  0.06110  0.25170  Biso   1.000  C
  C270     1.0000 0.24660  0.09630  0.26860  Biso   1.000  C
  C271     1.0000 0.24930  0.11290  0.33820  Biso   1.000  C
  C272     1.0000 0.20590  0.09340  0.39250  Biso   1.000  C
  C273     1.0000 0.79770  0.04310  0.32760  Biso   1.000  C
  H177     1.0000 0.74490  0.05230  0.34790  Biso   1.000  H
  C274     1.0000 0.23810  0.13630  0.15950  Biso   1.000  C
  H178     1.0000 0.18510  0.14490  0.17910  Biso   1.000  H
  H179     1.0000 0.26970  0.15980  0.14730  Biso   1.000  H
  N31      1.0000 0.90480  0.18310  0.45910  Biso   1.000  N
  N32      1.0000 0.97060  0.19380  0.41810  Biso   1.000  N
  N33      1.0000 0.85860  0.23550  0.40110  Biso   1.000  N
  O51      1.0000 0.79900  0.33410  0.28650  Biso   1.000  O
  O52      1.0000 0.78600  0.33360  0.40400  Biso   1.000  O
  O53      1.0000 0.66080  0.23450  0.39110  Biso   1.000  O
  O54      1.0000 0.61660  0.28870  0.33410  Biso   1.000  O
  O55      1.0000 0.78480  0.11490  0.40720  Biso   1.000  O
  O56      1.0000 0.07610  0.10938  0.51410  Biso   1.000  O
  O57      1.0000 0.21070  0.11002  0.46340  Biso   1.000  O
  O58      1.0000 0.28860  0.11560  0.21560  Biso   1.000  O
  Cd6      1.0000 0.76247  0.27879  0.33810  Biso   1.000  Cd
  C275     1.0000 0.30110  0.14960  0.35840  Biso   1.000  C
  H180     1.0000 0.35850  0.14700  0.34150  Biso   1.000  H
  H181     1.0000 0.30840  0.15260  0.41230  Biso   1.000  H
  C276     1.0000 0.16560  0.22800  0.29860  Biso   1.000  C
  H182     1.0000 0.11440  0.24250  0.29720  Biso   1.000  H
  C277     1.0000 0.29080  0.21090  0.27980  Biso   1.000  C
  H183     1.0000 0.34590  0.21020  0.26350  Biso   1.000  H
  N34      1.0000 0.25910  0.18410  0.32500  Biso   1.000  N
  N35      1.0000 0.17880  0.19490  0.33770  Biso   1.000  N
  N36      1.0000 0.23140  0.23830  0.26210  Biso   1.000  N
  C278     1.0000 0.90800  0.51330  0.41700  Biso   1.000  C
  C279     1.0000 0.91600  0.53650  0.47800  Biso   1.000  C
  C280     1.0000 0.97300  0.57270  0.47790  Biso   1.000  C
  C281     1.0000 0.05490  0.58160  0.45730  Biso   1.000  C
  H184     1.0000 0.07650  0.56800  0.41840  Biso   1.000  H
  C282     1.0000 0.07250  0.63150  0.55320  Biso   1.000  C
  C283     1.0000 0.99060  0.62250  0.57370  Biso   1.000  C
  H185     1.0000 0.96900  0.63620  0.61270  Biso   1.000  H
  C284     1.0000 0.94080  0.59320  0.53610  Biso   1.000  C
  H186     1.0000 0.88590  0.58720  0.54990  Biso   1.000  H
  C285     1.0000 0.10470  0.61100  0.49500  Biso   1.000  C
  C286     1.0000 0.79400  0.99840  0.32960  Biso   1.000  C
  H187     1.0000 0.74460  0.98940  0.29720  Biso   1.000  H
  H188     1.0000 0.84620  0.98770  0.31300  Biso   1.000  H
  H189     1.0000 0.78880  0.98980  0.37980  Biso   1.000  H
  C287     1.0000 0.12350  0.66520  0.59050  Biso   1.000  C
  O59      1.0000 0.09890  0.68200  0.64580  Biso   1.000  O
  C288     1.0000 0.10930  0.99410  0.43120  Biso   1.000  C
  H190     1.0000 0.16780  0.98430  0.43480  Biso   1.000  H
  H191     1.0000 0.08040  0.98390  0.47180  Biso   1.000  H
  H192     1.0000 0.07860  0.98600  0.38460  Biso   1.000  H
  O60      1.0000 0.20600  0.67140  0.57070  Biso   1.000  O
  C289     1.0000 0.69500  0.85490  0.15200  Biso   1.000  C
  C290     1.0000 0.66810  0.89330  0.11700  Biso   1.000  C
  C291     1.0000 0.67720  0.90910  0.04690  Biso   1.000  C
  C292     1.0000 0.65800  0.94860  0.03250  Biso   1.000  C
  H193     1.0000 0.66410  0.95910  0.98550  Biso   1.000  H
  C293     1.0000 0.62980  0.97230  0.08820  Biso   1.000  C
  C294     1.0000 0.62100  0.95660  0.15830  Biso   1.000  C
  H194     1.0000 0.60190  0.97240  0.19560  Biso   1.000  H
  C295     1.0000 0.63990  0.91710  0.17270  Biso   1.000  C
  H195     1.0000 0.63380  0.90650  0.21960  Biso   1.000  H
  C296     1.0000 0.89730  0.75880  0.12940  Biso   1.000  C
  C297     1.0000 0.98450  0.75350  0.10210  Biso   1.000  C
  C298     1.0000 0.04920  0.77710  0.12640  Biso   1.000  C
  H196     1.0000 0.04130  0.79560  0.16330  Biso   1.000  H
  C299     1.0000 0.12960  0.77470  0.09730  Biso   1.000  C
  H197     1.0000 0.17520  0.79090  0.11650  Biso   1.000  H
  C300     1.0000 0.14210  0.74860  0.04020  Biso   1.000  C
  C301     1.0000 0.07440  0.72330  0.01720  Biso   1.000  C
  H198     1.0000 0.08120  0.70450  0.98050  Biso   1.000  H
  C302     1.0000 0.99570  0.72580  0.04880  Biso   1.000  C
  H199     1.0000 0.95060  0.70850  0.03330  Biso   1.000  H
  C303     1.0000 0.22090  0.74470  0.99980  Biso   1.000  C
  C304     1.0000 0.56060  0.72570  0.11510  Biso   1.000  C
  H200     1.0000 0.52990  0.74050  0.14720  Biso   1.000  H
  C305     1.0000 0.66000  0.70780  0.05030  Biso   1.000  C
  H201     1.0000 0.71080  0.70630  0.02700  Biso   1.000  H
  C306     1.0000 0.58510  0.64880  0.99570  Biso   1.000  C
  H202     1.0000 0.53640  0.65260  0.95770  Biso   1.000  H
  H203     1.0000 0.63690  0.64530  0.97030  Biso   1.000  H
  C307     1.0000 0.56990  0.61220  0.03850  Biso   1.000  C
  C308     1.0000 0.63580  0.59580  0.08480  Biso   1.000  C
  C309     1.0000 0.62870  0.56010  0.12400  Biso   1.000  C
  C310     1.0000 0.54630  0.54300  0.11660  Biso   1.000  C
  H204     1.0000 0.53760  0.52030  0.14410  Biso   1.000  H
  C311     1.0000 0.47770  0.55790  0.07090  Biso   1.000  C
  C312     1.0000 0.49140  0.59300  0.03350  Biso   1.000  C
  C313     1.0000 0.38910  0.53950  0.06480  Biso   1.000  C
  H205     1.0000 0.35980  0.54670  0.01570  Biso   1.000  H
  C314     1.0000 0.36420  0.63310  0.02030  Biso   1.000  C
  H206     1.0000 0.39260  0.64410  0.06640  Biso   1.000  H
  H207     1.0000 0.34510  0.65480  0.98740  Biso   1.000  H
  C315     1.0000 0.33700  0.55860  0.12410  Biso   1.000  C
  C316     1.0000 0.33690  0.54260  0.19370  Biso   1.000  C
  H208     1.0000 0.36560  0.51880  0.20460  Biso   1.000  H
  C317     1.0000 0.29500  0.56110  0.24830  Biso   1.000  C
  C318     1.0000 0.25340  0.59630  0.23140  Biso   1.000  C
  C319     1.0000 0.25070  0.61290  0.16180  Biso   1.000  C
  C320     1.0000 0.29410  0.59340  0.10750  Biso   1.000  C
  C321     1.0000 0.70230  0.54310  0.17240  Biso   1.000  C
  H209     1.0000 0.75510  0.55230  0.15210  Biso   1.000  H
  C322     1.0000 0.26190  0.63630  0.34050  Biso   1.000  C
  H210     1.0000 0.31490  0.64490  0.32090  Biso   1.000  H
  H211     1.0000 0.23030  0.65980  0.35270  Biso   1.000  H
  N37      1.0000 0.59520  0.68310  0.04090  Biso   1.000  N
  N38      1.0000 0.52940  0.69380  0.08190  Biso   1.000  N
  N39      1.0000 0.64140  0.73550  0.09890  Biso   1.000  N
  O61      1.0000 0.70100  0.83410  0.21350  Biso   1.000  O
  O62      1.0000 0.71400  0.83360  0.09600  Biso   1.000  O
  O63      1.0000 0.83920  0.73450  0.10890  Biso   1.000  O
  O64      1.0000 0.88340  0.78870  0.16590  Biso   1.000  O
  O65      1.0000 0.71520  0.61490  0.09280  Biso   1.000  O
  O66      1.0000 0.42390  0.60938  0.98590  Biso   1.000  O
  O67      1.0000 0.28930  0.61002  0.03660  Biso   1.000  O
  O68      1.0000 0.21140  0.61560  0.28440  Biso   1.000  O
  Cd7      1.0000 0.73753  0.77879  0.16190  Biso   1.000  Cd
  C323     1.0000 0.19890  0.64960  0.14160  Biso   1.000  C
  H212     1.0000 0.14150  0.64700  0.15850  Biso   1.000  H
  H213     1.0000 0.19160  0.65260  0.08770  Biso   1.000  H
  C324     1.0000 0.33440  0.72800  0.20140  Biso   1.000  C
  H214     1.0000 0.38560  0.74250  0.20280  Biso   1.000  H
  C325     1.0000 0.20920  0.71090  0.22020  Biso   1.000  C
  H215     1.0000 0.15410  0.71020  0.23650  Biso   1.000  H
  N40      1.0000 0.24090  0.68410  0.17500  Biso   1.000  N
  N41      1.0000 0.32120  0.69490  0.16230  Biso   1.000  N
  N42      1.0000 0.26860  0.73830  0.23790  Biso   1.000  N
  C326     1.0000 0.59200  0.01330  0.08300  Biso   1.000  C
  C327     1.0000 0.58400  0.03650  0.02200  Biso   1.000  C
  C328     1.0000 0.52700  0.07270  0.02210  Biso   1.000  C
  C329     1.0000 0.44510  0.08160  0.04270  Biso   1.000  C
  H216     1.0000 0.42350  0.06800  0.08160  Biso   1.000  H
  C330     1.0000 0.42750  0.13150  0.94680  Biso   1.000  C
  C331     1.0000 0.50940  0.12250  0.92630  Biso   1.000  C
  H217     1.0000 0.53100  0.13620  0.88730  Biso   1.000  H
  C332     1.0000 0.55920  0.09320  0.96390  Biso   1.000  C
  H218     1.0000 0.61410  0.08720  0.95010  Biso   1.000  H
  C333     1.0000 0.39530  0.11100  0.00500  Biso   1.000  C
  C334     1.0000 0.70600  0.49840  0.17040  Biso   1.000  C
  H219     1.0000 0.75540  0.48940  0.20280  Biso   1.000  H
  H220     1.0000 0.65380  0.48770  0.18700  Biso   1.000  H
  H221     1.0000 0.71120  0.48980  0.12020  Biso   1.000  H
  C335     1.0000 0.37650  0.16520  0.90950  Biso   1.000  C
  O69      1.0000 0.40110  0.18200  0.85420  Biso   1.000  O
  C336     1.0000 0.39070  0.49410  0.06880  Biso   1.000  C
  H222     1.0000 0.33220  0.48430  0.06520  Biso   1.000  H
  H223     1.0000 0.41960  0.48390  0.02820  Biso   1.000  H
  H224     1.0000 0.42140  0.48600  0.11540  Biso   1.000  H
  O70      1.0000 0.29400  0.17140  0.92930  Biso   1.000  O
  C337     1.0000 0.19500  0.35490  0.15200  Biso   1.000  C
  C338     1.0000 0.16810  0.39330  0.11700  Biso   1.000  C
  C339     1.0000 0.17720  0.40910  0.04690  Biso   1.000  C
  C340     1.0000 0.15800  0.44860  0.03250  Biso   1.000  C
  H225     1.0000 0.16410  0.45910  0.98550  Biso   1.000  H
  C341     1.0000 0.12980  0.47230  0.08820  Biso   1.000  C
  C342     1.0000 0.12100  0.45660  0.15830  Biso   1.000  C
  H226     1.0000 0.10190  0.47240  0.19560  Biso   1.000  H
  C343     1.0000 0.13990  0.41710  0.17270  Biso   1.000  C
  H227     1.0000 0.13380  0.40650  0.21960  Biso   1.000  H
  C344     1.0000 0.39730  0.25880  0.12940  Biso   1.000  C
  C345     1.0000 0.48450  0.25350  0.10210  Biso   1.000  C
  C346     1.0000 0.54920  0.27710  0.12640  Biso   1.000  C
  H228     1.0000 0.54130  0.29560  0.16330  Biso   1.000  H
  C347     1.0000 0.62960  0.27470  0.09730  Biso   1.000  C
  H229     1.0000 0.67520  0.29090  0.11650  Biso   1.000  H
  C348     1.0000 0.64210  0.24860  0.04020  Biso   1.000  C
  C349     1.0000 0.57440  0.22330  0.01720  Biso   1.000  C
  H230     1.0000 0.58120  0.20450  0.98050  Biso   1.000  H
  C350     1.0000 0.49570  0.22580  0.04880  Biso   1.000  C
  H231     1.0000 0.45060  0.20850  0.03330  Biso   1.000  H
  C351     1.0000 0.72090  0.24470  0.99980  Biso   1.000  C
  C352     1.0000 0.06060  0.22570  0.11510  Biso   1.000  C
  H232     1.0000 0.02990  0.24050  0.14720  Biso   1.000  H
  C353     1.0000 0.16000  0.20780  0.05030  Biso   1.000  C
  H233     1.0000 0.21080  0.20630  0.02700  Biso   1.000  H
  C354     1.0000 0.08510  0.14880  0.99570  Biso   1.000  C
  H234     1.0000 0.03640  0.15260  0.95770  Biso   1.000  H
  H235     1.0000 0.13690  0.14530  0.97030  Biso   1.000  H
  C355     1.0000 0.06990  0.11220  0.03850  Biso   1.000  C
  C356     1.0000 0.13580  0.09580  0.08480  Biso   1.000  C
  C357     1.0000 0.12870  0.06010  0.12400  Biso   1.000  C
  C358     1.0000 0.04630  0.04300  0.11660  Biso   1.000  C
  H236     1.0000 0.03760  0.02030  0.14410  Biso   1.000  H
  C359     1.0000 0.97770  0.05790  0.07090  Biso   1.000  C
  C360     1.0000 0.99140  0.09300  0.03350  Biso   1.000  C
  C361     1.0000 0.88910  0.03950  0.06480  Biso   1.000  C
  H237     1.0000 0.85980  0.04670  0.01570  Biso   1.000  H
  C362     1.0000 0.86420  0.13310  0.02030  Biso   1.000  C
  H238     1.0000 0.89260  0.14410  0.06640  Biso   1.000  H
  H239     1.0000 0.84510  0.15480  0.98740  Biso   1.000  H
  C363     1.0000 0.83700  0.05860  0.12410  Biso   1.000  C
  C364     1.0000 0.83690  0.04260  0.19370  Biso   1.000  C
  H240     1.0000 0.86560  0.01880  0.20460  Biso   1.000  H
  C365     1.0000 0.79500  0.06110  0.24830  Biso   1.000  C
  C366     1.0000 0.75340  0.09630  0.23140  Biso   1.000  C
  C367     1.0000 0.75070  0.11290  0.16180  Biso   1.000  C
  C368     1.0000 0.79410  0.09340  0.10750  Biso   1.000  C
  C369     1.0000 0.20230  0.04310  0.17240  Biso   1.000  C
  H241     1.0000 0.25510  0.05230  0.15210  Biso   1.000  H
  C370     1.0000 0.76190  0.13630  0.34050  Biso   1.000  C
  H242     1.0000 0.81490  0.14490  0.32090  Biso   1.000  H
  H243     1.0000 0.73030  0.15980  0.35270  Biso   1.000  H
  N43      1.0000 0.09520  0.18310  0.04090  Biso   1.000  N
  N44      1.0000 0.02940  0.19380  0.08190  Biso   1.000  N
  N45      1.0000 0.14140  0.23550  0.09890  Biso   1.000  N
  O71      1.0000 0.20100  0.33410  0.21350  Biso   1.000  O
  O72      1.0000 0.21400  0.33360  0.09600  Biso   1.000  O
  O73      1.0000 0.33920  0.23450  0.10890  Biso   1.000  O
  O74      1.0000 0.38340  0.28870  0.16590  Biso   1.000  O
  O75      1.0000 0.21520  0.11490  0.09280  Biso   1.000  O
  O76      1.0000 0.92390  0.10938  0.98590  Biso   1.000  O
  O77      1.0000 0.78930  0.11002  0.03660  Biso   1.000  O
  O78      1.0000 0.71140  0.11560  0.28440  Biso   1.000  O
  Cd8      1.0000 0.23753  0.27879  0.16190  Biso   1.000  Cd
  C371     1.0000 0.69890  0.14960  0.14160  Biso   1.000  C
  H244     1.0000 0.64150  0.14700  0.15850  Biso   1.000  H
  H245     1.0000 0.69160  0.15260  0.08770  Biso   1.000  H
  C372     1.0000 0.83440  0.22800  0.20140  Biso   1.000  C
  H246     1.0000 0.88560  0.24250  0.20280  Biso   1.000  H
  C373     1.0000 0.70920  0.21090  0.22020  Biso   1.000  C
  H247     1.0000 0.65410  0.21020  0.23650  Biso   1.000  H
  N46      1.0000 0.74090  0.18410  0.17500  Biso   1.000  N
  N47      1.0000 0.82120  0.19490  0.16230  Biso   1.000  N
  N48      1.0000 0.76860  0.23830  0.23790  Biso   1.000  N
  C374     1.0000 0.09200  0.51330  0.08300  Biso   1.000  C
  C375     1.0000 0.08400  0.53650  0.02200  Biso   1.000  C
  C376     1.0000 0.02700  0.57270  0.02210  Biso   1.000  C
  C377     1.0000 0.94510  0.58160  0.04270  Biso   1.000  C
  H248     1.0000 0.92350  0.56800  0.08160  Biso   1.000  H
  C378     1.0000 0.92750  0.63150  0.94680  Biso   1.000  C
  C379     1.0000 0.00940  0.62250  0.92630  Biso   1.000  C
  H249     1.0000 0.03100  0.63620  0.88730  Biso   1.000  H
  C380     1.0000 0.05920  0.59320  0.96390  Biso   1.000  C
  H250     1.0000 0.11410  0.58720  0.95010  Biso   1.000  H
  C381     1.0000 0.89530  0.61100  0.00500  Biso   1.000  C
  C382     1.0000 0.20600  0.99840  0.17040  Biso   1.000  C
  H251     1.0000 0.25540  0.98940  0.20280  Biso   1.000  H
  H252     1.0000 0.15380  0.98770  0.18700  Biso   1.000  H
  H253     1.0000 0.21120  0.98980  0.12020  Biso   1.000  H
  C383     1.0000 0.87650  0.66520  0.90950  Biso   1.000  C
  O79      1.0000 0.90110  0.68200  0.85420  Biso   1.000  O
  C384     1.0000 0.89070  0.99410  0.06880  Biso   1.000  C
  H254     1.0000 0.83220  0.98430  0.06520  Biso   1.000  H
  H255     1.0000 0.91960  0.98390  0.02820  Biso   1.000  H
  H256     1.0000 0.92140  0.98600  0.11540  Biso   1.000  H
  O80      1.0000 0.79400  0.67140  0.92930  Biso   1.000  O
