data_image0
_cell_length_a       35.0725
_cell_length_b       14.8911
_cell_length_c       30.9658
_cell_angle_alpha    90
_cell_angle_beta     101.956
_cell_angle_gamma    90

_symmetry_space_group_name_H-M    "P 1"
_symmetry_int_tables_number       1

loop_
  _symmetry_equiv_pos_as_xyz
  'x, y, z'

loop_
  _atom_site_label
  _atom_site_occupancy
  _atom_site_fract_x
  _atom_site_fract_y
  _atom_site_fract_z
  _atom_site_thermal_displace_type
  _atom_site_B_iso_or_equiv
  _atom_site_type_symbol
  I1       1.0000 0.85002  0.91320  0.01155  Biso   1.000  I
  Zn1      1.0000 0.87485  0.90124  0.93895  Biso   1.000  Zn
  I2       1.0000 0.89145  0.76060  0.90670  Biso   1.000  I
  N1       1.0000 0.83405  0.96870  0.89221  Biso   1.000  N
  N2       1.0000 0.92303  0.98420  0.94394  Biso   1.000  N
  C1       1.0000 0.93635  0.03560  0.97877  Biso   1.000  C
  C2       1.0000 0.94060  0.98810  0.91027  Biso   1.000  C
  C3       1.0000 0.96734  0.09350  0.98030  Biso   1.000  C
  H1       1.0000 0.92420  0.03260  0.00340  Biso   1.000  H
  C4       1.0000 0.97140  0.04450  0.90886  Biso   1.000  C
  H2       1.0000 0.93160  0.94990  0.88570  Biso   1.000  H
  H3       1.0000 0.97620  0.12990  0.00560  Biso   1.000  H
  C5       1.0000 0.98536  0.09790  0.94491  Biso   1.000  C
  H4       1.0000 0.98280  0.04640  0.88360  Biso   1.000  H
  C6       1.0000 0.01770  0.16090  0.94391  Biso   1.000  C
  N3       1.0000 0.03931  0.14630  0.91392  Biso   1.000  N
  N4       1.0000 0.02231  0.22870  0.97287  Biso   1.000  N
  C7       1.0000 0.06766  0.20640  0.91410  Biso   1.000  C
  C8       1.0000 0.05061  0.28670  0.96851  Biso   1.000  C
  C9       1.0000 0.09327  0.19160  0.88236  Biso   1.000  C
  N5       1.0000 0.07455  0.27790  0.94040  Biso   1.000  N
  C10      1.0000 0.05492  0.36770  0.99702  Biso   1.000  C
  C11      1.0000 0.08229  0.13230  0.84718  Biso   1.000  C
  C12      1.0000 0.12852  0.23630  0.88698  Biso   1.000  C
  C13      1.0000 0.02846  0.38700  0.02287  Biso   1.000  C
  C14      1.0000 0.08652  0.42360  0.99889  Biso   1.000  C
  H5       1.0000 0.05820  0.10100  0.84310  Biso   1.000  H
  C15      1.0000 0.10707  0.11970  0.81823  Biso   1.000  C
  H6       1.0000 0.13660  0.27800  0.91030  Biso   1.000  H
  C16      1.0000 0.15168  0.21910  0.85696  Biso   1.000  C
  C17      1.0000 0.03410  0.46210  0.04962  Biso   1.000  C
  H7       1.0000 0.00660  0.34910  0.02230  Biso   1.000  H
  H8       1.0000 0.10520  0.41270  0.98120  Biso   1.000  H
  C18      1.0000 0.09021  0.49620  0.02741  Biso   1.000  C
  N6       1.0000 0.14141  0.16240  0.82283  Biso   1.000  N
  H9       1.0000 0.09950  0.07950  0.79420  Biso   1.000  H
  H10      1.0000 0.17610  0.24880  0.86060  Biso   1.000  H
  N7       1.0000 0.06489  0.51550  0.05245  Biso   1.000  N
  H11      1.0000 0.01530  0.47600  0.06660  Biso   1.000  H
  H12      1.0000 0.11220  0.53440  0.02910  Biso   1.000  H
  Zn2      1.0000 0.17354  0.14570  0.77329  Biso   1.000  Zn
  Zn3      1.0000 0.07771  0.62044  0.09766  Biso   1.000  Zn
  I3       1.0000 0.12883  0.16664  0.69820  Biso   1.000  I
  I4       1.0000 0.23540  0.23505  0.79640  Biso   1.000  I
  N8       1.0000 0.18623  0.00800  0.78096  Biso   1.000  N
  N9       1.0000 0.11841  0.55150  0.14436  Biso   1.000  N
  I5       1.0000 0.11457  0.73620  0.05810  Biso   1.000  I
  I6       1.0000 0.02207  0.65220  0.13138  Biso   1.000  I
  C19      1.0000 0.15014  0.59060  0.16822  Biso   1.000  C
  C20      1.0000 0.11025  0.46780  0.15380  Biso   1.000  C
  H13      1.0000 0.15620  0.65050  0.16150  Biso   1.000  H
  C21      1.0000 0.17454  0.54580  0.20263  Biso   1.000  C
  C22      1.0000 0.13329  0.41820  0.18688  Biso   1.000  C
  H14      1.0000 0.08750  0.44050  0.13690  Biso   1.000  H
  C23      1.0000 0.16623  0.45800  0.21194  Biso   1.000  C
  H15      1.0000 0.19670  0.57520  0.21960  Biso   1.000  H
  H16      1.0000 0.12670  0.35810  0.19240  Biso   1.000  H
  C24      1.0000 0.19094  0.40580  0.24772  Biso   1.000  C
  N10      1.0000 0.18096  0.32033  0.25219  Biso   1.000  N
  N11      1.0000 0.22174  0.44698  0.27240  Biso   1.000  N
  C25      1.0000 0.20558  0.27450  0.28320  Biso   1.000  C
  C26      1.0000 0.24251  0.39660  0.30474  Biso   1.000  C
  N12      1.0000 0.23600  0.30950  0.31132  Biso   1.000  N
  C27      1.0000 0.19859  0.17630  0.28416  Biso   1.000  C
  C28      1.0000 0.27491  0.44200  0.33486  Biso   1.000  C
  C29      1.0000 0.22465  0.11840  0.30989  Biso   1.000  C
  C30      1.0000 0.16605  0.13940  0.25709  Biso   1.000  C
  C31      1.0000 0.29680  0.39810  0.37150  Biso   1.000  C
  C32      1.0000 0.28422  0.53040  0.32709  Biso   1.000  C
  H17      1.0000 0.24720  0.14090  0.32920  Biso   1.000  H
  C33      1.0000 0.21721  0.02680  0.30695  Biso   1.000  C
  C34      1.0000 0.16065  0.04800  0.25685  Biso   1.000  C
  H18      1.0000 0.14760  0.17690  0.23880  Biso   1.000  H
  C35      1.0000 0.32547  0.44550  0.39927  Biso   1.000  C
  H19      1.0000 0.29200  0.33690  0.37720  Biso   1.000  H
  C36      1.0000 0.31388  0.57240  0.35635  Biso   1.000  C
  H20      1.0000 0.27030  0.56160  0.30190  Biso   1.000  H
  H21      1.0000 0.23530  0.98730  0.32450  Biso   1.000  H
  H22      1.0000 0.13780  0.02370  0.23880  Biso   1.000  H
  H23      1.0000 0.33990  0.41600  0.42470  Biso   1.000  H
  H24      1.0000 0.32020  0.63270  0.35080  Biso   1.000  H
  C37      1.0000 0.78050  0.29480  0.44090  Biso   1.000  C
  H25      1.0000 0.78190  0.27580  0.41070  Biso   1.000  H
  H26      1.0000 0.78800  0.24290  0.46090  Biso   1.000  H
  C38      1.0000 0.74100  0.32100  0.44180  Biso   1.000  C
  H27      1.0000 0.73880  0.33220  0.47270  Biso   1.000  H
  H28      1.0000 0.72300  0.27130  0.43010  Biso   1.000  H
  C39      1.0000 0.72910  0.40430  0.41470  Biso   1.000  C
  H29      1.0000 0.72890  0.39110  0.38330  Biso   1.000  H
  H30      1.0000 0.70240  0.42150  0.41710  Biso   1.000  H
  C40      1.0000 0.75570  0.48010  0.42930  Biso   1.000  C
  H31      1.0000 0.75510  0.49600  0.46020  Biso   1.000  H
  H32      1.0000 0.74730  0.53310  0.41050  Biso   1.000  H
  C41      1.0000 0.79610  0.45380  0.42600  Biso   1.000  C
  H33      1.0000 0.81420  0.50450  0.43550  Biso   1.000  H
  H34      1.0000 0.79680  0.43930  0.39500  Biso   1.000  H
  C42      1.0000 0.80920  0.37200  0.45530  Biso   1.000  C
  H35      1.0000 0.80990  0.38740  0.48660  Biso   1.000  H
  H36      1.0000 0.83570  0.35370  0.45250  Biso   1.000  H
  I7       1.0000 0.85188  0.91112  0.01026  Biso   1.000  I
  I8       1.0000 0.89084  0.75735  0.89993  Biso   1.000  I
  I9       1.0000 0.51831  0.86040  0.63402  Biso   1.000  I
  I10      1.0000 0.61317  0.76131  0.56412  Biso   1.000  I
  Zn4      1.0000 0.67730  0.35430  0.28140  Biso   1.000  Zn
  I11      1.0000 0.63378  0.32010  0.20691  Biso   1.000  I
  I12      1.0000 0.74287  0.27320  0.30840  Biso   1.000  I
  C43      1.0000 0.77700  0.53900  0.44400  Biso   1.000  C
  C44      1.0000 0.74100  0.58500  0.41500  Biso   1.000  C
  H37      1.0000 0.74520  0.64260  0.40360  Biso   1.000  H
  C45      1.0000 0.70400  0.54900  0.40300  Biso   1.000  C
  H38      1.0000 0.68620  0.58740  0.38530  Biso   1.000  H
  C46      1.0000 0.68800  0.46800  0.41300  Biso   1.000  C
  C47      1.0000 0.70900  0.39600  0.44000  Biso   1.000  C
  H39      1.0000 0.69310  0.34520  0.44340  Biso   1.000  H
  C48      1.0000 0.74900  0.38800  0.46300  Biso   1.000  C
  C49      1.0000 0.78100  0.45700  0.46400  Biso   1.000  C
  C50      1.0000 0.81100  0.41800  0.48800  Biso   1.000  C
  H40      1.0000 0.83630  0.44300  0.49600  Biso   1.000  H
  C51      1.0000 0.79900  0.33000  0.50200  Biso   1.000  C
  H41      1.0000 0.81760  0.29200  0.52030  Biso   1.000  H
  C52      1.0000 0.76400  0.30800  0.48900  Biso   1.000  C
  C53      1.0000 0.81100  0.59900  0.44800  Biso   1.000  C
  H42      1.0000 0.80340  0.65430  0.43120  Biso   1.000  H
  H43      1.0000 0.82100  0.61320  0.47890  Biso   1.000  H
  H44      1.0000 0.83160  0.56880  0.43590  Biso   1.000  H
  C54      1.0000 0.64500  0.45500  0.39400  Biso   1.000  C
  H45      1.0000 0.64000  0.41770  0.36600  Biso   1.000  H
  C55      1.0000 0.62700  0.41000  0.43100  Biso   1.000  C
  H46      1.0000 0.59940  0.39950  0.42080  Biso   1.000  H
  H47      1.0000 0.64050  0.35260  0.43980  Biso   1.000  H
  H48      1.0000 0.63140  0.45010  0.45700  Biso   1.000  H
  C56      1.0000 0.62300  0.55200  0.38700  Biso   1.000  C
  H49      1.0000 0.59520  0.54290  0.37410  Biso   1.000  H
  H50      1.0000 0.62600  0.58230  0.41520  Biso   1.000  H
  H51      1.0000 0.63460  0.58840  0.36650  Biso   1.000  H
  C57      1.0000 0.73800  0.22200  0.49400  Biso   1.000  C
  H52      1.0000 0.71110  0.23260  0.47820  Biso   1.000  H
  H53      1.0000 0.74850  0.16890  0.48270  Biso   1.000  H
  H54      1.0000 0.73780  0.21330  0.52570  Biso   1.000  H
  C58      1.0000 0.61380  0.65620  0.42460  Biso   1.000  C
  H55      1.0000 0.62500  0.63230  0.45440  Biso   1.000  H
  H56      1.0000 0.60890  0.72150  0.42590  Biso   1.000  H
  C59      1.0000 0.57730  0.60140  0.39950  Biso   1.000  C
  H57      1.0000 0.58130  0.53610  0.40470  Biso   1.000  H
  H58      1.0000 0.55340  0.62000  0.40930  Biso   1.000  H
  C60      1.0000 0.57450  0.62330  0.35190  Biso   1.000  C
  H59      1.0000 0.54690  0.61840  0.33640  Biso   1.000  H
  H60      1.0000 0.58950  0.57830  0.33890  Biso   1.000  H
  C61      1.0000 0.58990  0.72060  0.34360  Biso   1.000  C
  H61      1.0000 0.57750  0.76670  0.35910  Biso   1.000  H
  H62      1.0000 0.58430  0.73480  0.31160  Biso   1.000  H
  C62      1.0000 0.63590  0.71740  0.36270  Biso   1.000  C
  H63      1.0000 0.65080  0.71610  0.33880  Biso   1.000  H
  H64      1.0000 0.64480  0.76870  0.38260  Biso   1.000  H
  C63      1.0000 0.63890  0.62900  0.38770  Biso   1.000  C
  H65      1.0000 0.66630  0.61370  0.40120  Biso   1.000  H
  H66      1.0000 0.62680  0.57880  0.36870  Biso   1.000  H
  I13      1.0000 0.35002  0.41320  0.01155  Biso   1.000  I
  Zn5      1.0000 0.37485  0.40124  0.93895  Biso   1.000  Zn
  I14      1.0000 0.39145  0.26060  0.90670  Biso   1.000  I
  N13      1.0000 0.33405  0.46870  0.89221  Biso   1.000  N
  N14      1.0000 0.42303  0.48420  0.94394  Biso   1.000  N
  C64      1.0000 0.43635  0.53560  0.97877  Biso   1.000  C
  C65      1.0000 0.44060  0.48810  0.91027  Biso   1.000  C
  C66      1.0000 0.46734  0.59350  0.98030  Biso   1.000  C
  H67      1.0000 0.42420  0.53260  0.00340  Biso   1.000  H
  C67      1.0000 0.47140  0.54450  0.90886  Biso   1.000  C
  H68      1.0000 0.43160  0.44990  0.88570  Biso   1.000  H
  H69      1.0000 0.47620  0.62990  0.00560  Biso   1.000  H
  C68      1.0000 0.48536  0.59790  0.94491  Biso   1.000  C
  H70      1.0000 0.48280  0.54640  0.88360  Biso   1.000  H
  C69      1.0000 0.51770  0.66090  0.94391  Biso   1.000  C
  N15      1.0000 0.53931  0.64630  0.91392  Biso   1.000  N
  N16      1.0000 0.52231  0.72870  0.97287  Biso   1.000  N
  C70      1.0000 0.56766  0.70640  0.91410  Biso   1.000  C
  C71      1.0000 0.55061  0.78670  0.96851  Biso   1.000  C
  C72      1.0000 0.59327  0.69160  0.88236  Biso   1.000  C
  N17      1.0000 0.57455  0.77790  0.94040  Biso   1.000  N
  C73      1.0000 0.55492  0.86770  0.99702  Biso   1.000  C
  C74      1.0000 0.58229  0.63230  0.84718  Biso   1.000  C
  C75      1.0000 0.62852  0.73630  0.88698  Biso   1.000  C
  C76      1.0000 0.52846  0.88700  0.02287  Biso   1.000  C
  C77      1.0000 0.58652  0.92360  0.99889  Biso   1.000  C
  H71      1.0000 0.55820  0.60100  0.84310  Biso   1.000  H
  C78      1.0000 0.60707  0.61970  0.81823  Biso   1.000  C
  H72      1.0000 0.63660  0.77800  0.91030  Biso   1.000  H
  C79      1.0000 0.65168  0.71910  0.85696  Biso   1.000  C
  C80      1.0000 0.53410  0.96210  0.04962  Biso   1.000  C
  H73      1.0000 0.50660  0.84910  0.02230  Biso   1.000  H
  H74      1.0000 0.60520  0.91270  0.98120  Biso   1.000  H
  C81      1.0000 0.59021  0.99620  0.02741  Biso   1.000  C
  N18      1.0000 0.64141  0.66240  0.82283  Biso   1.000  N
  H75      1.0000 0.59950  0.57950  0.79420  Biso   1.000  H
  H76      1.0000 0.67610  0.74880  0.86060  Biso   1.000  H
  N19      1.0000 0.56489  0.01550  0.05245  Biso   1.000  N
  H77      1.0000 0.51530  0.97600  0.06660  Biso   1.000  H
  H78      1.0000 0.61220  0.03440  0.02910  Biso   1.000  H
  Zn6      1.0000 0.67354  0.64570  0.77329  Biso   1.000  Zn
  Zn7      1.0000 0.57771  0.12044  0.09766  Biso   1.000  Zn
  I15      1.0000 0.62883  0.66664  0.69820  Biso   1.000  I
  I16      1.0000 0.73540  0.73505  0.79640  Biso   1.000  I
  N20      1.0000 0.68623  0.50800  0.78096  Biso   1.000  N
  N21      1.0000 0.61841  0.05150  0.14436  Biso   1.000  N
  I17      1.0000 0.61457  0.23620  0.05810  Biso   1.000  I
  I18      1.0000 0.52207  0.15220  0.13138  Biso   1.000  I
  C82      1.0000 0.65014  0.09060  0.16822  Biso   1.000  C
  C83      1.0000 0.61025  0.96780  0.15380  Biso   1.000  C
  H79      1.0000 0.65620  0.15050  0.16150  Biso   1.000  H
  C84      1.0000 0.67454  0.04580  0.20263  Biso   1.000  C
  C85      1.0000 0.63329  0.91820  0.18688  Biso   1.000  C
  H80      1.0000 0.58750  0.94050  0.13690  Biso   1.000  H
  C86      1.0000 0.66623  0.95800  0.21194  Biso   1.000  C
  H81      1.0000 0.69670  0.07520  0.21960  Biso   1.000  H
  H82      1.0000 0.62670  0.85810  0.19240  Biso   1.000  H
  C87      1.0000 0.69094  0.90580  0.24772  Biso   1.000  C
  N22      1.0000 0.68096  0.82033  0.25219  Biso   1.000  N
  N23      1.0000 0.72174  0.94698  0.27240  Biso   1.000  N
  C88      1.0000 0.70558  0.77450  0.28320  Biso   1.000  C
  C89      1.0000 0.74251  0.89660  0.30474  Biso   1.000  C
  N24      1.0000 0.73600  0.80950  0.31132  Biso   1.000  N
  C90      1.0000 0.69859  0.67630  0.28416  Biso   1.000  C
  C91      1.0000 0.77491  0.94200  0.33486  Biso   1.000  C
  C92      1.0000 0.72465  0.61840  0.30989  Biso   1.000  C
  C93      1.0000 0.66605  0.63940  0.25709  Biso   1.000  C
  C94      1.0000 0.79680  0.89810  0.37150  Biso   1.000  C
  C95      1.0000 0.78422  0.03040  0.32709  Biso   1.000  C
  H83      1.0000 0.74720  0.64090  0.32920  Biso   1.000  H
  C96      1.0000 0.71721  0.52680  0.30695  Biso   1.000  C
  C97      1.0000 0.66065  0.54800  0.25685  Biso   1.000  C
  H84      1.0000 0.64760  0.67690  0.23880  Biso   1.000  H
  C98      1.0000 0.82547  0.94550  0.39927  Biso   1.000  C
  H85      1.0000 0.79200  0.83690  0.37720  Biso   1.000  H
  C99      1.0000 0.81388  0.07240  0.35635  Biso   1.000  C
  H86      1.0000 0.77030  0.06160  0.30190  Biso   1.000  H
  H87      1.0000 0.73530  0.48730  0.32450  Biso   1.000  H
  H88      1.0000 0.63780  0.52370  0.23880  Biso   1.000  H
  H89      1.0000 0.83990  0.91600  0.42470  Biso   1.000  H
  H90      1.0000 0.82020  0.13270  0.35080  Biso   1.000  H
  C100     1.0000 0.28050  0.79480  0.44090  Biso   1.000  C
  H91      1.0000 0.28190  0.77580  0.41070  Biso   1.000  H
  H92      1.0000 0.28800  0.74290  0.46090  Biso   1.000  H
  C101     1.0000 0.24100  0.82100  0.44180  Biso   1.000  C
  H93      1.0000 0.23880  0.83220  0.47270  Biso   1.000  H
  H94      1.0000 0.22300  0.77130  0.43010  Biso   1.000  H
  C102     1.0000 0.22910  0.90430  0.41470  Biso   1.000  C
  H95      1.0000 0.22890  0.89110  0.38330  Biso   1.000  H
  H96      1.0000 0.20240  0.92150  0.41710  Biso   1.000  H
  C103     1.0000 0.25570  0.98010  0.42930  Biso   1.000  C
  H97      1.0000 0.25510  0.99600  0.46020  Biso   1.000  H
  H98      1.0000 0.24730  0.03310  0.41050  Biso   1.000  H
  C104     1.0000 0.29610  0.95380  0.42600  Biso   1.000  C
  H99      1.0000 0.31420  0.00450  0.43550  Biso   1.000  H
  H100     1.0000 0.29680  0.93930  0.39500  Biso   1.000  H
  C105     1.0000 0.30920  0.87200  0.45530  Biso   1.000  C
  H101     1.0000 0.30990  0.88740  0.48660  Biso   1.000  H
  H102     1.0000 0.33570  0.85370  0.45250  Biso   1.000  H
  I19      1.0000 0.35188  0.41112  0.01026  Biso   1.000  I
  I20      1.0000 0.39084  0.25735  0.89993  Biso   1.000  I
  I21      1.0000 0.01831  0.36040  0.63402  Biso   1.000  I
  I22      1.0000 0.11317  0.26131  0.56412  Biso   1.000  I
  Zn8      1.0000 0.17730  0.85430  0.28140  Biso   1.000  Zn
  I23      1.0000 0.13378  0.82010  0.20691  Biso   1.000  I
  I24      1.0000 0.24287  0.77320  0.30840  Biso   1.000  I
  C106     1.0000 0.27700  0.03900  0.44400  Biso   1.000  C
  C107     1.0000 0.24100  0.08500  0.41500  Biso   1.000  C
  H103     1.0000 0.24520  0.14260  0.40360  Biso   1.000  H
  C108     1.0000 0.20400  0.04900  0.40300  Biso   1.000  C
  H104     1.0000 0.18620  0.08740  0.38530  Biso   1.000  H
  C109     1.0000 0.18800  0.96800  0.41300  Biso   1.000  C
  C110     1.0000 0.20900  0.89600  0.44000  Biso   1.000  C
  H105     1.0000 0.19310  0.84520  0.44340  Biso   1.000  H
  C111     1.0000 0.24900  0.88800  0.46300  Biso   1.000  C
  C112     1.0000 0.28100  0.95700  0.46400  Biso   1.000  C
  C113     1.0000 0.31100  0.91800  0.48800  Biso   1.000  C
  H106     1.0000 0.33630  0.94300  0.49600  Biso   1.000  H
  C114     1.0000 0.29900  0.83000  0.50200  Biso   1.000  C
  H107     1.0000 0.31760  0.79200  0.52030  Biso   1.000  H
  C115     1.0000 0.26400  0.80800  0.48900  Biso   1.000  C
  C116     1.0000 0.31100  0.09900  0.44800  Biso   1.000  C
  H108     1.0000 0.30340  0.15430  0.43120  Biso   1.000  H
  H109     1.0000 0.32100  0.11320  0.47890  Biso   1.000  H
  H110     1.0000 0.33160  0.06880  0.43590  Biso   1.000  H
  C117     1.0000 0.14500  0.95500  0.39400  Biso   1.000  C
  H111     1.0000 0.14000  0.91770  0.36600  Biso   1.000  H
  C118     1.0000 0.12700  0.91000  0.43100  Biso   1.000  C
  H112     1.0000 0.09940  0.89950  0.42080  Biso   1.000  H
  H113     1.0000 0.14050  0.85260  0.43980  Biso   1.000  H
  H114     1.0000 0.13140  0.95010  0.45700  Biso   1.000  H
  C119     1.0000 0.12300  0.05200  0.38700  Biso   1.000  C
  H115     1.0000 0.09520  0.04290  0.37410  Biso   1.000  H
  H116     1.0000 0.12600  0.08230  0.41520  Biso   1.000  H
  H117     1.0000 0.13460  0.08840  0.36650  Biso   1.000  H
  C120     1.0000 0.23800  0.72200  0.49400  Biso   1.000  C
  H118     1.0000 0.21110  0.73260  0.47820  Biso   1.000  H
  H119     1.0000 0.24850  0.66890  0.48270  Biso   1.000  H
  H120     1.0000 0.23780  0.71330  0.52570  Biso   1.000  H
  C121     1.0000 0.11380  0.15620  0.42460  Biso   1.000  C
  H121     1.0000 0.12500  0.13230  0.45440  Biso   1.000  H
  H122     1.0000 0.10890  0.22150  0.42590  Biso   1.000  H
  C122     1.0000 0.07730  0.10140  0.39950  Biso   1.000  C
  H123     1.0000 0.08130  0.03610  0.40470  Biso   1.000  H
  H124     1.0000 0.05340  0.12000  0.40930  Biso   1.000  H
  C123     1.0000 0.07450  0.12330  0.35190  Biso   1.000  C
  H125     1.0000 0.04690  0.11840  0.33640  Biso   1.000  H
  H126     1.0000 0.08950  0.07830  0.33890  Biso   1.000  H
  C124     1.0000 0.08990  0.22060  0.34360  Biso   1.000  C
  H127     1.0000 0.07750  0.26670  0.35910  Biso   1.000  H
  H128     1.0000 0.08430  0.23480  0.31160  Biso   1.000  H
  C125     1.0000 0.13590  0.21740  0.36270  Biso   1.000  C
  H129     1.0000 0.15080  0.21610  0.33880  Biso   1.000  H
  H130     1.0000 0.14480  0.26870  0.38260  Biso   1.000  H
  C126     1.0000 0.13890  0.12900  0.38770  Biso   1.000  C
  H131     1.0000 0.16630  0.11370  0.40120  Biso   1.000  H
  H132     1.0000 0.12680  0.07880  0.36870  Biso   1.000  H
  I25      1.0000 0.14998  0.91320  0.48845  Biso   1.000  I
  Zn9      1.0000 0.12515  0.90124  0.56105  Biso   1.000  Zn
  I26      1.0000 0.10855  0.76060  0.59330  Biso   1.000  I
  N25      1.0000 0.16595  0.96870  0.60779  Biso   1.000  N
  N26      1.0000 0.07697  0.98420  0.55606  Biso   1.000  N
  C127     1.0000 0.06365  0.03560  0.52123  Biso   1.000  C
  C128     1.0000 0.05940  0.98810  0.58973  Biso   1.000  C
  C129     1.0000 0.03266  0.09350  0.51970  Biso   1.000  C
  H133     1.0000 0.07580  0.03260  0.49660  Biso   1.000  H
  C130     1.0000 0.02860  0.04450  0.59114  Biso   1.000  C
  H134     1.0000 0.06840  0.94990  0.61430  Biso   1.000  H
  H135     1.0000 0.02380  0.12990  0.49440  Biso   1.000  H
  C131     1.0000 0.01464  0.09790  0.55509  Biso   1.000  C
  H136     1.0000 0.01720  0.04640  0.61640  Biso   1.000  H
  C132     1.0000 0.98230  0.16090  0.55609  Biso   1.000  C
  N27      1.0000 0.96069  0.14630  0.58608  Biso   1.000  N
  N28      1.0000 0.97769  0.22870  0.52713  Biso   1.000  N
  C133     1.0000 0.93234  0.20640  0.58590  Biso   1.000  C
  C134     1.0000 0.94939  0.28670  0.53149  Biso   1.000  C
  C135     1.0000 0.90673  0.19160  0.61764  Biso   1.000  C
  N29      1.0000 0.92545  0.27790  0.55960  Biso   1.000  N
  C136     1.0000 0.94508  0.36770  0.50298  Biso   1.000  C
  C137     1.0000 0.91771  0.13230  0.65282  Biso   1.000  C
  C138     1.0000 0.87148  0.23630  0.61302  Biso   1.000  C
  C139     1.0000 0.97154  0.38700  0.47713  Biso   1.000  C
  C140     1.0000 0.91348  0.42360  0.50111  Biso   1.000  C
  H137     1.0000 0.94180  0.10100  0.65690  Biso   1.000  H
  C141     1.0000 0.89293  0.11970  0.68177  Biso   1.000  C
  H138     1.0000 0.86340  0.27800  0.58970  Biso   1.000  H
  C142     1.0000 0.84832  0.21910  0.64304  Biso   1.000  C
  C143     1.0000 0.96590  0.46210  0.45038  Biso   1.000  C
  H139     1.0000 0.99340  0.34910  0.47770  Biso   1.000  H
  H140     1.0000 0.89480  0.41270  0.51880  Biso   1.000  H
  C144     1.0000 0.90979  0.49620  0.47259  Biso   1.000  C
  N30      1.0000 0.85859  0.16240  0.67717  Biso   1.000  N
  H141     1.0000 0.90050  0.07950  0.70580  Biso   1.000  H
  H142     1.0000 0.82390  0.24880  0.63940  Biso   1.000  H
  N31      1.0000 0.93511  0.51550  0.44755  Biso   1.000  N
  H143     1.0000 0.98470  0.47600  0.43340  Biso   1.000  H
  H144     1.0000 0.88780  0.53440  0.47090  Biso   1.000  H
  Zn10     1.0000 0.82646  0.14570  0.72671  Biso   1.000  Zn
  Zn11     1.0000 0.92229  0.62044  0.40234  Biso   1.000  Zn
  I27      1.0000 0.87117  0.16664  0.80180  Biso   1.000  I
  I28      1.0000 0.76460  0.23505  0.70360  Biso   1.000  I
  N32      1.0000 0.81377  0.00800  0.71904  Biso   1.000  N
  N33      1.0000 0.88159  0.55150  0.35564  Biso   1.000  N
  I29      1.0000 0.88543  0.73620  0.44190  Biso   1.000  I
  I30      1.0000 0.97793  0.65220  0.36862  Biso   1.000  I
  C145     1.0000 0.84986  0.59060  0.33178  Biso   1.000  C
  C146     1.0000 0.88975  0.46780  0.34620  Biso   1.000  C
  H145     1.0000 0.84380  0.65050  0.33850  Biso   1.000  H
  C147     1.0000 0.82546  0.54580  0.29737  Biso   1.000  C
  C148     1.0000 0.86671  0.41820  0.31312  Biso   1.000  C
  H146     1.0000 0.91250  0.44050  0.36310  Biso   1.000  H
  C149     1.0000 0.83377  0.45800  0.28806  Biso   1.000  C
  H147     1.0000 0.80330  0.57520  0.28040  Biso   1.000  H
  H148     1.0000 0.87330  0.35810  0.30760  Biso   1.000  H
  C150     1.0000 0.80906  0.40580  0.25228  Biso   1.000  C
  N34      1.0000 0.81904  0.32033  0.24781  Biso   1.000  N
  N35      1.0000 0.77826  0.44698  0.22760  Biso   1.000  N
  C151     1.0000 0.79442  0.27450  0.21680  Biso   1.000  C
  C152     1.0000 0.75749  0.39660  0.19526  Biso   1.000  C
  N36      1.0000 0.76400  0.30950  0.18868  Biso   1.000  N
  C153     1.0000 0.80141  0.17630  0.21584  Biso   1.000  C
  C154     1.0000 0.72509  0.44200  0.16514  Biso   1.000  C
  C155     1.0000 0.77535  0.11840  0.19011  Biso   1.000  C
  C156     1.0000 0.83395  0.13940  0.24291  Biso   1.000  C
  C157     1.0000 0.70320  0.39810  0.12850  Biso   1.000  C
  C158     1.0000 0.71578  0.53040  0.17291  Biso   1.000  C
  H149     1.0000 0.75280  0.14090  0.17080  Biso   1.000  H
  C159     1.0000 0.78279  0.02680  0.19305  Biso   1.000  C
  C160     1.0000 0.83935  0.04800  0.24315  Biso   1.000  C
  H150     1.0000 0.85240  0.17690  0.26120  Biso   1.000  H
  C161     1.0000 0.67453  0.44550  0.10073  Biso   1.000  C
  H151     1.0000 0.70800  0.33690  0.12280  Biso   1.000  H
  C162     1.0000 0.68612  0.57240  0.14365  Biso   1.000  C
  H152     1.0000 0.72970  0.56160  0.19810  Biso   1.000  H
  H153     1.0000 0.76470  0.98730  0.17550  Biso   1.000  H
  H154     1.0000 0.86220  0.02370  0.26120  Biso   1.000  H
  H155     1.0000 0.66010  0.41600  0.07530  Biso   1.000  H
  H156     1.0000 0.67980  0.63270  0.14920  Biso   1.000  H
  C163     1.0000 0.21950  0.29480  0.05910  Biso   1.000  C
  H157     1.0000 0.21810  0.27580  0.08930  Biso   1.000  H
  H158     1.0000 0.21200  0.24290  0.03910  Biso   1.000  H
  C164     1.0000 0.25900  0.32100  0.05820  Biso   1.000  C
  H159     1.0000 0.26120  0.33220  0.02730  Biso   1.000  H
  H160     1.0000 0.27700  0.27130  0.06990  Biso   1.000  H
  C165     1.0000 0.27090  0.40430  0.08530  Biso   1.000  C
  H161     1.0000 0.27110  0.39110  0.11670  Biso   1.000  H
  H162     1.0000 0.29760  0.42150  0.08290  Biso   1.000  H
  C166     1.0000 0.24430  0.48010  0.07070  Biso   1.000  C
  H163     1.0000 0.24490  0.49600  0.03980  Biso   1.000  H
  H164     1.0000 0.25270  0.53310  0.08950  Biso   1.000  H
  C167     1.0000 0.20390  0.45380  0.07400  Biso   1.000  C
  H165     1.0000 0.18580  0.50450  0.06450  Biso   1.000  H
  H166     1.0000 0.20320  0.43930  0.10500  Biso   1.000  H
  C168     1.0000 0.19080  0.37200  0.04470  Biso   1.000  C
  H167     1.0000 0.19010  0.38740  0.01340  Biso   1.000  H
  H168     1.0000 0.16430  0.35370  0.04750  Biso   1.000  H
  I31      1.0000 0.14812  0.91112  0.48974  Biso   1.000  I
  I32      1.0000 0.10916  0.75735  0.60007  Biso   1.000  I
  I33      1.0000 0.48169  0.86040  0.86598  Biso   1.000  I
  I34      1.0000 0.38683  0.76131  0.93588  Biso   1.000  I
  Zn12     1.0000 0.32270  0.35430  0.21860  Biso   1.000  Zn
  I35      1.0000 0.36622  0.32010  0.29309  Biso   1.000  I
  I36      1.0000 0.25713  0.27320  0.19160  Biso   1.000  I
  C169     1.0000 0.22300  0.53900  0.05600  Biso   1.000  C
  C170     1.0000 0.25900  0.58500  0.08500  Biso   1.000  C
  H169     1.0000 0.25480  0.64260  0.09640  Biso   1.000  H
  C171     1.0000 0.29600  0.54900  0.09700  Biso   1.000  C
  H170     1.0000 0.31380  0.58740  0.11470  Biso   1.000  H
  C172     1.0000 0.31200  0.46800  0.08700  Biso   1.000  C
  C173     1.0000 0.29100  0.39600  0.06000  Biso   1.000  C
  H171     1.0000 0.30690  0.34520  0.05660  Biso   1.000  H
  C174     1.0000 0.25100  0.38800  0.03700  Biso   1.000  C
  C175     1.0000 0.21900  0.45700  0.03600  Biso   1.000  C
  C176     1.0000 0.18900  0.41800  0.01200  Biso   1.000  C
  H172     1.0000 0.16370  0.44300  0.00400  Biso   1.000  H
  C177     1.0000 0.20100  0.33000  0.99800  Biso   1.000  C
  H173     1.0000 0.18240  0.29200  0.97970  Biso   1.000  H
  C178     1.0000 0.23600  0.30800  0.01100  Biso   1.000  C
  C179     1.0000 0.18900  0.59900  0.05200  Biso   1.000  C
  H174     1.0000 0.19660  0.65430  0.06880  Biso   1.000  H
  H175     1.0000 0.17900  0.61320  0.02110  Biso   1.000  H
  H176     1.0000 0.16840  0.56880  0.06410  Biso   1.000  H
  C180     1.0000 0.35500  0.45500  0.10600  Biso   1.000  C
  H177     1.0000 0.36000  0.41770  0.13400  Biso   1.000  H
  C181     1.0000 0.37300  0.41000  0.06900  Biso   1.000  C
  H178     1.0000 0.40060  0.39950  0.07920  Biso   1.000  H
  H179     1.0000 0.35950  0.35260  0.06020  Biso   1.000  H
  H180     1.0000 0.36860  0.45010  0.04300  Biso   1.000  H
  C182     1.0000 0.37700  0.55200  0.11300  Biso   1.000  C
  H181     1.0000 0.40480  0.54290  0.12590  Biso   1.000  H
  H182     1.0000 0.37400  0.58230  0.08480  Biso   1.000  H
  H183     1.0000 0.36540  0.58840  0.13350  Biso   1.000  H
  C183     1.0000 0.26200  0.22200  0.00600  Biso   1.000  C
  H184     1.0000 0.28890  0.23260  0.02180  Biso   1.000  H
  H185     1.0000 0.25150  0.16890  0.01730  Biso   1.000  H
  H186     1.0000 0.26220  0.21330  0.97430  Biso   1.000  H
  C184     1.0000 0.38620  0.65620  0.07540  Biso   1.000  C
  H187     1.0000 0.37500  0.63230  0.04560  Biso   1.000  H
  H188     1.0000 0.39110  0.72150  0.07410  Biso   1.000  H
  C185     1.0000 0.42270  0.60140  0.10050  Biso   1.000  C
  H189     1.0000 0.41870  0.53610  0.09530  Biso   1.000  H
  H190     1.0000 0.44660  0.62000  0.09070  Biso   1.000  H
  C186     1.0000 0.42550  0.62330  0.14810  Biso   1.000  C
  H191     1.0000 0.45310  0.61840  0.16360  Biso   1.000  H
  H192     1.0000 0.41050  0.57830  0.16110  Biso   1.000  H
  C187     1.0000 0.41010  0.72060  0.15640  Biso   1.000  C
  H193     1.0000 0.42250  0.76670  0.14090  Biso   1.000  H
  H194     1.0000 0.41570  0.73480  0.18840  Biso   1.000  H
  C188     1.0000 0.36410  0.71740  0.13730  Biso   1.000  C
  H195     1.0000 0.34920  0.71610  0.16120  Biso   1.000  H
  H196     1.0000 0.35520  0.76870  0.11740  Biso   1.000  H
  C189     1.0000 0.36110  0.62900  0.11230  Biso   1.000  C
  H197     1.0000 0.33370  0.61370  0.09880  Biso   1.000  H
  H198     1.0000 0.37320  0.57880  0.13130  Biso   1.000  H
  I37      1.0000 0.64998  0.41320  0.48845  Biso   1.000  I
  Zn13     1.0000 0.62515  0.40124  0.56105  Biso   1.000  Zn
  I38      1.0000 0.60855  0.26060  0.59330  Biso   1.000  I
  N37      1.0000 0.66595  0.46870  0.60779  Biso   1.000  N
  N38      1.0000 0.57697  0.48420  0.55606  Biso   1.000  N
  C190     1.0000 0.56365  0.53560  0.52123  Biso   1.000  C
  C191     1.0000 0.55940  0.48810  0.58973  Biso   1.000  C
  C192     1.0000 0.53266  0.59350  0.51970  Biso   1.000  C
  H199     1.0000 0.57580  0.53260  0.49660  Biso   1.000  H
  C193     1.0000 0.52860  0.54450  0.59114  Biso   1.000  C
  H200     1.0000 0.56840  0.44990  0.61430  Biso   1.000  H
  H201     1.0000 0.52380  0.62990  0.49440  Biso   1.000  H
  C194     1.0000 0.51464  0.59790  0.55509  Biso   1.000  C
  H202     1.0000 0.51720  0.54640  0.61640  Biso   1.000  H
  C195     1.0000 0.48230  0.66090  0.55609  Biso   1.000  C
  N39      1.0000 0.46069  0.64630  0.58608  Biso   1.000  N
  N40      1.0000 0.47769  0.72870  0.52713  Biso   1.000  N
  C196     1.0000 0.43234  0.70640  0.58590  Biso   1.000  C
  C197     1.0000 0.44939  0.78670  0.53149  Biso   1.000  C
  C198     1.0000 0.40673  0.69160  0.61764  Biso   1.000  C
  N41      1.0000 0.42545  0.77790  0.55960  Biso   1.000  N
  C199     1.0000 0.44508  0.86770  0.50298  Biso   1.000  C
  C200     1.0000 0.41771  0.63230  0.65282  Biso   1.000  C
  C201     1.0000 0.37148  0.73630  0.61302  Biso   1.000  C
  C202     1.0000 0.47154  0.88700  0.47713  Biso   1.000  C
  C203     1.0000 0.41348  0.92360  0.50111  Biso   1.000  C
  H203     1.0000 0.44180  0.60100  0.65690  Biso   1.000  H
  C204     1.0000 0.39293  0.61970  0.68177  Biso   1.000  C
  H204     1.0000 0.36340  0.77800  0.58970  Biso   1.000  H
  C205     1.0000 0.34832  0.71910  0.64304  Biso   1.000  C
  C206     1.0000 0.46590  0.96210  0.45038  Biso   1.000  C
  H205     1.0000 0.49340  0.84910  0.47770  Biso   1.000  H
  H206     1.0000 0.39480  0.91270  0.51880  Biso   1.000  H
  C207     1.0000 0.40979  0.99620  0.47259  Biso   1.000  C
  N42      1.0000 0.35859  0.66240  0.67717  Biso   1.000  N
  H207     1.0000 0.40050  0.57950  0.70580  Biso   1.000  H
  H208     1.0000 0.32390  0.74880  0.63940  Biso   1.000  H
  N43      1.0000 0.43511  0.01550  0.44755  Biso   1.000  N
  H209     1.0000 0.48470  0.97600  0.43340  Biso   1.000  H
  H210     1.0000 0.38780  0.03440  0.47090  Biso   1.000  H
  Zn14     1.0000 0.32646  0.64570  0.72671  Biso   1.000  Zn
  Zn15     1.0000 0.42229  0.12044  0.40234  Biso   1.000  Zn
  I39      1.0000 0.37117  0.66664  0.80180  Biso   1.000  I
  I40      1.0000 0.26460  0.73505  0.70360  Biso   1.000  I
  N44      1.0000 0.31377  0.50800  0.71904  Biso   1.000  N
  N45      1.0000 0.38159  0.05150  0.35564  Biso   1.000  N
  I41      1.0000 0.38543  0.23620  0.44190  Biso   1.000  I
  I42      1.0000 0.47793  0.15220  0.36862  Biso   1.000  I
  C208     1.0000 0.34986  0.09060  0.33178  Biso   1.000  C
  C209     1.0000 0.38975  0.96780  0.34620  Biso   1.000  C
  H211     1.0000 0.34380  0.15050  0.33850  Biso   1.000  H
  C210     1.0000 0.32546  0.04580  0.29737  Biso   1.000  C
  C211     1.0000 0.36671  0.91820  0.31312  Biso   1.000  C
  H212     1.0000 0.41250  0.94050  0.36310  Biso   1.000  H
  C212     1.0000 0.33377  0.95800  0.28806  Biso   1.000  C
  H213     1.0000 0.30330  0.07520  0.28040  Biso   1.000  H
  H214     1.0000 0.37330  0.85810  0.30760  Biso   1.000  H
  C213     1.0000 0.30906  0.90580  0.25228  Biso   1.000  C
  N46      1.0000 0.31904  0.82033  0.24781  Biso   1.000  N
  N47      1.0000 0.27826  0.94698  0.22760  Biso   1.000  N
  C214     1.0000 0.29442  0.77450  0.21680  Biso   1.000  C
  C215     1.0000 0.25749  0.89660  0.19526  Biso   1.000  C
  N48      1.0000 0.26400  0.80950  0.18868  Biso   1.000  N
  C216     1.0000 0.30141  0.67630  0.21584  Biso   1.000  C
  C217     1.0000 0.22509  0.94200  0.16514  Biso   1.000  C
  C218     1.0000 0.27535  0.61840  0.19011  Biso   1.000  C
  C219     1.0000 0.33395  0.63940  0.24291  Biso   1.000  C
  C220     1.0000 0.20320  0.89810  0.12850  Biso   1.000  C
  C221     1.0000 0.21578  0.03040  0.17291  Biso   1.000  C
  H215     1.0000 0.25280  0.64090  0.17080  Biso   1.000  H
  C222     1.0000 0.28279  0.52680  0.19305  Biso   1.000  C
  C223     1.0000 0.33935  0.54800  0.24315  Biso   1.000  C
  H216     1.0000 0.35240  0.67690  0.26120  Biso   1.000  H
  C224     1.0000 0.17453  0.94550  0.10073  Biso   1.000  C
  H217     1.0000 0.20800  0.83690  0.12280  Biso   1.000  H
  C225     1.0000 0.18612  0.07240  0.14365  Biso   1.000  C
  H218     1.0000 0.22970  0.06160  0.19810  Biso   1.000  H
  H219     1.0000 0.26470  0.48730  0.17550  Biso   1.000  H
  H220     1.0000 0.36220  0.52370  0.26120  Biso   1.000  H
  H221     1.0000 0.16010  0.91600  0.07530  Biso   1.000  H
  H222     1.0000 0.17980  0.13270  0.14920  Biso   1.000  H
  C226     1.0000 0.71950  0.79480  0.05910  Biso   1.000  C
  H223     1.0000 0.71810  0.77580  0.08930  Biso   1.000  H
  H224     1.0000 0.71200  0.74290  0.03910  Biso   1.000  H
  C227     1.0000 0.75900  0.82100  0.05820  Biso   1.000  C
  H225     1.0000 0.76120  0.83220  0.02730  Biso   1.000  H
  H226     1.0000 0.77700  0.77130  0.06990  Biso   1.000  H
  C228     1.0000 0.77090  0.90430  0.08530  Biso   1.000  C
  H227     1.0000 0.77110  0.89110  0.11670  Biso   1.000  H
  H228     1.0000 0.79760  0.92150  0.08290  Biso   1.000  H
  C229     1.0000 0.74430  0.98010  0.07070  Biso   1.000  C
  H229     1.0000 0.74490  0.99600  0.03980  Biso   1.000  H
  H230     1.0000 0.75270  0.03310  0.08950  Biso   1.000  H
  C230     1.0000 0.70390  0.95380  0.07400  Biso   1.000  C
  H231     1.0000 0.68580  0.00450  0.06450  Biso   1.000  H
  H232     1.0000 0.70320  0.93930  0.10500  Biso   1.000  H
  C231     1.0000 0.69080  0.87200  0.04470  Biso   1.000  C
  H233     1.0000 0.69010  0.88740  0.01340  Biso   1.000  H
  H234     1.0000 0.66430  0.85370  0.04750  Biso   1.000  H
  I43      1.0000 0.64812  0.41112  0.48974  Biso   1.000  I
  I44      1.0000 0.60916  0.25735  0.60007  Biso   1.000  I
  I45      1.0000 0.98169  0.36040  0.86598  Biso   1.000  I
  I46      1.0000 0.88683  0.26131  0.93588  Biso   1.000  I
  Zn16     1.0000 0.82270  0.85430  0.21860  Biso   1.000  Zn
  I47      1.0000 0.86622  0.82010  0.29309  Biso   1.000  I
  I48      1.0000 0.75713  0.77320  0.19160  Biso   1.000  I
  C232     1.0000 0.72300  0.03900  0.05600  Biso   1.000  C
  C233     1.0000 0.75900  0.08500  0.08500  Biso   1.000  C
  H235     1.0000 0.75480  0.14260  0.09640  Biso   1.000  H
  C234     1.0000 0.79600  0.04900  0.09700  Biso   1.000  C
  H236     1.0000 0.81380  0.08740  0.11470  Biso   1.000  H
  C235     1.0000 0.81200  0.96800  0.08700  Biso   1.000  C
  C236     1.0000 0.79100  0.89600  0.06000  Biso   1.000  C
  H237     1.0000 0.80690  0.84520  0.05660  Biso   1.000  H
  C237     1.0000 0.75100  0.88800  0.03700  Biso   1.000  C
  C238     1.0000 0.71900  0.95700  0.03600  Biso   1.000  C
  C239     1.0000 0.68900  0.91800  0.01200  Biso   1.000  C
  H238     1.0000 0.66370  0.94300  0.00400  Biso   1.000  H
  C240     1.0000 0.70100  0.83000  0.99800  Biso   1.000  C
  H239     1.0000 0.68240  0.79200  0.97970  Biso   1.000  H
  C241     1.0000 0.73600  0.80800  0.01100  Biso   1.000  C
  C242     1.0000 0.68900  0.09900  0.05200  Biso   1.000  C
  H240     1.0000 0.69660  0.15430  0.06880  Biso   1.000  H
  H241     1.0000 0.67900  0.11320  0.02110  Biso   1.000  H
  H242     1.0000 0.66840  0.06880  0.06410  Biso   1.000  H
  C243     1.0000 0.85500  0.95500  0.10600  Biso   1.000  C
  H243     1.0000 0.86000  0.91770  0.13400  Biso   1.000  H
  C244     1.0000 0.87300  0.91000  0.06900  Biso   1.000  C
  H244     1.0000 0.90060  0.89950  0.07920  Biso   1.000  H
  H245     1.0000 0.85950  0.85260  0.06020  Biso   1.000  H
  H246     1.0000 0.86860  0.95010  0.04300  Biso   1.000  H
  C245     1.0000 0.87700  0.05200  0.11300  Biso   1.000  C
  H247     1.0000 0.90480  0.04290  0.12590  Biso   1.000  H
  H248     1.0000 0.87400  0.08230  0.08480  Biso   1.000  H
  H249     1.0000 0.86540  0.08840  0.13350  Biso   1.000  H
  C246     1.0000 0.76200  0.72200  0.00600  Biso   1.000  C
  H250     1.0000 0.78890  0.73260  0.02180  Biso   1.000  H
  H251     1.0000 0.75150  0.66890  0.01730  Biso   1.000  H
  H252     1.0000 0.76220  0.71330  0.97430  Biso   1.000  H
  C247     1.0000 0.88620  0.15620  0.07540  Biso   1.000  C
  H253     1.0000 0.87500  0.13230  0.04560  Biso   1.000  H
  H254     1.0000 0.89110  0.22150  0.07410  Biso   1.000  H
  C248     1.0000 0.92270  0.10140  0.10050  Biso   1.000  C
  H255     1.0000 0.91870  0.03610  0.09530  Biso   1.000  H
  H256     1.0000 0.94660  0.12000  0.09070  Biso   1.000  H
  C249     1.0000 0.92550  0.12330  0.14810  Biso   1.000  C
  H257     1.0000 0.95310  0.11840  0.16360  Biso   1.000  H
  H258     1.0000 0.91050  0.07830  0.16110  Biso   1.000  H
  C250     1.0000 0.91010  0.22060  0.15640  Biso   1.000  C
  H259     1.0000 0.92250  0.26670  0.14090  Biso   1.000  H
  H260     1.0000 0.91570  0.23480  0.18840  Biso   1.000  H
  C251     1.0000 0.86410  0.21740  0.13730  Biso   1.000  C
  H261     1.0000 0.84920  0.21610  0.16120  Biso   1.000  H
  H262     1.0000 0.85520  0.26870  0.11740  Biso   1.000  H
  C252     1.0000 0.86110  0.12900  0.11230  Biso   1.000  C
  H263     1.0000 0.83370  0.11370  0.09880  Biso   1.000  H
  H264     1.0000 0.87320  0.07880  0.13130  Biso   1.000  H
  I49      1.0000 0.14998  0.08680  0.98845  Biso   1.000  I
  Zn17     1.0000 0.12515  0.09876  0.06105  Biso   1.000  Zn
  I50      1.0000 0.10855  0.23940  0.09330  Biso   1.000  I
  N49      1.0000 0.16595  0.03130  0.10779  Biso   1.000  N
  N50      1.0000 0.07697  0.01580  0.05606  Biso   1.000  N
  C253     1.0000 0.06365  0.96440  0.02123  Biso   1.000  C
  C254     1.0000 0.05940  0.01190  0.08973  Biso   1.000  C
  C255     1.0000 0.03266  0.90650  0.01970  Biso   1.000  C
  H265     1.0000 0.07580  0.96740  0.99660  Biso   1.000  H
  C256     1.0000 0.02860  0.95550  0.09114  Biso   1.000  C
  H266     1.0000 0.06840  0.05010  0.11430  Biso   1.000  H
  H267     1.0000 0.02380  0.87010  0.99440  Biso   1.000  H
  C257     1.0000 0.01464  0.90210  0.05509  Biso   1.000  C
  H268     1.0000 0.01720  0.95360  0.11640  Biso   1.000  H
  C258     1.0000 0.98230  0.83910  0.05609  Biso   1.000  C
  N51      1.0000 0.96069  0.85370  0.08608  Biso   1.000  N
  N52      1.0000 0.97769  0.77130  0.02713  Biso   1.000  N
  C259     1.0000 0.93234  0.79360  0.08590  Biso   1.000  C
  C260     1.0000 0.94939  0.71330  0.03149  Biso   1.000  C
  C261     1.0000 0.90673  0.80840  0.11764  Biso   1.000  C
  N53      1.0000 0.92545  0.72210  0.05960  Biso   1.000  N
  C262     1.0000 0.94508  0.63230  0.00298  Biso   1.000  C
  C263     1.0000 0.91771  0.86770  0.15282  Biso   1.000  C
  C264     1.0000 0.87148  0.76370  0.11302  Biso   1.000  C
  C265     1.0000 0.97154  0.61300  0.97713  Biso   1.000  C
  C266     1.0000 0.91348  0.57640  0.00111  Biso   1.000  C
  H269     1.0000 0.94180  0.89900  0.15690  Biso   1.000  H
  C267     1.0000 0.89293  0.88030  0.18177  Biso   1.000  C
  H270     1.0000 0.86340  0.72200  0.08970  Biso   1.000  H
  C268     1.0000 0.84832  0.78090  0.14304  Biso   1.000  C
  C269     1.0000 0.96590  0.53790  0.95038  Biso   1.000  C
  H271     1.0000 0.99340  0.65090  0.97770  Biso   1.000  H
  H272     1.0000 0.89480  0.58730  0.01880  Biso   1.000  H
  C270     1.0000 0.90979  0.50380  0.97259  Biso   1.000  C
  N54      1.0000 0.85859  0.83760  0.17717  Biso   1.000  N
  H273     1.0000 0.90050  0.92050  0.20580  Biso   1.000  H
  H274     1.0000 0.82390  0.75120  0.13940  Biso   1.000  H
  N55      1.0000 0.93511  0.48450  0.94755  Biso   1.000  N
  H275     1.0000 0.98470  0.52400  0.93340  Biso   1.000  H
  H276     1.0000 0.88780  0.46560  0.97090  Biso   1.000  H
  Zn18     1.0000 0.82646  0.85430  0.22671  Biso   1.000  Zn
  Zn19     1.0000 0.92229  0.37956  0.90234  Biso   1.000  Zn
  I51      1.0000 0.87117  0.83336  0.30180  Biso   1.000  I
  I52      1.0000 0.76460  0.76495  0.20360  Biso   1.000  I
  N56      1.0000 0.81377  0.99200  0.21904  Biso   1.000  N
  N57      1.0000 0.88159  0.44850  0.85564  Biso   1.000  N
  I53      1.0000 0.88543  0.26380  0.94190  Biso   1.000  I
  I54      1.0000 0.97793  0.34780  0.86862  Biso   1.000  I
  C271     1.0000 0.84986  0.40940  0.83178  Biso   1.000  C
  C272     1.0000 0.88975  0.53220  0.84620  Biso   1.000  C
  H277     1.0000 0.84380  0.34950  0.83850  Biso   1.000  H
  C273     1.0000 0.82546  0.45420  0.79737  Biso   1.000  C
  C274     1.0000 0.86671  0.58180  0.81312  Biso   1.000  C
  H278     1.0000 0.91250  0.55950  0.86310  Biso   1.000  H
  C275     1.0000 0.83377  0.54200  0.78806  Biso   1.000  C
  H279     1.0000 0.80330  0.42480  0.78040  Biso   1.000  H
  H280     1.0000 0.87330  0.64190  0.80760  Biso   1.000  H
  C276     1.0000 0.80906  0.59420  0.75228  Biso   1.000  C
  N58      1.0000 0.81904  0.67967  0.74781  Biso   1.000  N
  N59      1.0000 0.77826  0.55302  0.72760  Biso   1.000  N
  C277     1.0000 0.79442  0.72550  0.71680  Biso   1.000  C
  C278     1.0000 0.75749  0.60340  0.69526  Biso   1.000  C
  N60      1.0000 0.76400  0.69050  0.68868  Biso   1.000  N
  C279     1.0000 0.80141  0.82370  0.71584  Biso   1.000  C
  C280     1.0000 0.72509  0.55800  0.66514  Biso   1.000  C
  C281     1.0000 0.77535  0.88160  0.69011  Biso   1.000  C
  C282     1.0000 0.83395  0.86060  0.74291  Biso   1.000  C
  C283     1.0000 0.70320  0.60190  0.62850  Biso   1.000  C
  C284     1.0000 0.71578  0.46960  0.67291  Biso   1.000  C
  H281     1.0000 0.75280  0.85910  0.67080  Biso   1.000  H
  C285     1.0000 0.78279  0.97320  0.69305  Biso   1.000  C
  C286     1.0000 0.83935  0.95200  0.74315  Biso   1.000  C
  H282     1.0000 0.85240  0.82310  0.76120  Biso   1.000  H
  C287     1.0000 0.67453  0.55450  0.60073  Biso   1.000  C
  H283     1.0000 0.70800  0.66310  0.62280  Biso   1.000  H
  C288     1.0000 0.68612  0.42760  0.64365  Biso   1.000  C
  H284     1.0000 0.72970  0.43840  0.69810  Biso   1.000  H
  H285     1.0000 0.76470  0.01270  0.67550  Biso   1.000  H
  H286     1.0000 0.86220  0.97630  0.76120  Biso   1.000  H
  H287     1.0000 0.66010  0.58400  0.57530  Biso   1.000  H
  H288     1.0000 0.67980  0.36730  0.64920  Biso   1.000  H
  C289     1.0000 0.21950  0.70520  0.55910  Biso   1.000  C
  H289     1.0000 0.21810  0.72420  0.58930  Biso   1.000  H
  H290     1.0000 0.21200  0.75710  0.53910  Biso   1.000  H
  C290     1.0000 0.25900  0.67900  0.55820  Biso   1.000  C
  H291     1.0000 0.26120  0.66780  0.52730  Biso   1.000  H
  H292     1.0000 0.27700  0.72870  0.56990  Biso   1.000  H
  C291     1.0000 0.27090  0.59570  0.58530  Biso   1.000  C
  H293     1.0000 0.27110  0.60890  0.61670  Biso   1.000  H
  H294     1.0000 0.29760  0.57850  0.58290  Biso   1.000  H
  C292     1.0000 0.24430  0.51990  0.57070  Biso   1.000  C
  H295     1.0000 0.24490  0.50400  0.53980  Biso   1.000  H
  H296     1.0000 0.25270  0.46690  0.58950  Biso   1.000  H
  C293     1.0000 0.20390  0.54620  0.57400  Biso   1.000  C
  H297     1.0000 0.18580  0.49550  0.56450  Biso   1.000  H
  H298     1.0000 0.20320  0.56070  0.60500  Biso   1.000  H
  C294     1.0000 0.19080  0.62800  0.54470  Biso   1.000  C
  H299     1.0000 0.19010  0.61260  0.51340  Biso   1.000  H
  H300     1.0000 0.16430  0.64630  0.54750  Biso   1.000  H
  I55      1.0000 0.14812  0.08888  0.98974  Biso   1.000  I
  I56      1.0000 0.10916  0.24265  0.10007  Biso   1.000  I
  I57      1.0000 0.48169  0.13960  0.36598  Biso   1.000  I
  I58      1.0000 0.38683  0.23869  0.43588  Biso   1.000  I
  Zn20     1.0000 0.32270  0.64570  0.71860  Biso   1.000  Zn
  I59      1.0000 0.36622  0.67990  0.79309  Biso   1.000  I
  I60      1.0000 0.25713  0.72680  0.69160  Biso   1.000  I
  C295     1.0000 0.22300  0.46100  0.55600  Biso   1.000  C
  C296     1.0000 0.25900  0.41500  0.58500  Biso   1.000  C
  H301     1.0000 0.25480  0.35740  0.59640  Biso   1.000  H
  C297     1.0000 0.29600  0.45100  0.59700  Biso   1.000  C
  H302     1.0000 0.31380  0.41260  0.61470  Biso   1.000  H
  C298     1.0000 0.31200  0.53200  0.58700  Biso   1.000  C
  C299     1.0000 0.29100  0.60400  0.56000  Biso   1.000  C
  H303     1.0000 0.30690  0.65480  0.55660  Biso   1.000  H
  C300     1.0000 0.25100  0.61200  0.53700  Biso   1.000  C
  C301     1.0000 0.21900  0.54300  0.53600  Biso   1.000  C
  C302     1.0000 0.18900  0.58200  0.51200  Biso   1.000  C
  H304     1.0000 0.16370  0.55700  0.50400  Biso   1.000  H
  C303     1.0000 0.20100  0.67000  0.49800  Biso   1.000  C
  H305     1.0000 0.18240  0.70800  0.47970  Biso   1.000  H
  C304     1.0000 0.23600  0.69200  0.51100  Biso   1.000  C
  C305     1.0000 0.18900  0.40100  0.55200  Biso   1.000  C
  H306     1.0000 0.19660  0.34570  0.56880  Biso   1.000  H
  H307     1.0000 0.17900  0.38680  0.52110  Biso   1.000  H
  H308     1.0000 0.16840  0.43120  0.56410  Biso   1.000  H
  C306     1.0000 0.35500  0.54500  0.60600  Biso   1.000  C
  H309     1.0000 0.36000  0.58230  0.63400  Biso   1.000  H
  C307     1.0000 0.37300  0.59000  0.56900  Biso   1.000  C
  H310     1.0000 0.40060  0.60050  0.57920  Biso   1.000  H
  H311     1.0000 0.35950  0.64740  0.56020  Biso   1.000  H
  H312     1.0000 0.36860  0.54990  0.54300  Biso   1.000  H
  C308     1.0000 0.37700  0.44800  0.61300  Biso   1.000  C
  H313     1.0000 0.40480  0.45710  0.62590  Biso   1.000  H
  H314     1.0000 0.37400  0.41770  0.58480  Biso   1.000  H
  H315     1.0000 0.36540  0.41160  0.63350  Biso   1.000  H
  C309     1.0000 0.26200  0.77800  0.50600  Biso   1.000  C
  H316     1.0000 0.28890  0.76740  0.52180  Biso   1.000  H
  H317     1.0000 0.25150  0.83110  0.51730  Biso   1.000  H
  H318     1.0000 0.26220  0.78670  0.47430  Biso   1.000  H
  C310     1.0000 0.38620  0.34380  0.57540  Biso   1.000  C
  H319     1.0000 0.37500  0.36770  0.54560  Biso   1.000  H
  H320     1.0000 0.39110  0.27850  0.57410  Biso   1.000  H
  C311     1.0000 0.42270  0.39860  0.60050  Biso   1.000  C
  H321     1.0000 0.41870  0.46390  0.59530  Biso   1.000  H
  H322     1.0000 0.44660  0.38000  0.59070  Biso   1.000  H
  C312     1.0000 0.42550  0.37670  0.64810  Biso   1.000  C
  H323     1.0000 0.45310  0.38160  0.66360  Biso   1.000  H
  H324     1.0000 0.41050  0.42170  0.66110  Biso   1.000  H
  C313     1.0000 0.41010  0.27940  0.65640  Biso   1.000  C
  H325     1.0000 0.42250  0.23330  0.64090  Biso   1.000  H
  H326     1.0000 0.41570  0.26520  0.68840  Biso   1.000  H
  C314     1.0000 0.36410  0.28260  0.63730  Biso   1.000  C
  H327     1.0000 0.34920  0.28390  0.66120  Biso   1.000  H
  H328     1.0000 0.35520  0.23130  0.61740  Biso   1.000  H
  C315     1.0000 0.36110  0.37100  0.61230  Biso   1.000  C
  H329     1.0000 0.33370  0.38630  0.59880  Biso   1.000  H
  H330     1.0000 0.37320  0.42120  0.63130  Biso   1.000  H
  I61      1.0000 0.64998  0.58680  0.98845  Biso   1.000  I
  Zn21     1.0000 0.62515  0.59876  0.06105  Biso   1.000  Zn
  I62      1.0000 0.60855  0.73940  0.09330  Biso   1.000  I
  N61      1.0000 0.66595  0.53130  0.10779  Biso   1.000  N
  N62      1.0000 0.57697  0.51580  0.05606  Biso   1.000  N
  C316     1.0000 0.56365  0.46440  0.02123  Biso   1.000  C
  C317     1.0000 0.55940  0.51190  0.08973  Biso   1.000  C
  C318     1.0000 0.53266  0.40650  0.01970  Biso   1.000  C
  H331     1.0000 0.57580  0.46740  0.99660  Biso   1.000  H
  C319     1.0000 0.52860  0.45550  0.09114  Biso   1.000  C
  H332     1.0000 0.56840  0.55010  0.11430  Biso   1.000  H
  H333     1.0000 0.52380  0.37010  0.99440  Biso   1.000  H
  C320     1.0000 0.51464  0.40210  0.05509  Biso   1.000  C
  H334     1.0000 0.51720  0.45360  0.11640  Biso   1.000  H
  C321     1.0000 0.48230  0.33910  0.05609  Biso   1.000  C
  N63      1.0000 0.46069  0.35370  0.08608  Biso   1.000  N
  N64      1.0000 0.47769  0.27130  0.02713  Biso   1.000  N
  C322     1.0000 0.43234  0.29360  0.08590  Biso   1.000  C
  C323     1.0000 0.44939  0.21330  0.03149  Biso   1.000  C
  C324     1.0000 0.40673  0.30840  0.11764  Biso   1.000  C
  N65      1.0000 0.42545  0.22210  0.05960  Biso   1.000  N
  C325     1.0000 0.44508  0.13230  0.00298  Biso   1.000  C
  C326     1.0000 0.41771  0.36770  0.15282  Biso   1.000  C
  C327     1.0000 0.37148  0.26370  0.11302  Biso   1.000  C
  C328     1.0000 0.47154  0.11300  0.97713  Biso   1.000  C
  C329     1.0000 0.41348  0.07640  0.00111  Biso   1.000  C
  H335     1.0000 0.44180  0.39900  0.15690  Biso   1.000  H
  C330     1.0000 0.39293  0.38030  0.18177  Biso   1.000  C
  H336     1.0000 0.36340  0.22200  0.08970  Biso   1.000  H
  C331     1.0000 0.34832  0.28090  0.14304  Biso   1.000  C
  C332     1.0000 0.46590  0.03790  0.95038  Biso   1.000  C
  H337     1.0000 0.49340  0.15090  0.97770  Biso   1.000  H
  H338     1.0000 0.39480  0.08730  0.01880  Biso   1.000  H
  C333     1.0000 0.40979  0.00380  0.97259  Biso   1.000  C
  N66      1.0000 0.35859  0.33760  0.17717  Biso   1.000  N
  H339     1.0000 0.40050  0.42050  0.20580  Biso   1.000  H
  H340     1.0000 0.32390  0.25120  0.13940  Biso   1.000  H
  N67      1.0000 0.43511  0.98450  0.94755  Biso   1.000  N
  H341     1.0000 0.48470  0.02400  0.93340  Biso   1.000  H
  H342     1.0000 0.38780  0.96560  0.97090  Biso   1.000  H
  Zn22     1.0000 0.32646  0.35430  0.22671  Biso   1.000  Zn
  Zn23     1.0000 0.42229  0.87956  0.90234  Biso   1.000  Zn
  I63      1.0000 0.37117  0.33336  0.30180  Biso   1.000  I
  I64      1.0000 0.26460  0.26495  0.20360  Biso   1.000  I
  N68      1.0000 0.31377  0.49200  0.21904  Biso   1.000  N
  N69      1.0000 0.38159  0.94850  0.85564  Biso   1.000  N
  I65      1.0000 0.38543  0.76380  0.94190  Biso   1.000  I
  I66      1.0000 0.47793  0.84780  0.86862  Biso   1.000  I
  C334     1.0000 0.34986  0.90940  0.83178  Biso   1.000  C
  C335     1.0000 0.38975  0.03220  0.84620  Biso   1.000  C
  H343     1.0000 0.34380  0.84950  0.83850  Biso   1.000  H
  C336     1.0000 0.32546  0.95420  0.79737  Biso   1.000  C
  C337     1.0000 0.36671  0.08180  0.81312  Biso   1.000  C
  H344     1.0000 0.41250  0.05950  0.86310  Biso   1.000  H
  C338     1.0000 0.33377  0.04200  0.78806  Biso   1.000  C
  H345     1.0000 0.30330  0.92480  0.78040  Biso   1.000  H
  H346     1.0000 0.37330  0.14190  0.80760  Biso   1.000  H
  C339     1.0000 0.30906  0.09420  0.75228  Biso   1.000  C
  N70      1.0000 0.31904  0.17967  0.74781  Biso   1.000  N
  N71      1.0000 0.27826  0.05302  0.72760  Biso   1.000  N
  C340     1.0000 0.29442  0.22550  0.71680  Biso   1.000  C
  C341     1.0000 0.25749  0.10340  0.69526  Biso   1.000  C
  N72      1.0000 0.26400  0.19050  0.68868  Biso   1.000  N
  C342     1.0000 0.30141  0.32370  0.71584  Biso   1.000  C
  C343     1.0000 0.22509  0.05800  0.66514  Biso   1.000  C
  C344     1.0000 0.27535  0.38160  0.69011  Biso   1.000  C
  C345     1.0000 0.33395  0.36060  0.74291  Biso   1.000  C
  C346     1.0000 0.20320  0.10190  0.62850  Biso   1.000  C
  C347     1.0000 0.21578  0.96960  0.67291  Biso   1.000  C
  H347     1.0000 0.25280  0.35910  0.67080  Biso   1.000  H
  C348     1.0000 0.28279  0.47320  0.69305  Biso   1.000  C
  C349     1.0000 0.33935  0.45200  0.74315  Biso   1.000  C
  H348     1.0000 0.35240  0.32310  0.76120  Biso   1.000  H
  C350     1.0000 0.17453  0.05450  0.60073  Biso   1.000  C
  H349     1.0000 0.20800  0.16310  0.62280  Biso   1.000  H
  C351     1.0000 0.18612  0.92760  0.64365  Biso   1.000  C
  H350     1.0000 0.22970  0.93840  0.69810  Biso   1.000  H
  H351     1.0000 0.26470  0.51270  0.67550  Biso   1.000  H
  H352     1.0000 0.36220  0.47630  0.76120  Biso   1.000  H
  H353     1.0000 0.16010  0.08400  0.57530  Biso   1.000  H
  H354     1.0000 0.17980  0.86730  0.64920  Biso   1.000  H
  C352     1.0000 0.71950  0.20520  0.55910  Biso   1.000  C
  H355     1.0000 0.71810  0.22420  0.58930  Biso   1.000  H
  H356     1.0000 0.71200  0.25710  0.53910  Biso   1.000  H
  C353     1.0000 0.75900  0.17900  0.55820  Biso   1.000  C
  H357     1.0000 0.76120  0.16780  0.52730  Biso   1.000  H
  H358     1.0000 0.77700  0.22870  0.56990  Biso   1.000  H
  C354     1.0000 0.77090  0.09570  0.58530  Biso   1.000  C
  H359     1.0000 0.77110  0.10890  0.61670  Biso   1.000  H
  H360     1.0000 0.79760  0.07850  0.58290  Biso   1.000  H
  C355     1.0000 0.74430  0.01990  0.57070  Biso   1.000  C
  H361     1.0000 0.74490  0.00400  0.53980  Biso   1.000  H
  H362     1.0000 0.75270  0.96690  0.58950  Biso   1.000  H
  C356     1.0000 0.70390  0.04620  0.57400  Biso   1.000  C
  H363     1.0000 0.68580  0.99550  0.56450  Biso   1.000  H
  H364     1.0000 0.70320  0.06070  0.60500  Biso   1.000  H
  C357     1.0000 0.69080  0.12800  0.54470  Biso   1.000  C
  H365     1.0000 0.69010  0.11260  0.51340  Biso   1.000  H
  H366     1.0000 0.66430  0.14630  0.54750  Biso   1.000  H
  I67      1.0000 0.64812  0.58888  0.98974  Biso   1.000  I
  I68      1.0000 0.60916  0.74265  0.10007  Biso   1.000  I
  I69      1.0000 0.98169  0.63960  0.36598  Biso   1.000  I
  I70      1.0000 0.88683  0.73869  0.43588  Biso   1.000  I
  Zn24     1.0000 0.82270  0.14570  0.71860  Biso   1.000  Zn
  I71      1.0000 0.86622  0.17990  0.79309  Biso   1.000  I
  I72      1.0000 0.75713  0.22680  0.69160  Biso   1.000  I
  C358     1.0000 0.72300  0.96100  0.55600  Biso   1.000  C
  C359     1.0000 0.75900  0.91500  0.58500  Biso   1.000  C
  H367     1.0000 0.75480  0.85740  0.59640  Biso   1.000  H
  C360     1.0000 0.79600  0.95100  0.59700  Biso   1.000  C
  H368     1.0000 0.81380  0.91260  0.61470  Biso   1.000  H
  C361     1.0000 0.81200  0.03200  0.58700  Biso   1.000  C
  C362     1.0000 0.79100  0.10400  0.56000  Biso   1.000  C
  H369     1.0000 0.80690  0.15480  0.55660  Biso   1.000  H
  C363     1.0000 0.75100  0.11200  0.53700  Biso   1.000  C
  C364     1.0000 0.71900  0.04300  0.53600  Biso   1.000  C
  C365     1.0000 0.68900  0.08200  0.51200  Biso   1.000  C
  H370     1.0000 0.66370  0.05700  0.50400  Biso   1.000  H
  C366     1.0000 0.70100  0.17000  0.49800  Biso   1.000  C
  H371     1.0000 0.68240  0.20800  0.47970  Biso   1.000  H
  C367     1.0000 0.73600  0.19200  0.51100  Biso   1.000  C
  C368     1.0000 0.68900  0.90100  0.55200  Biso   1.000  C
  H372     1.0000 0.69660  0.84570  0.56880  Biso   1.000  H
  H373     1.0000 0.67900  0.88680  0.52110  Biso   1.000  H
  H374     1.0000 0.66840  0.93120  0.56410  Biso   1.000  H
  C369     1.0000 0.85500  0.04500  0.60600  Biso   1.000  C
  H375     1.0000 0.86000  0.08230  0.63400  Biso   1.000  H
  C370     1.0000 0.87300  0.09000  0.56900  Biso   1.000  C
  H376     1.0000 0.90060  0.10050  0.57920  Biso   1.000  H
  H377     1.0000 0.85950  0.14740  0.56020  Biso   1.000  H
  H378     1.0000 0.86860  0.04990  0.54300  Biso   1.000  H
  C371     1.0000 0.87700  0.94800  0.61300  Biso   1.000  C
  H379     1.0000 0.90480  0.95710  0.62590  Biso   1.000  H
  H380     1.0000 0.87400  0.91770  0.58480  Biso   1.000  H
  H381     1.0000 0.86540  0.91160  0.63350  Biso   1.000  H
  C372     1.0000 0.76200  0.27800  0.50600  Biso   1.000  C
  H382     1.0000 0.78890  0.26740  0.52180  Biso   1.000  H
  H383     1.0000 0.75150  0.33110  0.51730  Biso   1.000  H
  H384     1.0000 0.76220  0.28670  0.47430  Biso   1.000  H
  C373     1.0000 0.88620  0.84380  0.57540  Biso   1.000  C
  H385     1.0000 0.87500  0.86770  0.54560  Biso   1.000  H
  H386     1.0000 0.89110  0.77850  0.57410  Biso   1.000  H
  C374     1.0000 0.92270  0.89860  0.60050  Biso   1.000  C
  H387     1.0000 0.91870  0.96390  0.59530  Biso   1.000  H
  H388     1.0000 0.94660  0.88000  0.59070  Biso   1.000  H
  C375     1.0000 0.92550  0.87670  0.64810  Biso   1.000  C
  H389     1.0000 0.95310  0.88160  0.66360  Biso   1.000  H
  H390     1.0000 0.91050  0.92170  0.66110  Biso   1.000  H
  C376     1.0000 0.91010  0.77940  0.65640  Biso   1.000  C
  H391     1.0000 0.92250  0.73330  0.64090  Biso   1.000  H
  H392     1.0000 0.91570  0.76520  0.68840  Biso   1.000  H
  C377     1.0000 0.86410  0.78260  0.63730  Biso   1.000  C
  H393     1.0000 0.84920  0.78390  0.66120  Biso   1.000  H
  H394     1.0000 0.85520  0.73130  0.61740  Biso   1.000  H
  C378     1.0000 0.86110  0.87100  0.61230  Biso   1.000  C
  H395     1.0000 0.83370  0.88630  0.59880  Biso   1.000  H
  H396     1.0000 0.87320  0.92120  0.63130  Biso   1.000  H
  I73      1.0000 0.85002  0.08680  0.51155  Biso   1.000  I
  Zn25     1.0000 0.87485  0.09876  0.43895  Biso   1.000  Zn
  I74      1.0000 0.89145  0.23940  0.40670  Biso   1.000  I
  N73      1.0000 0.83405  0.03130  0.39221  Biso   1.000  N
  N74      1.0000 0.92303  0.01580  0.44394  Biso   1.000  N
  C379     1.0000 0.93635  0.96440  0.47877  Biso   1.000  C
  C380     1.0000 0.94060  0.01190  0.41027  Biso   1.000  C
  C381     1.0000 0.96734  0.90650  0.48030  Biso   1.000  C
  H397     1.0000 0.92420  0.96740  0.50340  Biso   1.000  H
  C382     1.0000 0.97140  0.95550  0.40886  Biso   1.000  C
  H398     1.0000 0.93160  0.05010  0.38570  Biso   1.000  H
  H399     1.0000 0.97620  0.87010  0.50560  Biso   1.000  H
  C383     1.0000 0.98536  0.90210  0.44491  Biso   1.000  C
  H400     1.0000 0.98280  0.95360  0.38360  Biso   1.000  H
  C384     1.0000 0.01770  0.83910  0.44391  Biso   1.000  C
  N75      1.0000 0.03931  0.85370  0.41392  Biso   1.000  N
  N76      1.0000 0.02231  0.77130  0.47287  Biso   1.000  N
  C385     1.0000 0.06766  0.79360  0.41410  Biso   1.000  C
  C386     1.0000 0.05061  0.71330  0.46851  Biso   1.000  C
  C387     1.0000 0.09327  0.80840  0.38236  Biso   1.000  C
  N77      1.0000 0.07455  0.72210  0.44040  Biso   1.000  N
  C388     1.0000 0.05492  0.63230  0.49702  Biso   1.000  C
  C389     1.0000 0.08229  0.86770  0.34718  Biso   1.000  C
  C390     1.0000 0.12852  0.76370  0.38698  Biso   1.000  C
  C391     1.0000 0.02846  0.61300  0.52287  Biso   1.000  C
  C392     1.0000 0.08652  0.57640  0.49889  Biso   1.000  C
  H401     1.0000 0.05820  0.89900  0.34310  Biso   1.000  H
  C393     1.0000 0.10707  0.88030  0.31823  Biso   1.000  C
  H402     1.0000 0.13660  0.72200  0.41030  Biso   1.000  H
  C394     1.0000 0.15168  0.78090  0.35696  Biso   1.000  C
  C395     1.0000 0.03410  0.53790  0.54962  Biso   1.000  C
  H403     1.0000 0.00660  0.65090  0.52230  Biso   1.000  H
  H404     1.0000 0.10520  0.58730  0.48120  Biso   1.000  H
  C396     1.0000 0.09021  0.50380  0.52741  Biso   1.000  C
  N78      1.0000 0.14141  0.83760  0.32283  Biso   1.000  N
  H405     1.0000 0.09950  0.92050  0.29420  Biso   1.000  H
  H406     1.0000 0.17610  0.75120  0.36060  Biso   1.000  H
  N79      1.0000 0.06489  0.48450  0.55245  Biso   1.000  N
  H407     1.0000 0.01530  0.52400  0.56660  Biso   1.000  H
  H408     1.0000 0.11220  0.46560  0.52910  Biso   1.000  H
  Zn26     1.0000 0.17354  0.85430  0.27329  Biso   1.000  Zn
  Zn27     1.0000 0.07771  0.37956  0.59766  Biso   1.000  Zn
  I75      1.0000 0.12883  0.83336  0.19820  Biso   1.000  I
  I76      1.0000 0.23540  0.76495  0.29640  Biso   1.000  I
  N80      1.0000 0.18623  0.99200  0.28096  Biso   1.000  N
  N81      1.0000 0.11841  0.44850  0.64436  Biso   1.000  N
  I77      1.0000 0.11457  0.26380  0.55810  Biso   1.000  I
  I78      1.0000 0.02207  0.34780  0.63138  Biso   1.000  I
  C397     1.0000 0.15014  0.40940  0.66822  Biso   1.000  C
  C398     1.0000 0.11025  0.53220  0.65380  Biso   1.000  C
  H409     1.0000 0.15620  0.34950  0.66150  Biso   1.000  H
  C399     1.0000 0.17454  0.45420  0.70263  Biso   1.000  C
  C400     1.0000 0.13329  0.58180  0.68688  Biso   1.000  C
  H410     1.0000 0.08750  0.55950  0.63690  Biso   1.000  H
  C401     1.0000 0.16623  0.54200  0.71194  Biso   1.000  C
  H411     1.0000 0.19670  0.42480  0.71960  Biso   1.000  H
  H412     1.0000 0.12670  0.64190  0.69240  Biso   1.000  H
  C402     1.0000 0.19094  0.59420  0.74772  Biso   1.000  C
  N82      1.0000 0.18096  0.67967  0.75219  Biso   1.000  N
  N83      1.0000 0.22174  0.55302  0.77240  Biso   1.000  N
  C403     1.0000 0.20558  0.72550  0.78320  Biso   1.000  C
  C404     1.0000 0.24251  0.60340  0.80474  Biso   1.000  C
  N84      1.0000 0.23600  0.69050  0.81132  Biso   1.000  N
  C405     1.0000 0.19859  0.82370  0.78416  Biso   1.000  C
  C406     1.0000 0.27491  0.55800  0.83486  Biso   1.000  C
  C407     1.0000 0.22465  0.88160  0.80989  Biso   1.000  C
  C408     1.0000 0.16605  0.86060  0.75709  Biso   1.000  C
  C409     1.0000 0.29680  0.60190  0.87150  Biso   1.000  C
  C410     1.0000 0.28422  0.46960  0.82709  Biso   1.000  C
  H413     1.0000 0.24720  0.85910  0.82920  Biso   1.000  H
  C411     1.0000 0.21721  0.97320  0.80695  Biso   1.000  C
  C412     1.0000 0.16065  0.95200  0.75685  Biso   1.000  C
  H414     1.0000 0.14760  0.82310  0.73880  Biso   1.000  H
  C413     1.0000 0.32547  0.55450  0.89927  Biso   1.000  C
  H415     1.0000 0.29200  0.66310  0.87720  Biso   1.000  H
  C414     1.0000 0.31388  0.42760  0.85635  Biso   1.000  C
  H416     1.0000 0.27030  0.43840  0.80190  Biso   1.000  H
  H417     1.0000 0.23530  0.01270  0.82450  Biso   1.000  H
  H418     1.0000 0.13780  0.97630  0.73880  Biso   1.000  H
  H419     1.0000 0.33990  0.58400  0.92470  Biso   1.000  H
  H420     1.0000 0.32020  0.36730  0.85080  Biso   1.000  H
  C415     1.0000 0.78050  0.70520  0.94090  Biso   1.000  C
  H421     1.0000 0.78190  0.72420  0.91070  Biso   1.000  H
  H422     1.0000 0.78800  0.75710  0.96090  Biso   1.000  H
  C416     1.0000 0.74100  0.67900  0.94180  Biso   1.000  C
  H423     1.0000 0.73880  0.66780  0.97270  Biso   1.000  H
  H424     1.0000 0.72300  0.72870  0.93010  Biso   1.000  H
  C417     1.0000 0.72910  0.59570  0.91470  Biso   1.000  C
  H425     1.0000 0.72890  0.60890  0.88330  Biso   1.000  H
  H426     1.0000 0.70240  0.57850  0.91710  Biso   1.000  H
  C418     1.0000 0.75570  0.51990  0.92930  Biso   1.000  C
  H427     1.0000 0.75510  0.50400  0.96020  Biso   1.000  H
  H428     1.0000 0.74730  0.46690  0.91050  Biso   1.000  H
  C419     1.0000 0.79610  0.54620  0.92600  Biso   1.000  C
  H429     1.0000 0.81420  0.49550  0.93550  Biso   1.000  H
  H430     1.0000 0.79680  0.56070  0.89500  Biso   1.000  H
  C420     1.0000 0.80920  0.62800  0.95530  Biso   1.000  C
  H431     1.0000 0.80990  0.61260  0.98660  Biso   1.000  H
  H432     1.0000 0.83570  0.64630  0.95250  Biso   1.000  H
  I79      1.0000 0.85188  0.08888  0.51026  Biso   1.000  I
  I80      1.0000 0.89084  0.24265  0.39993  Biso   1.000  I
  I81      1.0000 0.51831  0.13960  0.13402  Biso   1.000  I
  I82      1.0000 0.61317  0.23869  0.06412  Biso   1.000  I
  Zn28     1.0000 0.67730  0.64570  0.78140  Biso   1.000  Zn
  I83      1.0000 0.63378  0.67990  0.70691  Biso   1.000  I
  I84      1.0000 0.74287  0.72680  0.80840  Biso   1.000  I
  C421     1.0000 0.77700  0.46100  0.94400  Biso   1.000  C
  C422     1.0000 0.74100  0.41500  0.91500  Biso   1.000  C
  H433     1.0000 0.74520  0.35740  0.90360  Biso   1.000  H
  C423     1.0000 0.70400  0.45100  0.90300  Biso   1.000  C
  H434     1.0000 0.68620  0.41260  0.88530  Biso   1.000  H
  C424     1.0000 0.68800  0.53200  0.91300  Biso   1.000  C
  C425     1.0000 0.70900  0.60400  0.94000  Biso   1.000  C
  H435     1.0000 0.69310  0.65480  0.94340  Biso   1.000  H
  C426     1.0000 0.74900  0.61200  0.96300  Biso   1.000  C
  C427     1.0000 0.78100  0.54300  0.96400  Biso   1.000  C
  C428     1.0000 0.81100  0.58200  0.98800  Biso   1.000  C
  H436     1.0000 0.83630  0.55700  0.99600  Biso   1.000  H
  C429     1.0000 0.79900  0.67000  0.00200  Biso   1.000  C
  H437     1.0000 0.81760  0.70800  0.02030  Biso   1.000  H
  C430     1.0000 0.76400  0.69200  0.98900  Biso   1.000  C
  C431     1.0000 0.81100  0.40100  0.94800  Biso   1.000  C
  H438     1.0000 0.80340  0.34570  0.93120  Biso   1.000  H
  H439     1.0000 0.82100  0.38680  0.97890  Biso   1.000  H
  H440     1.0000 0.83160  0.43120  0.93590  Biso   1.000  H
  C432     1.0000 0.64500  0.54500  0.89400  Biso   1.000  C
  H441     1.0000 0.64000  0.58230  0.86600  Biso   1.000  H
  C433     1.0000 0.62700  0.59000  0.93100  Biso   1.000  C
  H442     1.0000 0.59940  0.60050  0.92080  Biso   1.000  H
  H443     1.0000 0.64050  0.64740  0.93980  Biso   1.000  H
  H444     1.0000 0.63140  0.54990  0.95700  Biso   1.000  H
  C434     1.0000 0.62300  0.44800  0.88700  Biso   1.000  C
  H445     1.0000 0.59520  0.45710  0.87410  Biso   1.000  H
  H446     1.0000 0.62600  0.41770  0.91520  Biso   1.000  H
  H447     1.0000 0.63460  0.41160  0.86650  Biso   1.000  H
  C435     1.0000 0.73800  0.77800  0.99400  Biso   1.000  C
  H448     1.0000 0.71110  0.76740  0.97820  Biso   1.000  H
  H449     1.0000 0.74850  0.83110  0.98270  Biso   1.000  H
  H450     1.0000 0.73780  0.78670  0.02570  Biso   1.000  H
  C436     1.0000 0.61380  0.34380  0.92460  Biso   1.000  C
  H451     1.0000 0.62500  0.36770  0.95440  Biso   1.000  H
  H452     1.0000 0.60890  0.27850  0.92590  Biso   1.000  H
  C437     1.0000 0.57730  0.39860  0.89950  Biso   1.000  C
  H453     1.0000 0.58130  0.46390  0.90470  Biso   1.000  H
  H454     1.0000 0.55340  0.38000  0.90930  Biso   1.000  H
  C438     1.0000 0.57450  0.37670  0.85190  Biso   1.000  C
  H455     1.0000 0.54690  0.38160  0.83640  Biso   1.000  H
  H456     1.0000 0.58950  0.42170  0.83890  Biso   1.000  H
  C439     1.0000 0.58990  0.27940  0.84360  Biso   1.000  C
  H457     1.0000 0.57750  0.23330  0.85910  Biso   1.000  H
  H458     1.0000 0.58430  0.26520  0.81160  Biso   1.000  H
  C440     1.0000 0.63590  0.28260  0.86270  Biso   1.000  C
  H459     1.0000 0.65080  0.28390  0.83880  Biso   1.000  H
  H460     1.0000 0.64480  0.23130  0.88260  Biso   1.000  H
  C441     1.0000 0.63890  0.37100  0.88770  Biso   1.000  C
  H461     1.0000 0.66630  0.38630  0.90120  Biso   1.000  H
  H462     1.0000 0.62680  0.42120  0.86870  Biso   1.000  H
  I85      1.0000 0.35002  0.58680  0.51155  Biso   1.000  I
  Zn29     1.0000 0.37485  0.59876  0.43895  Biso   1.000  Zn
  I86      1.0000 0.39145  0.73940  0.40670  Biso   1.000  I
  N85      1.0000 0.33405  0.53130  0.39221  Biso   1.000  N
  N86      1.0000 0.42303  0.51580  0.44394  Biso   1.000  N
  C442     1.0000 0.43635  0.46440  0.47877  Biso   1.000  C
  C443     1.0000 0.44060  0.51190  0.41027  Biso   1.000  C
  C444     1.0000 0.46734  0.40650  0.48030  Biso   1.000  C
  H463     1.0000 0.42420  0.46740  0.50340  Biso   1.000  H
  C445     1.0000 0.47140  0.45550  0.40886  Biso   1.000  C
  H464     1.0000 0.43160  0.55010  0.38570  Biso   1.000  H
  H465     1.0000 0.47620  0.37010  0.50560  Biso   1.000  H
  C446     1.0000 0.48536  0.40210  0.44491  Biso   1.000  C
  H466     1.0000 0.48280  0.45360  0.38360  Biso   1.000  H
  C447     1.0000 0.51770  0.33910  0.44391  Biso   1.000  C
  N87      1.0000 0.53931  0.35370  0.41392  Biso   1.000  N
  N88      1.0000 0.52231  0.27130  0.47287  Biso   1.000  N
  C448     1.0000 0.56766  0.29360  0.41410  Biso   1.000  C
  C449     1.0000 0.55061  0.21330  0.46851  Biso   1.000  C
  C450     1.0000 0.59327  0.30840  0.38236  Biso   1.000  C
  N89      1.0000 0.57455  0.22210  0.44040  Biso   1.000  N
  C451     1.0000 0.55492  0.13230  0.49702  Biso   1.000  C
  C452     1.0000 0.58229  0.36770  0.34718  Biso   1.000  C
  C453     1.0000 0.62852  0.26370  0.38698  Biso   1.000  C
  C454     1.0000 0.52846  0.11300  0.52287  Biso   1.000  C
  C455     1.0000 0.58652  0.07640  0.49889  Biso   1.000  C
  H467     1.0000 0.55820  0.39900  0.34310  Biso   1.000  H
  C456     1.0000 0.60707  0.38030  0.31823  Biso   1.000  C
  H468     1.0000 0.63660  0.22200  0.41030  Biso   1.000  H
  C457     1.0000 0.65168  0.28090  0.35696  Biso   1.000  C
  C458     1.0000 0.53410  0.03790  0.54962  Biso   1.000  C
  H469     1.0000 0.50660  0.15090  0.52230  Biso   1.000  H
  H470     1.0000 0.60520  0.08730  0.48120  Biso   1.000  H
  C459     1.0000 0.59021  0.00380  0.52741  Biso   1.000  C
  N90      1.0000 0.64141  0.33760  0.32283  Biso   1.000  N
  H471     1.0000 0.59950  0.42050  0.29420  Biso   1.000  H
  H472     1.0000 0.67610  0.25120  0.36060  Biso   1.000  H
  N91      1.0000 0.56489  0.98450  0.55245  Biso   1.000  N
  H473     1.0000 0.51530  0.02400  0.56660  Biso   1.000  H
  H474     1.0000 0.61220  0.96560  0.52910  Biso   1.000  H
  Zn30     1.0000 0.67354  0.35430  0.27329  Biso   1.000  Zn
  Zn31     1.0000 0.57771  0.87956  0.59766  Biso   1.000  Zn
  I87      1.0000 0.62883  0.33336  0.19820  Biso   1.000  I
  I88      1.0000 0.73540  0.26495  0.29640  Biso   1.000  I
  N92      1.0000 0.68623  0.49200  0.28096  Biso   1.000  N
  N93      1.0000 0.61841  0.94850  0.64436  Biso   1.000  N
  I89      1.0000 0.61457  0.76380  0.55810  Biso   1.000  I
  I90      1.0000 0.52207  0.84780  0.63138  Biso   1.000  I
  C460     1.0000 0.65014  0.90940  0.66822  Biso   1.000  C
  C461     1.0000 0.61025  0.03220  0.65380  Biso   1.000  C
  H475     1.0000 0.65620  0.84950  0.66150  Biso   1.000  H
  C462     1.0000 0.67454  0.95420  0.70263  Biso   1.000  C
  C463     1.0000 0.63329  0.08180  0.68688  Biso   1.000  C
  H476     1.0000 0.58750  0.05950  0.63690  Biso   1.000  H
  C464     1.0000 0.66623  0.04200  0.71194  Biso   1.000  C
  H477     1.0000 0.69670  0.92480  0.71960  Biso   1.000  H
  H478     1.0000 0.62670  0.14190  0.69240  Biso   1.000  H
  C465     1.0000 0.69094  0.09420  0.74772  Biso   1.000  C
  N94      1.0000 0.68096  0.17967  0.75219  Biso   1.000  N
  N95      1.0000 0.72174  0.05302  0.77240  Biso   1.000  N
  C466     1.0000 0.70558  0.22550  0.78320  Biso   1.000  C
  C467     1.0000 0.74251  0.10340  0.80474  Biso   1.000  C
  N96      1.0000 0.73600  0.19050  0.81132  Biso   1.000  N
  C468     1.0000 0.69859  0.32370  0.78416  Biso   1.000  C
  C469     1.0000 0.77491  0.05800  0.83486  Biso   1.000  C
  C470     1.0000 0.72465  0.38160  0.80989  Biso   1.000  C
  C471     1.0000 0.66605  0.36060  0.75709  Biso   1.000  C
  C472     1.0000 0.79680  0.10190  0.87150  Biso   1.000  C
  C473     1.0000 0.78422  0.96960  0.82709  Biso   1.000  C
  H479     1.0000 0.74720  0.35910  0.82920  Biso   1.000  H
  C474     1.0000 0.71721  0.47320  0.80695  Biso   1.000  C
  C475     1.0000 0.66065  0.45200  0.75685  Biso   1.000  C
  H480     1.0000 0.64760  0.32310  0.73880  Biso   1.000  H
  C476     1.0000 0.82547  0.05450  0.89927  Biso   1.000  C
  H481     1.0000 0.79200  0.16310  0.87720  Biso   1.000  H
  C477     1.0000 0.81388  0.92760  0.85635  Biso   1.000  C
  H482     1.0000 0.77030  0.93840  0.80190  Biso   1.000  H
  H483     1.0000 0.73530  0.51270  0.82450  Biso   1.000  H
  H484     1.0000 0.63780  0.47630  0.73880  Biso   1.000  H
  H485     1.0000 0.83990  0.08400  0.92470  Biso   1.000  H
  H486     1.0000 0.82020  0.86730  0.85080  Biso   1.000  H
  C478     1.0000 0.28050  0.20520  0.94090  Biso   1.000  C
  H487     1.0000 0.28190  0.22420  0.91070  Biso   1.000  H
  H488     1.0000 0.28800  0.25710  0.96090  Biso   1.000  H
  C479     1.0000 0.24100  0.17900  0.94180  Biso   1.000  C
  H489     1.0000 0.23880  0.16780  0.97270  Biso   1.000  H
  H490     1.0000 0.22300  0.22870  0.93010  Biso   1.000  H
  C480     1.0000 0.22910  0.09570  0.91470  Biso   1.000  C
  H491     1.0000 0.22890  0.10890  0.88330  Biso   1.000  H
  H492     1.0000 0.20240  0.07850  0.91710  Biso   1.000  H
  C481     1.0000 0.25570  0.01990  0.92930  Biso   1.000  C
  H493     1.0000 0.25510  0.00400  0.96020  Biso   1.000  H
  H494     1.0000 0.24730  0.96690  0.91050  Biso   1.000  H
  C482     1.0000 0.29610  0.04620  0.92600  Biso   1.000  C
  H495     1.0000 0.31420  0.99550  0.93550  Biso   1.000  H
  H496     1.0000 0.29680  0.06070  0.89500  Biso   1.000  H
  C483     1.0000 0.30920  0.12800  0.95530  Biso   1.000  C
  H497     1.0000 0.30990  0.11260  0.98660  Biso   1.000  H
  H498     1.0000 0.33570  0.14630  0.95250  Biso   1.000  H
  I91      1.0000 0.35188  0.58888  0.51026  Biso   1.000  I
  I92      1.0000 0.39084  0.74265  0.39993  Biso   1.000  I
  I93      1.0000 0.01831  0.63960  0.13402  Biso   1.000  I
  I94      1.0000 0.11317  0.73869  0.06412  Biso   1.000  I
  Zn32     1.0000 0.17730  0.14570  0.78140  Biso   1.000  Zn
  I95      1.0000 0.13378  0.17990  0.70691  Biso   1.000  I
  I96      1.0000 0.24287  0.22680  0.80840  Biso   1.000  I
  C484     1.0000 0.27700  0.96100  0.94400  Biso   1.000  C
  C485     1.0000 0.24100  0.91500  0.91500  Biso   1.000  C
  H499     1.0000 0.24520  0.85740  0.90360  Biso   1.000  H
  C486     1.0000 0.20400  0.95100  0.90300  Biso   1.000  C
  H500     1.0000 0.18620  0.91260  0.88530  Biso   1.000  H
  C487     1.0000 0.18800  0.03200  0.91300  Biso   1.000  C
  C488     1.0000 0.20900  0.10400  0.94000  Biso   1.000  C
  H501     1.0000 0.19310  0.15480  0.94340  Biso   1.000  H
  C489     1.0000 0.24900  0.11200  0.96300  Biso   1.000  C
  C490     1.0000 0.28100  0.04300  0.96400  Biso   1.000  C
  C491     1.0000 0.31100  0.08200  0.98800  Biso   1.000  C
  H502     1.0000 0.33630  0.05700  0.99600  Biso   1.000  H
  C492     1.0000 0.29900  0.17000  0.00200  Biso   1.000  C
  H503     1.0000 0.31760  0.20800  0.02030  Biso   1.000  H
  C493     1.0000 0.26400  0.19200  0.98900  Biso   1.000  C
  C494     1.0000 0.31100  0.90100  0.94800  Biso   1.000  C
  H504     1.0000 0.30340  0.84570  0.93120  Biso   1.000  H
  H505     1.0000 0.32100  0.88680  0.97890  Biso   1.000  H
  H506     1.0000 0.33160  0.93120  0.93590  Biso   1.000  H
  C495     1.0000 0.14500  0.04500  0.89400  Biso   1.000  C
  H507     1.0000 0.14000  0.08230  0.86600  Biso   1.000  H
  C496     1.0000 0.12700  0.09000  0.93100  Biso   1.000  C
  H508     1.0000 0.09940  0.10050  0.92080  Biso   1.000  H
  H509     1.0000 0.14050  0.14740  0.93980  Biso   1.000  H
  H510     1.0000 0.13140  0.04990  0.95700  Biso   1.000  H
  C497     1.0000 0.12300  0.94800  0.88700  Biso   1.000  C
  H511     1.0000 0.09520  0.95710  0.87410  Biso   1.000  H
  H512     1.0000 0.12600  0.91770  0.91520  Biso   1.000  H
  H513     1.0000 0.13460  0.91160  0.86650  Biso   1.000  H
  C498     1.0000 0.23800  0.27800  0.99400  Biso   1.000  C
  H514     1.0000 0.21110  0.26740  0.97820  Biso   1.000  H
  H515     1.0000 0.24850  0.33110  0.98270  Biso   1.000  H
  H516     1.0000 0.23780  0.28670  0.02570  Biso   1.000  H
  C499     1.0000 0.11380  0.84380  0.92460  Biso   1.000  C
  H517     1.0000 0.12500  0.86770  0.95440  Biso   1.000  H
  H518     1.0000 0.10890  0.77850  0.92590  Biso   1.000  H
  C500     1.0000 0.07730  0.89860  0.89950  Biso   1.000  C
  H519     1.0000 0.08130  0.96390  0.90470  Biso   1.000  H
  H520     1.0000 0.05340  0.88000  0.90930  Biso   1.000  H
  C501     1.0000 0.07450  0.87670  0.85190  Biso   1.000  C
  H521     1.0000 0.04690  0.88160  0.83640  Biso   1.000  H
  H522     1.0000 0.08950  0.92170  0.83890  Biso   1.000  H
  C502     1.0000 0.08990  0.77940  0.84360  Biso   1.000  C
  H523     1.0000 0.07750  0.73330  0.85910  Biso   1.000  H
  H524     1.0000 0.08430  0.76520  0.81160  Biso   1.000  H
  C503     1.0000 0.13590  0.78260  0.86270  Biso   1.000  C
  H525     1.0000 0.15080  0.78390  0.83880  Biso   1.000  H
  H526     1.0000 0.14480  0.73130  0.88260  Biso   1.000  H
  C504     1.0000 0.13890  0.87100  0.88770  Biso   1.000  C
  H527     1.0000 0.16630  0.88630  0.90120  Biso   1.000  H
  H528     1.0000 0.12680  0.92120  0.86870  Biso   1.000  H
