data_image0
_cell_length_a       34.376
_cell_length_b       15.0832
_cell_length_c       29.6413
_cell_angle_alpha    90
_cell_angle_beta     100.675
_cell_angle_gamma    90

_symmetry_space_group_name_H-M    "P 1"
_symmetry_int_tables_number       1

loop_
  _symmetry_equiv_pos_as_xyz
  'x, y, z'

loop_
  _atom_site_label
  _atom_site_occupancy
  _atom_site_fract_x
  _atom_site_fract_y
  _atom_site_fract_z
  _atom_site_thermal_displace_type
  _atom_site_B_iso_or_equiv
  _atom_site_type_symbol
  Zn1      1.0000 0.32989  0.36640  0.72877  Biso   1.000  Zn
  I1       1.0000 0.37474  0.34703  0.80671  Biso   1.000  I
  I2       1.0000 0.26932  0.27260  0.70108  Biso   1.000  I
  I3       1.0000 0.62000  0.73986  0.57062  Biso   1.000  I
  I4       1.0000 0.66018  0.55467  0.46695  Biso   1.000  I
  Zn2      1.0000 0.63506  0.59310  0.53942  Biso   1.000  Zn
  Zn3      1.0000 0.42015  0.87266  0.40726  Biso   1.000  Zn
  I5       1.0000 0.38349  0.76154  0.44756  Biso   1.000  I
  I6       1.0000 0.47317  0.84334  0.36056  Biso   1.000  I
  N1       1.0000 0.36170  0.35160  0.67670  Biso   1.000  N
  C1       1.0000 0.39450  0.39650  0.67900  Biso   1.000  C
  H1       1.0000 0.40030  0.44180  0.70150  Biso   1.000  H
  C2       1.0000 0.42090  0.38120  0.65050  Biso   1.000  C
  H2       1.0000 0.44450  0.41510  0.65400  Biso   1.000  H
  C3       1.0000 0.41340  0.31730  0.61690  Biso   1.000  C
  C4       1.0000 0.37840  0.27100  0.61380  Biso   1.000  C
  H3       1.0000 0.37180  0.22620  0.59110  Biso   1.000  H
  C5       1.0000 0.35310  0.28980  0.64370  Biso   1.000  C
  H4       1.0000 0.32890  0.25810  0.64090  Biso   1.000  H
  N2       1.0000 0.58576  0.51310  0.54080  Biso   1.000  N
  C6       1.0000 0.57240  0.50290  0.58000  Biso   1.000  C
  H5       1.0000 0.58540  0.53430  0.60630  Biso   1.000  H
  C7       1.0000 0.54130  0.45040  0.58450  Biso   1.000  C
  H6       1.0000 0.53230  0.44690  0.61280  Biso   1.000  H
  C8       1.0000 0.52315  0.40180  0.54660  Biso   1.000  C
  C9       1.0000 0.53715  0.41030  0.50670  Biso   1.000  C
  H7       1.0000 0.52560  0.37700  0.48040  Biso   1.000  H
  C10      1.0000 0.56807  0.46730  0.50480  Biso   1.000  C
  H8       1.0000 0.57700  0.47400  0.47650  Biso   1.000  H
  N3       1.0000 0.44073  0.97320  0.45372  Biso   1.000  N
  C11      1.0000 0.42126  0.98910  0.48760  Biso   1.000  C
  H9       1.0000 0.40260  0.94650  0.49390  Biso   1.000  H
  C12      1.0000 0.42686  0.06380  0.51380  Biso   1.000  C
  H10      1.0000 0.41240  0.07250  0.53780  Biso   1.000  H
  C13      1.0000 0.45398  0.12750  0.50516  Biso   1.000  C
  C14      1.0000 0.47553  0.10900  0.47100  Biso   1.000  C
  H11      1.0000 0.49510  0.14940  0.46490  Biso   1.000  H
  C15      1.0000 0.46835  0.03190  0.44610  Biso   1.000  C
  H12      1.0000 0.48330  0.01960  0.42290  Biso   1.000  H
  C16      1.0000 0.43973  0.29990  0.58460  Biso   1.000  C
  N4       1.0000 0.46853  0.35900  0.58158  Biso   1.000  N
  C17      1.0000 0.49044  0.33980  0.55080  Biso   1.000  C
  N5       1.0000 0.48712  0.26820  0.52366  Biso   1.000  N
  C18      1.0000 0.45842  0.21200  0.53139  Biso   1.000  C
  N6       1.0000 0.43410  0.22470  0.56029  Biso   1.000  N
  N7       1.0000 0.67533  0.53300  0.59060  Biso   1.000  N
  C19      1.0000 0.69970  0.57970  0.62250  Biso   1.000  C
  H13      1.0000 0.69740  0.64250  0.62260  Biso   1.000  H
  C20      1.0000 0.72780  0.53950  0.65510  Biso   1.000  C
  H14      1.0000 0.74480  0.57410  0.67730  Biso   1.000  H
  C21      1.0000 0.73111  0.44810  0.65530  Biso   1.000  C
  C22      1.0000 0.70600  0.40020  0.62250  Biso   1.000  C
  H15      1.0000 0.70750  0.33730  0.62190  Biso   1.000  H
  C23      1.0000 0.67860  0.44510  0.59070  Biso   1.000  C
  H16      1.0000 0.66140  0.41190  0.56800  Biso   1.000  H
  N8       1.0000 0.87716  0.55330  0.86378  Biso   1.000  N
  C24      1.0000 0.84999  0.59550  0.83300  Biso   1.000  C
  H17      1.0000 0.84710  0.65780  0.83580  Biso   1.000  H
  C25      1.0000 0.82605  0.55180  0.79730  Biso   1.000  C
  H18      1.0000 0.80740  0.58360  0.77560  Biso   1.000  H
  C26      1.0000 0.82983  0.46050  0.79390  Biso   1.000  C
  C27      1.0000 0.85562  0.41650  0.82750  Biso   1.000  C
  H19      1.0000 0.85770  0.35370  0.82720  Biso   1.000  H
  C28      1.0000 0.87840  0.46580  0.86190  Biso   1.000  C
  H20      1.0000 0.89590  0.43530  0.88540  Biso   1.000  H
  N9       1.0000 0.81250  0.00070  0.72050  Biso   1.000  N
  C29      1.0000 0.83060  0.05310  0.75380  Biso   1.000  C
  H21      1.0000 0.84840  0.02740  0.77870  Biso   1.000  H
  C30      1.0000 0.82470  0.14440  0.75350  Biso   1.000  C
  H22      1.0000 0.83790  0.18010  0.77810  Biso   1.000  H
  C31      1.0000 0.79972  0.18180  0.71750  Biso   1.000  C
  C32      1.0000 0.78130  0.12840  0.68260  Biso   1.000  C
  H23      1.0000 0.76370  0.15250  0.65710  Biso   1.000  H
  C33      1.0000 0.78910  0.03800  0.68560  Biso   1.000  C
  H24      1.0000 0.77680  0.00120  0.66100  Biso   1.000  H
  C34      1.0000 0.76049  0.40230  0.69060  Biso   1.000  C
  N10      1.0000 0.77979  0.45290  0.72503  Biso   1.000  N
  C35      1.0000 0.80715  0.41000  0.75480  Biso   1.000  C
  N11      1.0000 0.81582  0.32390  0.75197  Biso   1.000  N
  C36      1.0000 0.79361  0.27980  0.71760  Biso   1.000  C
  N12      1.0000 0.76591  0.31560  0.68563  Biso   1.000  N
  Zn4      1.0000 0.31900  0.36560  0.71650  Biso   1.000  Zn
  I7       1.0000 0.36120  0.33190  0.79480  Biso   1.000  I
  I8       1.0000 0.25610  0.28570  0.68340  Biso   1.000  I
  I9       1.0000 0.62370  0.73880  0.56320  Biso   1.000  I
  I10      1.0000 0.65680  0.56480  0.46650  Biso   1.000  I
  Zn5      1.0000 0.82989  0.86640  0.72877  Biso   1.000  Zn
  I11      1.0000 0.87474  0.84703  0.80671  Biso   1.000  I
  I12      1.0000 0.76932  0.77260  0.70108  Biso   1.000  I
  I13      1.0000 0.12000  0.23986  0.57062  Biso   1.000  I
  I14      1.0000 0.16018  0.05467  0.46695  Biso   1.000  I
  Zn6      1.0000 0.13506  0.09310  0.53942  Biso   1.000  Zn
  Zn7      1.0000 0.92015  0.37266  0.40726  Biso   1.000  Zn
  I15      1.0000 0.88349  0.26154  0.44756  Biso   1.000  I
  I16      1.0000 0.97317  0.34334  0.36056  Biso   1.000  I
  N13      1.0000 0.86170  0.85160  0.67670  Biso   1.000  N
  C37      1.0000 0.89450  0.89650  0.67900  Biso   1.000  C
  H25      1.0000 0.90030  0.94180  0.70150  Biso   1.000  H
  C38      1.0000 0.92090  0.88120  0.65050  Biso   1.000  C
  H26      1.0000 0.94450  0.91510  0.65400  Biso   1.000  H
  C39      1.0000 0.91340  0.81730  0.61690  Biso   1.000  C
  C40      1.0000 0.87840  0.77100  0.61380  Biso   1.000  C
  H27      1.0000 0.87180  0.72620  0.59110  Biso   1.000  H
  C41      1.0000 0.85310  0.78980  0.64370  Biso   1.000  C
  H28      1.0000 0.82890  0.75810  0.64090  Biso   1.000  H
  N14      1.0000 0.08576  0.01310  0.54080  Biso   1.000  N
  C42      1.0000 0.07240  0.00290  0.58000  Biso   1.000  C
  H29      1.0000 0.08540  0.03430  0.60630  Biso   1.000  H
  C43      1.0000 0.04130  0.95040  0.58450  Biso   1.000  C
  H30      1.0000 0.03230  0.94690  0.61280  Biso   1.000  H
  C44      1.0000 0.02315  0.90180  0.54660  Biso   1.000  C
  C45      1.0000 0.03715  0.91030  0.50670  Biso   1.000  C
  H31      1.0000 0.02560  0.87700  0.48040  Biso   1.000  H
  C46      1.0000 0.06807  0.96730  0.50480  Biso   1.000  C
  H32      1.0000 0.07700  0.97400  0.47650  Biso   1.000  H
  N15      1.0000 0.94073  0.47320  0.45372  Biso   1.000  N
  C47      1.0000 0.92126  0.48910  0.48760  Biso   1.000  C
  H33      1.0000 0.90260  0.44650  0.49390  Biso   1.000  H
  C48      1.0000 0.92686  0.56380  0.51380  Biso   1.000  C
  H34      1.0000 0.91240  0.57250  0.53780  Biso   1.000  H
  C49      1.0000 0.95398  0.62750  0.50516  Biso   1.000  C
  C50      1.0000 0.97553  0.60900  0.47100  Biso   1.000  C
  H35      1.0000 0.99510  0.64940  0.46490  Biso   1.000  H
  C51      1.0000 0.96835  0.53190  0.44610  Biso   1.000  C
  H36      1.0000 0.98330  0.51960  0.42290  Biso   1.000  H
  C52      1.0000 0.93973  0.79990  0.58460  Biso   1.000  C
  N16      1.0000 0.96853  0.85900  0.58158  Biso   1.000  N
  C53      1.0000 0.99044  0.83980  0.55080  Biso   1.000  C
  N17      1.0000 0.98712  0.76820  0.52366  Biso   1.000  N
  C54      1.0000 0.95842  0.71200  0.53139  Biso   1.000  C
  N18      1.0000 0.93410  0.72470  0.56029  Biso   1.000  N
  N19      1.0000 0.17533  0.03300  0.59060  Biso   1.000  N
  C55      1.0000 0.19970  0.07970  0.62250  Biso   1.000  C
  H37      1.0000 0.19740  0.14250  0.62260  Biso   1.000  H
  C56      1.0000 0.22780  0.03950  0.65510  Biso   1.000  C
  H38      1.0000 0.24480  0.07410  0.67730  Biso   1.000  H
  C57      1.0000 0.23111  0.94810  0.65530  Biso   1.000  C
  C58      1.0000 0.20600  0.90020  0.62250  Biso   1.000  C
  H39      1.0000 0.20750  0.83730  0.62190  Biso   1.000  H
  C59      1.0000 0.17860  0.94510  0.59070  Biso   1.000  C
  H40      1.0000 0.16140  0.91190  0.56800  Biso   1.000  H
  N20      1.0000 0.37716  0.05330  0.86378  Biso   1.000  N
  C60      1.0000 0.34999  0.09550  0.83300  Biso   1.000  C
  H41      1.0000 0.34710  0.15780  0.83580  Biso   1.000  H
  C61      1.0000 0.32605  0.05180  0.79730  Biso   1.000  C
  H42      1.0000 0.30740  0.08360  0.77560  Biso   1.000  H
  C62      1.0000 0.32983  0.96050  0.79390  Biso   1.000  C
  C63      1.0000 0.35562  0.91650  0.82750  Biso   1.000  C
  H43      1.0000 0.35770  0.85370  0.82720  Biso   1.000  H
  C64      1.0000 0.37840  0.96580  0.86190  Biso   1.000  C
  H44      1.0000 0.39590  0.93530  0.88540  Biso   1.000  H
  N21      1.0000 0.31250  0.50070  0.72050  Biso   1.000  N
  C65      1.0000 0.33060  0.55310  0.75380  Biso   1.000  C
  H45      1.0000 0.34840  0.52740  0.77870  Biso   1.000  H
  C66      1.0000 0.32470  0.64440  0.75350  Biso   1.000  C
  H46      1.0000 0.33790  0.68010  0.77810  Biso   1.000  H
  C67      1.0000 0.29972  0.68180  0.71750  Biso   1.000  C
  C68      1.0000 0.28130  0.62840  0.68260  Biso   1.000  C
  H47      1.0000 0.26370  0.65250  0.65710  Biso   1.000  H
  C69      1.0000 0.28910  0.53800  0.68560  Biso   1.000  C
  H48      1.0000 0.27680  0.50120  0.66100  Biso   1.000  H
  C70      1.0000 0.26049  0.90230  0.69060  Biso   1.000  C
  N22      1.0000 0.27979  0.95290  0.72503  Biso   1.000  N
  C71      1.0000 0.30715  0.91000  0.75480  Biso   1.000  C
  N23      1.0000 0.31582  0.82390  0.75197  Biso   1.000  N
  C72      1.0000 0.29361  0.77980  0.71760  Biso   1.000  C
  N24      1.0000 0.26591  0.81560  0.68563  Biso   1.000  N
  Zn8      1.0000 0.81900  0.86560  0.71650  Biso   1.000  Zn
  I17      1.0000 0.86120  0.83190  0.79480  Biso   1.000  I
  I18      1.0000 0.75610  0.78570  0.68340  Biso   1.000  I
  I19      1.0000 0.12370  0.23880  0.56320  Biso   1.000  I
  I20      1.0000 0.15680  0.06480  0.46650  Biso   1.000  I
  Zn9      1.0000 0.32989  0.63360  0.22877  Biso   1.000  Zn
  I21      1.0000 0.37474  0.65297  0.30671  Biso   1.000  I
  I22      1.0000 0.26932  0.72740  0.20108  Biso   1.000  I
  I23      1.0000 0.62000  0.26014  0.07062  Biso   1.000  I
  I24      1.0000 0.66018  0.44533  0.96695  Biso   1.000  I
  Zn10     1.0000 0.63506  0.40690  0.03942  Biso   1.000  Zn
  Zn11     1.0000 0.42015  0.12734  0.90726  Biso   1.000  Zn
  I25      1.0000 0.38349  0.23846  0.94756  Biso   1.000  I
  I26      1.0000 0.47317  0.15666  0.86056  Biso   1.000  I
  N25      1.0000 0.36170  0.64840  0.17670  Biso   1.000  N
  C73      1.0000 0.39450  0.60350  0.17900  Biso   1.000  C
  H49      1.0000 0.40030  0.55820  0.20150  Biso   1.000  H
  C74      1.0000 0.42090  0.61880  0.15050  Biso   1.000  C
  H50      1.0000 0.44450  0.58490  0.15400  Biso   1.000  H
  C75      1.0000 0.41340  0.68270  0.11690  Biso   1.000  C
  C76      1.0000 0.37840  0.72900  0.11380  Biso   1.000  C
  H51      1.0000 0.37180  0.77380  0.09110  Biso   1.000  H
  C77      1.0000 0.35310  0.71020  0.14370  Biso   1.000  C
  H52      1.0000 0.32890  0.74190  0.14090  Biso   1.000  H
  N26      1.0000 0.58576  0.48690  0.04080  Biso   1.000  N
  C78      1.0000 0.57240  0.49710  0.08000  Biso   1.000  C
  H53      1.0000 0.58540  0.46570  0.10630  Biso   1.000  H
  C79      1.0000 0.54130  0.54960  0.08450  Biso   1.000  C
  H54      1.0000 0.53230  0.55310  0.11280  Biso   1.000  H
  C80      1.0000 0.52315  0.59820  0.04660  Biso   1.000  C
  C81      1.0000 0.53715  0.58970  0.00670  Biso   1.000  C
  H55      1.0000 0.52560  0.62300  0.98040  Biso   1.000  H
  C82      1.0000 0.56807  0.53270  0.00480  Biso   1.000  C
  H56      1.0000 0.57700  0.52600  0.97650  Biso   1.000  H
  N27      1.0000 0.44073  0.02680  0.95372  Biso   1.000  N
  C83      1.0000 0.42126  0.01090  0.98760  Biso   1.000  C
  H57      1.0000 0.40260  0.05350  0.99390  Biso   1.000  H
  C84      1.0000 0.42686  0.93620  0.01380  Biso   1.000  C
  H58      1.0000 0.41240  0.92750  0.03780  Biso   1.000  H
  C85      1.0000 0.45398  0.87250  0.00516  Biso   1.000  C
  C86      1.0000 0.47553  0.89100  0.97100  Biso   1.000  C
  H59      1.0000 0.49510  0.85060  0.96490  Biso   1.000  H
  C87      1.0000 0.46835  0.96810  0.94610  Biso   1.000  C
  H60      1.0000 0.48330  0.98040  0.92290  Biso   1.000  H
  C88      1.0000 0.43973  0.70010  0.08460  Biso   1.000  C
  N28      1.0000 0.46853  0.64100  0.08158  Biso   1.000  N
  C89      1.0000 0.49044  0.66020  0.05080  Biso   1.000  C
  N29      1.0000 0.48712  0.73180  0.02366  Biso   1.000  N
  C90      1.0000 0.45842  0.78800  0.03139  Biso   1.000  C
  N30      1.0000 0.43410  0.77530  0.06029  Biso   1.000  N
  N31      1.0000 0.67533  0.46700  0.09060  Biso   1.000  N
  C91      1.0000 0.69970  0.42030  0.12250  Biso   1.000  C
  H61      1.0000 0.69740  0.35750  0.12260  Biso   1.000  H
  C92      1.0000 0.72780  0.46050  0.15510  Biso   1.000  C
  H62      1.0000 0.74480  0.42590  0.17730  Biso   1.000  H
  C93      1.0000 0.73111  0.55190  0.15530  Biso   1.000  C
  C94      1.0000 0.70600  0.59980  0.12250  Biso   1.000  C
  H63      1.0000 0.70750  0.66270  0.12190  Biso   1.000  H
  C95      1.0000 0.67860  0.55490  0.09070  Biso   1.000  C
  H64      1.0000 0.66140  0.58810  0.06800  Biso   1.000  H
  N32      1.0000 0.87716  0.44670  0.36378  Biso   1.000  N
  C96      1.0000 0.84999  0.40450  0.33300  Biso   1.000  C
  H65      1.0000 0.84710  0.34220  0.33580  Biso   1.000  H
  C97      1.0000 0.82605  0.44820  0.29730  Biso   1.000  C
  H66      1.0000 0.80740  0.41640  0.27560  Biso   1.000  H
  C98      1.0000 0.82983  0.53950  0.29390  Biso   1.000  C
  C99      1.0000 0.85562  0.58350  0.32750  Biso   1.000  C
  H67      1.0000 0.85770  0.64630  0.32720  Biso   1.000  H
  C100     1.0000 0.87840  0.53420  0.36190  Biso   1.000  C
  H68      1.0000 0.89590  0.56470  0.38540  Biso   1.000  H
  N33      1.0000 0.81250  0.99930  0.22050  Biso   1.000  N
  C101     1.0000 0.83060  0.94690  0.25380  Biso   1.000  C
  H69      1.0000 0.84840  0.97260  0.27870  Biso   1.000  H
  C102     1.0000 0.82470  0.85560  0.25350  Biso   1.000  C
  H70      1.0000 0.83790  0.81990  0.27810  Biso   1.000  H
  C103     1.0000 0.79972  0.81820  0.21750  Biso   1.000  C
  C104     1.0000 0.78130  0.87160  0.18260  Biso   1.000  C
  H71      1.0000 0.76370  0.84750  0.15710  Biso   1.000  H
  C105     1.0000 0.78910  0.96200  0.18560  Biso   1.000  C
  H72      1.0000 0.77680  0.99880  0.16100  Biso   1.000  H
  C106     1.0000 0.76049  0.59770  0.19060  Biso   1.000  C
  N34      1.0000 0.77979  0.54710  0.22503  Biso   1.000  N
  C107     1.0000 0.80715  0.59000  0.25480  Biso   1.000  C
  N35      1.0000 0.81582  0.67610  0.25197  Biso   1.000  N
  C108     1.0000 0.79361  0.72020  0.21760  Biso   1.000  C
  N36      1.0000 0.76591  0.68440  0.18563  Biso   1.000  N
  Zn12     1.0000 0.31900  0.63440  0.21650  Biso   1.000  Zn
  I27      1.0000 0.36120  0.66810  0.29480  Biso   1.000  I
  I28      1.0000 0.25610  0.71430  0.18340  Biso   1.000  I
  I29      1.0000 0.62370  0.26120  0.06320  Biso   1.000  I
  I30      1.0000 0.65680  0.43520  0.96650  Biso   1.000  I
  Zn13     1.0000 0.82989  0.13360  0.22877  Biso   1.000  Zn
  I31      1.0000 0.87474  0.15297  0.30671  Biso   1.000  I
  I32      1.0000 0.76932  0.22740  0.20108  Biso   1.000  I
  I33      1.0000 0.12000  0.76014  0.07062  Biso   1.000  I
  I34      1.0000 0.16018  0.94533  0.96695  Biso   1.000  I
  Zn14     1.0000 0.13506  0.90690  0.03942  Biso   1.000  Zn
  Zn15     1.0000 0.92015  0.62734  0.90726  Biso   1.000  Zn
  I35      1.0000 0.88349  0.73846  0.94756  Biso   1.000  I
  I36      1.0000 0.97317  0.65666  0.86056  Biso   1.000  I
  N37      1.0000 0.86170  0.14840  0.17670  Biso   1.000  N
  C109     1.0000 0.89450  0.10350  0.17900  Biso   1.000  C
  H73      1.0000 0.90030  0.05820  0.20150  Biso   1.000  H
  C110     1.0000 0.92090  0.11880  0.15050  Biso   1.000  C
  H74      1.0000 0.94450  0.08490  0.15400  Biso   1.000  H
  C111     1.0000 0.91340  0.18270  0.11690  Biso   1.000  C
  C112     1.0000 0.87840  0.22900  0.11380  Biso   1.000  C
  H75      1.0000 0.87180  0.27380  0.09110  Biso   1.000  H
  C113     1.0000 0.85310  0.21020  0.14370  Biso   1.000  C
  H76      1.0000 0.82890  0.24190  0.14090  Biso   1.000  H
  N38      1.0000 0.08576  0.98690  0.04080  Biso   1.000  N
  C114     1.0000 0.07240  0.99710  0.08000  Biso   1.000  C
  H77      1.0000 0.08540  0.96570  0.10630  Biso   1.000  H
  C115     1.0000 0.04130  0.04960  0.08450  Biso   1.000  C
  H78      1.0000 0.03230  0.05310  0.11280  Biso   1.000  H
  C116     1.0000 0.02315  0.09820  0.04660  Biso   1.000  C
  C117     1.0000 0.03715  0.08970  0.00670  Biso   1.000  C
  H79      1.0000 0.02560  0.12300  0.98040  Biso   1.000  H
  C118     1.0000 0.06807  0.03270  0.00480  Biso   1.000  C
  H80      1.0000 0.07700  0.02600  0.97650  Biso   1.000  H
  N39      1.0000 0.94073  0.52680  0.95372  Biso   1.000  N
  C119     1.0000 0.92126  0.51090  0.98760  Biso   1.000  C
  H81      1.0000 0.90260  0.55350  0.99390  Biso   1.000  H
  C120     1.0000 0.92686  0.43620  0.01380  Biso   1.000  C
  H82      1.0000 0.91240  0.42750  0.03780  Biso   1.000  H
  C121     1.0000 0.95398  0.37250  0.00516  Biso   1.000  C
  C122     1.0000 0.97553  0.39100  0.97100  Biso   1.000  C
  H83      1.0000 0.99510  0.35060  0.96490  Biso   1.000  H
  C123     1.0000 0.96835  0.46810  0.94610  Biso   1.000  C
  H84      1.0000 0.98330  0.48040  0.92290  Biso   1.000  H
  C124     1.0000 0.93973  0.20010  0.08460  Biso   1.000  C
  N40      1.0000 0.96853  0.14100  0.08158  Biso   1.000  N
  C125     1.0000 0.99044  0.16020  0.05080  Biso   1.000  C
  N41      1.0000 0.98712  0.23180  0.02366  Biso   1.000  N
  C126     1.0000 0.95842  0.28800  0.03139  Biso   1.000  C
  N42      1.0000 0.93410  0.27530  0.06029  Biso   1.000  N
  N43      1.0000 0.17533  0.96700  0.09060  Biso   1.000  N
  C127     1.0000 0.19970  0.92030  0.12250  Biso   1.000  C
  H85      1.0000 0.19740  0.85750  0.12260  Biso   1.000  H
  C128     1.0000 0.22780  0.96050  0.15510  Biso   1.000  C
  H86      1.0000 0.24480  0.92590  0.17730  Biso   1.000  H
  C129     1.0000 0.23111  0.05190  0.15530  Biso   1.000  C
  C130     1.0000 0.20600  0.09980  0.12250  Biso   1.000  C
  H87      1.0000 0.20750  0.16270  0.12190  Biso   1.000  H
  C131     1.0000 0.17860  0.05490  0.09070  Biso   1.000  C
  H88      1.0000 0.16140  0.08810  0.06800  Biso   1.000  H
  N44      1.0000 0.37716  0.94670  0.36378  Biso   1.000  N
  C132     1.0000 0.34999  0.90450  0.33300  Biso   1.000  C
  H89      1.0000 0.34710  0.84220  0.33580  Biso   1.000  H
  C133     1.0000 0.32605  0.94820  0.29730  Biso   1.000  C
  H90      1.0000 0.30740  0.91640  0.27560  Biso   1.000  H
  C134     1.0000 0.32983  0.03950  0.29390  Biso   1.000  C
  C135     1.0000 0.35562  0.08350  0.32750  Biso   1.000  C
  H91      1.0000 0.35770  0.14630  0.32720  Biso   1.000  H
  C136     1.0000 0.37840  0.03420  0.36190  Biso   1.000  C
  H92      1.0000 0.39590  0.06470  0.38540  Biso   1.000  H
  N45      1.0000 0.31250  0.49930  0.22050  Biso   1.000  N
  C137     1.0000 0.33060  0.44690  0.25380  Biso   1.000  C
  H93      1.0000 0.34840  0.47260  0.27870  Biso   1.000  H
  C138     1.0000 0.32470  0.35560  0.25350  Biso   1.000  C
  H94      1.0000 0.33790  0.31990  0.27810  Biso   1.000  H
  C139     1.0000 0.29972  0.31820  0.21750  Biso   1.000  C
  C140     1.0000 0.28130  0.37160  0.18260  Biso   1.000  C
  H95      1.0000 0.26370  0.34750  0.15710  Biso   1.000  H
  C141     1.0000 0.28910  0.46200  0.18560  Biso   1.000  C
  H96      1.0000 0.27680  0.49880  0.16100  Biso   1.000  H
  C142     1.0000 0.26049  0.09770  0.19060  Biso   1.000  C
  N46      1.0000 0.27979  0.04710  0.22503  Biso   1.000  N
  C143     1.0000 0.30715  0.09000  0.25480  Biso   1.000  C
  N47      1.0000 0.31582  0.17610  0.25197  Biso   1.000  N
  C144     1.0000 0.29361  0.22020  0.21760  Biso   1.000  C
  N48      1.0000 0.26591  0.18440  0.18563  Biso   1.000  N
  Zn16     1.0000 0.81900  0.13440  0.21650  Biso   1.000  Zn
  I37      1.0000 0.86120  0.16810  0.29480  Biso   1.000  I
  I38      1.0000 0.75610  0.21430  0.18340  Biso   1.000  I
  I39      1.0000 0.12370  0.76120  0.06320  Biso   1.000  I
  I40      1.0000 0.15680  0.93520  0.96650  Biso   1.000  I
  Zn17     1.0000 0.67011  0.36640  0.77123  Biso   1.000  Zn
  I41      1.0000 0.62526  0.34703  0.69329  Biso   1.000  I
  I42      1.0000 0.73068  0.27260  0.79892  Biso   1.000  I
  I43      1.0000 0.38000  0.73986  0.92938  Biso   1.000  I
  I44      1.0000 0.33982  0.55467  0.03305  Biso   1.000  I
  Zn18     1.0000 0.36494  0.59310  0.96058  Biso   1.000  Zn
  Zn19     1.0000 0.57985  0.87266  0.09274  Biso   1.000  Zn
  I45      1.0000 0.61651  0.76154  0.05244  Biso   1.000  I
  I46      1.0000 0.52683  0.84334  0.13944  Biso   1.000  I
  N49      1.0000 0.63830  0.35160  0.82330  Biso   1.000  N
  C145     1.0000 0.60550  0.39650  0.82100  Biso   1.000  C
  H97      1.0000 0.59970  0.44180  0.79850  Biso   1.000  H
  C146     1.0000 0.57910  0.38120  0.84950  Biso   1.000  C
  H98      1.0000 0.55550  0.41510  0.84600  Biso   1.000  H
  C147     1.0000 0.58660  0.31730  0.88310  Biso   1.000  C
  C148     1.0000 0.62160  0.27100  0.88620  Biso   1.000  C
  H99      1.0000 0.62820  0.22620  0.90890  Biso   1.000  H
  C149     1.0000 0.64690  0.28980  0.85630  Biso   1.000  C
  H100     1.0000 0.67110  0.25810  0.85910  Biso   1.000  H
  N50      1.0000 0.41424  0.51310  0.95920  Biso   1.000  N
  C150     1.0000 0.42760  0.50290  0.92000  Biso   1.000  C
  H101     1.0000 0.41460  0.53430  0.89370  Biso   1.000  H
  C151     1.0000 0.45870  0.45040  0.91550  Biso   1.000  C
  H102     1.0000 0.46770  0.44690  0.88720  Biso   1.000  H
  C152     1.0000 0.47685  0.40180  0.95340  Biso   1.000  C
  C153     1.0000 0.46285  0.41030  0.99330  Biso   1.000  C
  H103     1.0000 0.47440  0.37700  0.01960  Biso   1.000  H
  C154     1.0000 0.43193  0.46730  0.99520  Biso   1.000  C
  H104     1.0000 0.42300  0.47400  0.02350  Biso   1.000  H
  N51      1.0000 0.55927  0.97320  0.04628  Biso   1.000  N
  C155     1.0000 0.57874  0.98910  0.01240  Biso   1.000  C
  H105     1.0000 0.59740  0.94650  0.00610  Biso   1.000  H
  C156     1.0000 0.57314  0.06380  0.98620  Biso   1.000  C
  H106     1.0000 0.58760  0.07250  0.96220  Biso   1.000  H
  C157     1.0000 0.54602  0.12750  0.99484  Biso   1.000  C
  C158     1.0000 0.52447  0.10900  0.02900  Biso   1.000  C
  H107     1.0000 0.50490  0.14940  0.03510  Biso   1.000  H
  C159     1.0000 0.53165  0.03190  0.05390  Biso   1.000  C
  H108     1.0000 0.51670  0.01960  0.07710  Biso   1.000  H
  C160     1.0000 0.56027  0.29990  0.91540  Biso   1.000  C
  N52      1.0000 0.53147  0.35900  0.91842  Biso   1.000  N
  C161     1.0000 0.50956  0.33980  0.94920  Biso   1.000  C
  N53      1.0000 0.51288  0.26820  0.97634  Biso   1.000  N
  C162     1.0000 0.54158  0.21200  0.96861  Biso   1.000  C
  N54      1.0000 0.56590  0.22470  0.93971  Biso   1.000  N
  N55      1.0000 0.32467  0.53300  0.90940  Biso   1.000  N
  C163     1.0000 0.30030  0.57970  0.87750  Biso   1.000  C
  H109     1.0000 0.30260  0.64250  0.87740  Biso   1.000  H
  C164     1.0000 0.27220  0.53950  0.84490  Biso   1.000  C
  H110     1.0000 0.25520  0.57410  0.82270  Biso   1.000  H
  C165     1.0000 0.26889  0.44810  0.84470  Biso   1.000  C
  C166     1.0000 0.29400  0.40020  0.87750  Biso   1.000  C
  H111     1.0000 0.29250  0.33730  0.87810  Biso   1.000  H
  C167     1.0000 0.32140  0.44510  0.90930  Biso   1.000  C
  H112     1.0000 0.33860  0.41190  0.93200  Biso   1.000  H
  N56      1.0000 0.12284  0.55330  0.63622  Biso   1.000  N
  C168     1.0000 0.15001  0.59550  0.66700  Biso   1.000  C
  H113     1.0000 0.15290  0.65780  0.66420  Biso   1.000  H
  C169     1.0000 0.17395  0.55180  0.70270  Biso   1.000  C
  H114     1.0000 0.19260  0.58360  0.72440  Biso   1.000  H
  C170     1.0000 0.17017  0.46050  0.70610  Biso   1.000  C
  C171     1.0000 0.14438  0.41650  0.67250  Biso   1.000  C
  H115     1.0000 0.14230  0.35370  0.67280  Biso   1.000  H
  C172     1.0000 0.12160  0.46580  0.63810  Biso   1.000  C
  H116     1.0000 0.10410  0.43530  0.61460  Biso   1.000  H
  N57      1.0000 0.18750  0.00070  0.77950  Biso   1.000  N
  C173     1.0000 0.16940  0.05310  0.74620  Biso   1.000  C
  H117     1.0000 0.15160  0.02740  0.72130  Biso   1.000  H
  C174     1.0000 0.17530  0.14440  0.74650  Biso   1.000  C
  H118     1.0000 0.16210  0.18010  0.72190  Biso   1.000  H
  C175     1.0000 0.20028  0.18180  0.78250  Biso   1.000  C
  C176     1.0000 0.21870  0.12840  0.81740  Biso   1.000  C
  H119     1.0000 0.23630  0.15250  0.84290  Biso   1.000  H
  C177     1.0000 0.21090  0.03800  0.81440  Biso   1.000  C
  H120     1.0000 0.22320  0.00120  0.83900  Biso   1.000  H
  C178     1.0000 0.23951  0.40230  0.80940  Biso   1.000  C
  N58      1.0000 0.22021  0.45290  0.77497  Biso   1.000  N
  C179     1.0000 0.19285  0.41000  0.74520  Biso   1.000  C
  N59      1.0000 0.18418  0.32390  0.74803  Biso   1.000  N
  C180     1.0000 0.20639  0.27980  0.78240  Biso   1.000  C
  N60      1.0000 0.23409  0.31560  0.81437  Biso   1.000  N
  Zn20     1.0000 0.68100  0.36560  0.78350  Biso   1.000  Zn
  I47      1.0000 0.63880  0.33190  0.70520  Biso   1.000  I
  I48      1.0000 0.74390  0.28570  0.81660  Biso   1.000  I
  I49      1.0000 0.37630  0.73880  0.93680  Biso   1.000  I
  I50      1.0000 0.34320  0.56480  0.03350  Biso   1.000  I
  Zn21     1.0000 0.17011  0.86640  0.77123  Biso   1.000  Zn
  I51      1.0000 0.12526  0.84703  0.69329  Biso   1.000  I
  I52      1.0000 0.23068  0.77260  0.79892  Biso   1.000  I
  I53      1.0000 0.88000  0.23986  0.92938  Biso   1.000  I
  I54      1.0000 0.83982  0.05467  0.03305  Biso   1.000  I
  Zn22     1.0000 0.86494  0.09310  0.96058  Biso   1.000  Zn
  Zn23     1.0000 0.07985  0.37266  0.09274  Biso   1.000  Zn
  I55      1.0000 0.11651  0.26154  0.05244  Biso   1.000  I
  I56      1.0000 0.02683  0.34334  0.13944  Biso   1.000  I
  N61      1.0000 0.13830  0.85160  0.82330  Biso   1.000  N
  C181     1.0000 0.10550  0.89650  0.82100  Biso   1.000  C
  H121     1.0000 0.09970  0.94180  0.79850  Biso   1.000  H
  C182     1.0000 0.07910  0.88120  0.84950  Biso   1.000  C
  H122     1.0000 0.05550  0.91510  0.84600  Biso   1.000  H
  C183     1.0000 0.08660  0.81730  0.88310  Biso   1.000  C
  C184     1.0000 0.12160  0.77100  0.88620  Biso   1.000  C
  H123     1.0000 0.12820  0.72620  0.90890  Biso   1.000  H
  C185     1.0000 0.14690  0.78980  0.85630  Biso   1.000  C
  H124     1.0000 0.17110  0.75810  0.85910  Biso   1.000  H
  N62      1.0000 0.91424  0.01310  0.95920  Biso   1.000  N
  C186     1.0000 0.92760  0.00290  0.92000  Biso   1.000  C
  H125     1.0000 0.91460  0.03430  0.89370  Biso   1.000  H
  C187     1.0000 0.95870  0.95040  0.91550  Biso   1.000  C
  H126     1.0000 0.96770  0.94690  0.88720  Biso   1.000  H
  C188     1.0000 0.97685  0.90180  0.95340  Biso   1.000  C
  C189     1.0000 0.96285  0.91030  0.99330  Biso   1.000  C
  H127     1.0000 0.97440  0.87700  0.01960  Biso   1.000  H
  C190     1.0000 0.93193  0.96730  0.99520  Biso   1.000  C
  H128     1.0000 0.92300  0.97400  0.02350  Biso   1.000  H
  N63      1.0000 0.05927  0.47320  0.04628  Biso   1.000  N
  C191     1.0000 0.07874  0.48910  0.01240  Biso   1.000  C
  H129     1.0000 0.09740  0.44650  0.00610  Biso   1.000  H
  C192     1.0000 0.07314  0.56380  0.98620  Biso   1.000  C
  H130     1.0000 0.08760  0.57250  0.96220  Biso   1.000  H
  C193     1.0000 0.04602  0.62750  0.99484  Biso   1.000  C
  C194     1.0000 0.02447  0.60900  0.02900  Biso   1.000  C
  H131     1.0000 0.00490  0.64940  0.03510  Biso   1.000  H
  C195     1.0000 0.03165  0.53190  0.05390  Biso   1.000  C
  H132     1.0000 0.01670  0.51960  0.07710  Biso   1.000  H
  C196     1.0000 0.06027  0.79990  0.91540  Biso   1.000  C
  N64      1.0000 0.03147  0.85900  0.91842  Biso   1.000  N
  C197     1.0000 0.00956  0.83980  0.94920  Biso   1.000  C
  N65      1.0000 0.01288  0.76820  0.97634  Biso   1.000  N
  C198     1.0000 0.04158  0.71200  0.96861  Biso   1.000  C
  N66      1.0000 0.06590  0.72470  0.93971  Biso   1.000  N
  N67      1.0000 0.82467  0.03300  0.90940  Biso   1.000  N
  C199     1.0000 0.80030  0.07970  0.87750  Biso   1.000  C
  H133     1.0000 0.80260  0.14250  0.87740  Biso   1.000  H
  C200     1.0000 0.77220  0.03950  0.84490  Biso   1.000  C
  H134     1.0000 0.75520  0.07410  0.82270  Biso   1.000  H
  C201     1.0000 0.76889  0.94810  0.84470  Biso   1.000  C
  C202     1.0000 0.79400  0.90020  0.87750  Biso   1.000  C
  H135     1.0000 0.79250  0.83730  0.87810  Biso   1.000  H
  C203     1.0000 0.82140  0.94510  0.90930  Biso   1.000  C
  H136     1.0000 0.83860  0.91190  0.93200  Biso   1.000  H
  N68      1.0000 0.62284  0.05330  0.63622  Biso   1.000  N
  C204     1.0000 0.65001  0.09550  0.66700  Biso   1.000  C
  H137     1.0000 0.65290  0.15780  0.66420  Biso   1.000  H
  C205     1.0000 0.67395  0.05180  0.70270  Biso   1.000  C
  H138     1.0000 0.69260  0.08360  0.72440  Biso   1.000  H
  C206     1.0000 0.67017  0.96050  0.70610  Biso   1.000  C
  C207     1.0000 0.64438  0.91650  0.67250  Biso   1.000  C
  H139     1.0000 0.64230  0.85370  0.67280  Biso   1.000  H
  C208     1.0000 0.62160  0.96580  0.63810  Biso   1.000  C
  H140     1.0000 0.60410  0.93530  0.61460  Biso   1.000  H
  N69      1.0000 0.68750  0.50070  0.77950  Biso   1.000  N
  C209     1.0000 0.66940  0.55310  0.74620  Biso   1.000  C
  H141     1.0000 0.65160  0.52740  0.72130  Biso   1.000  H
  C210     1.0000 0.67530  0.64440  0.74650  Biso   1.000  C
  H142     1.0000 0.66210  0.68010  0.72190  Biso   1.000  H
  C211     1.0000 0.70028  0.68180  0.78250  Biso   1.000  C
  C212     1.0000 0.71870  0.62840  0.81740  Biso   1.000  C
  H143     1.0000 0.73630  0.65250  0.84290  Biso   1.000  H
  C213     1.0000 0.71090  0.53800  0.81440  Biso   1.000  C
  H144     1.0000 0.72320  0.50120  0.83900  Biso   1.000  H
  C214     1.0000 0.73951  0.90230  0.80940  Biso   1.000  C
  N70      1.0000 0.72021  0.95290  0.77497  Biso   1.000  N
  C215     1.0000 0.69285  0.91000  0.74520  Biso   1.000  C
  N71      1.0000 0.68418  0.82390  0.74803  Biso   1.000  N
  C216     1.0000 0.70639  0.77980  0.78240  Biso   1.000  C
  N72      1.0000 0.73409  0.81560  0.81437  Biso   1.000  N
  Zn24     1.0000 0.18100  0.86560  0.78350  Biso   1.000  Zn
  I57      1.0000 0.13880  0.83190  0.70520  Biso   1.000  I
  I58      1.0000 0.24390  0.78570  0.81660  Biso   1.000  I
  I59      1.0000 0.87630  0.23880  0.93680  Biso   1.000  I
  I60      1.0000 0.84320  0.06480  0.03350  Biso   1.000  I
  Zn25     1.0000 0.67011  0.63360  0.27123  Biso   1.000  Zn
  I61      1.0000 0.62526  0.65297  0.19329  Biso   1.000  I
  I62      1.0000 0.73068  0.72740  0.29892  Biso   1.000  I
  I63      1.0000 0.38000  0.26014  0.42938  Biso   1.000  I
  I64      1.0000 0.33982  0.44533  0.53305  Biso   1.000  I
  Zn26     1.0000 0.36494  0.40690  0.46058  Biso   1.000  Zn
  Zn27     1.0000 0.57985  0.12734  0.59274  Biso   1.000  Zn
  I65      1.0000 0.61651  0.23846  0.55244  Biso   1.000  I
  I66      1.0000 0.52683  0.15666  0.63944  Biso   1.000  I
  N73      1.0000 0.63830  0.64840  0.32330  Biso   1.000  N
  C217     1.0000 0.60550  0.60350  0.32100  Biso   1.000  C
  H145     1.0000 0.59970  0.55820  0.29850  Biso   1.000  H
  C218     1.0000 0.57910  0.61880  0.34950  Biso   1.000  C
  H146     1.0000 0.55550  0.58490  0.34600  Biso   1.000  H
  C219     1.0000 0.58660  0.68270  0.38310  Biso   1.000  C
  C220     1.0000 0.62160  0.72900  0.38620  Biso   1.000  C
  H147     1.0000 0.62820  0.77380  0.40890  Biso   1.000  H
  C221     1.0000 0.64690  0.71020  0.35630  Biso   1.000  C
  H148     1.0000 0.67110  0.74190  0.35910  Biso   1.000  H
  N74      1.0000 0.41424  0.48690  0.45920  Biso   1.000  N
  C222     1.0000 0.42760  0.49710  0.42000  Biso   1.000  C
  H149     1.0000 0.41460  0.46570  0.39370  Biso   1.000  H
  C223     1.0000 0.45870  0.54960  0.41550  Biso   1.000  C
  H150     1.0000 0.46770  0.55310  0.38720  Biso   1.000  H
  C224     1.0000 0.47685  0.59820  0.45340  Biso   1.000  C
  C225     1.0000 0.46285  0.58970  0.49330  Biso   1.000  C
  H151     1.0000 0.47440  0.62300  0.51960  Biso   1.000  H
  C226     1.0000 0.43193  0.53270  0.49520  Biso   1.000  C
  H152     1.0000 0.42300  0.52600  0.52350  Biso   1.000  H
  N75      1.0000 0.55927  0.02680  0.54628  Biso   1.000  N
  C227     1.0000 0.57874  0.01090  0.51240  Biso   1.000  C
  H153     1.0000 0.59740  0.05350  0.50610  Biso   1.000  H
  C228     1.0000 0.57314  0.93620  0.48620  Biso   1.000  C
  H154     1.0000 0.58760  0.92750  0.46220  Biso   1.000  H
  C229     1.0000 0.54602  0.87250  0.49484  Biso   1.000  C
  C230     1.0000 0.52447  0.89100  0.52900  Biso   1.000  C
  H155     1.0000 0.50490  0.85060  0.53510  Biso   1.000  H
  C231     1.0000 0.53165  0.96810  0.55390  Biso   1.000  C
  H156     1.0000 0.51670  0.98040  0.57710  Biso   1.000  H
  C232     1.0000 0.56027  0.70010  0.41540  Biso   1.000  C
  N76      1.0000 0.53147  0.64100  0.41842  Biso   1.000  N
  C233     1.0000 0.50956  0.66020  0.44920  Biso   1.000  C
  N77      1.0000 0.51288  0.73180  0.47634  Biso   1.000  N
  C234     1.0000 0.54158  0.78800  0.46861  Biso   1.000  C
  N78      1.0000 0.56590  0.77530  0.43971  Biso   1.000  N
  N79      1.0000 0.32467  0.46700  0.40940  Biso   1.000  N
  C235     1.0000 0.30030  0.42030  0.37750  Biso   1.000  C
  H157     1.0000 0.30260  0.35750  0.37740  Biso   1.000  H
  C236     1.0000 0.27220  0.46050  0.34490  Biso   1.000  C
  H158     1.0000 0.25520  0.42590  0.32270  Biso   1.000  H
  C237     1.0000 0.26889  0.55190  0.34470  Biso   1.000  C
  C238     1.0000 0.29400  0.59980  0.37750  Biso   1.000  C
  H159     1.0000 0.29250  0.66270  0.37810  Biso   1.000  H
  C239     1.0000 0.32140  0.55490  0.40930  Biso   1.000  C
  H160     1.0000 0.33860  0.58810  0.43200  Biso   1.000  H
  N80      1.0000 0.12284  0.44670  0.13622  Biso   1.000  N
  C240     1.0000 0.15001  0.40450  0.16700  Biso   1.000  C
  H161     1.0000 0.15290  0.34220  0.16420  Biso   1.000  H
  C241     1.0000 0.17395  0.44820  0.20270  Biso   1.000  C
  H162     1.0000 0.19260  0.41640  0.22440  Biso   1.000  H
  C242     1.0000 0.17017  0.53950  0.20610  Biso   1.000  C
  C243     1.0000 0.14438  0.58350  0.17250  Biso   1.000  C
  H163     1.0000 0.14230  0.64630  0.17280  Biso   1.000  H
  C244     1.0000 0.12160  0.53420  0.13810  Biso   1.000  C
  H164     1.0000 0.10410  0.56470  0.11460  Biso   1.000  H
  N81      1.0000 0.18750  0.99930  0.27950  Biso   1.000  N
  C245     1.0000 0.16940  0.94690  0.24620  Biso   1.000  C
  H165     1.0000 0.15160  0.97260  0.22130  Biso   1.000  H
  C246     1.0000 0.17530  0.85560  0.24650  Biso   1.000  C
  H166     1.0000 0.16210  0.81990  0.22190  Biso   1.000  H
  C247     1.0000 0.20028  0.81820  0.28250  Biso   1.000  C
  C248     1.0000 0.21870  0.87160  0.31740  Biso   1.000  C
  H167     1.0000 0.23630  0.84750  0.34290  Biso   1.000  H
  C249     1.0000 0.21090  0.96200  0.31440  Biso   1.000  C
  H168     1.0000 0.22320  0.99880  0.33900  Biso   1.000  H
  C250     1.0000 0.23951  0.59770  0.30940  Biso   1.000  C
  N82      1.0000 0.22021  0.54710  0.27497  Biso   1.000  N
  C251     1.0000 0.19285  0.59000  0.24520  Biso   1.000  C
  N83      1.0000 0.18418  0.67610  0.24803  Biso   1.000  N
  C252     1.0000 0.20639  0.72020  0.28240  Biso   1.000  C
  N84      1.0000 0.23409  0.68440  0.31437  Biso   1.000  N
  Zn28     1.0000 0.68100  0.63440  0.28350  Biso   1.000  Zn
  I67      1.0000 0.63880  0.66810  0.20520  Biso   1.000  I
  I68      1.0000 0.74390  0.71430  0.31660  Biso   1.000  I
  I69      1.0000 0.37630  0.26120  0.43680  Biso   1.000  I
  I70      1.0000 0.34320  0.43520  0.53350  Biso   1.000  I
  Zn29     1.0000 0.17011  0.13360  0.27123  Biso   1.000  Zn
  I71      1.0000 0.12526  0.15297  0.19329  Biso   1.000  I
  I72      1.0000 0.23068  0.22740  0.29892  Biso   1.000  I
  I73      1.0000 0.88000  0.76014  0.42938  Biso   1.000  I
  I74      1.0000 0.83982  0.94533  0.53305  Biso   1.000  I
  Zn30     1.0000 0.86494  0.90690  0.46058  Biso   1.000  Zn
  Zn31     1.0000 0.07985  0.62734  0.59274  Biso   1.000  Zn
  I75      1.0000 0.11651  0.73846  0.55244  Biso   1.000  I
  I76      1.0000 0.02683  0.65666  0.63944  Biso   1.000  I
  N85      1.0000 0.13830  0.14840  0.32330  Biso   1.000  N
  C253     1.0000 0.10550  0.10350  0.32100  Biso   1.000  C
  H169     1.0000 0.09970  0.05820  0.29850  Biso   1.000  H
  C254     1.0000 0.07910  0.11880  0.34950  Biso   1.000  C
  H170     1.0000 0.05550  0.08490  0.34600  Biso   1.000  H
  C255     1.0000 0.08660  0.18270  0.38310  Biso   1.000  C
  C256     1.0000 0.12160  0.22900  0.38620  Biso   1.000  C
  H171     1.0000 0.12820  0.27380  0.40890  Biso   1.000  H
  C257     1.0000 0.14690  0.21020  0.35630  Biso   1.000  C
  H172     1.0000 0.17110  0.24190  0.35910  Biso   1.000  H
  N86      1.0000 0.91424  0.98690  0.45920  Biso   1.000  N
  C258     1.0000 0.92760  0.99710  0.42000  Biso   1.000  C
  H173     1.0000 0.91460  0.96570  0.39370  Biso   1.000  H
  C259     1.0000 0.95870  0.04960  0.41550  Biso   1.000  C
  H174     1.0000 0.96770  0.05310  0.38720  Biso   1.000  H
  C260     1.0000 0.97685  0.09820  0.45340  Biso   1.000  C
  C261     1.0000 0.96285  0.08970  0.49330  Biso   1.000  C
  H175     1.0000 0.97440  0.12300  0.51960  Biso   1.000  H
  C262     1.0000 0.93193  0.03270  0.49520  Biso   1.000  C
  H176     1.0000 0.92300  0.02600  0.52350  Biso   1.000  H
  N87      1.0000 0.05927  0.52680  0.54628  Biso   1.000  N
  C263     1.0000 0.07874  0.51090  0.51240  Biso   1.000  C
  H177     1.0000 0.09740  0.55350  0.50610  Biso   1.000  H
  C264     1.0000 0.07314  0.43620  0.48620  Biso   1.000  C
  H178     1.0000 0.08760  0.42750  0.46220  Biso   1.000  H
  C265     1.0000 0.04602  0.37250  0.49484  Biso   1.000  C
  C266     1.0000 0.02447  0.39100  0.52900  Biso   1.000  C
  H179     1.0000 0.00490  0.35060  0.53510  Biso   1.000  H
  C267     1.0000 0.03165  0.46810  0.55390  Biso   1.000  C
  H180     1.0000 0.01670  0.48040  0.57710  Biso   1.000  H
  C268     1.0000 0.06027  0.20010  0.41540  Biso   1.000  C
  N88      1.0000 0.03147  0.14100  0.41842  Biso   1.000  N
  C269     1.0000 0.00956  0.16020  0.44920  Biso   1.000  C
  N89      1.0000 0.01288  0.23180  0.47634  Biso   1.000  N
  C270     1.0000 0.04158  0.28800  0.46861  Biso   1.000  C
  N90      1.0000 0.06590  0.27530  0.43971  Biso   1.000  N
  N91      1.0000 0.82467  0.96700  0.40940  Biso   1.000  N
  C271     1.0000 0.80030  0.92030  0.37750  Biso   1.000  C
  H181     1.0000 0.80260  0.85750  0.37740  Biso   1.000  H
  C272     1.0000 0.77220  0.96050  0.34490  Biso   1.000  C
  H182     1.0000 0.75520  0.92590  0.32270  Biso   1.000  H
  C273     1.0000 0.76889  0.05190  0.34470  Biso   1.000  C
  C274     1.0000 0.79400  0.09980  0.37750  Biso   1.000  C
  H183     1.0000 0.79250  0.16270  0.37810  Biso   1.000  H
  C275     1.0000 0.82140  0.05490  0.40930  Biso   1.000  C
  H184     1.0000 0.83860  0.08810  0.43200  Biso   1.000  H
  N92      1.0000 0.62284  0.94670  0.13622  Biso   1.000  N
  C276     1.0000 0.65001  0.90450  0.16700  Biso   1.000  C
  H185     1.0000 0.65290  0.84220  0.16420  Biso   1.000  H
  C277     1.0000 0.67395  0.94820  0.20270  Biso   1.000  C
  H186     1.0000 0.69260  0.91640  0.22440  Biso   1.000  H
  C278     1.0000 0.67017  0.03950  0.20610  Biso   1.000  C
  C279     1.0000 0.64438  0.08350  0.17250  Biso   1.000  C
  H187     1.0000 0.64230  0.14630  0.17280  Biso   1.000  H
  C280     1.0000 0.62160  0.03420  0.13810  Biso   1.000  C
  H188     1.0000 0.60410  0.06470  0.11460  Biso   1.000  H
  N93      1.0000 0.68750  0.49930  0.27950  Biso   1.000  N
  C281     1.0000 0.66940  0.44690  0.24620  Biso   1.000  C
  H189     1.0000 0.65160  0.47260  0.22130  Biso   1.000  H
  C282     1.0000 0.67530  0.35560  0.24650  Biso   1.000  C
  H190     1.0000 0.66210  0.31990  0.22190  Biso   1.000  H
  C283     1.0000 0.70028  0.31820  0.28250  Biso   1.000  C
  C284     1.0000 0.71870  0.37160  0.31740  Biso   1.000  C
  H191     1.0000 0.73630  0.34750  0.34290  Biso   1.000  H
  C285     1.0000 0.71090  0.46200  0.31440  Biso   1.000  C
  H192     1.0000 0.72320  0.49880  0.33900  Biso   1.000  H
  C286     1.0000 0.73951  0.09770  0.30940  Biso   1.000  C
  N94      1.0000 0.72021  0.04710  0.27497  Biso   1.000  N
  C287     1.0000 0.69285  0.09000  0.24520  Biso   1.000  C
  N95      1.0000 0.68418  0.17610  0.24803  Biso   1.000  N
  C288     1.0000 0.70639  0.22020  0.28240  Biso   1.000  C
  N96      1.0000 0.73409  0.18440  0.31437  Biso   1.000  N
  Zn32     1.0000 0.18100  0.13440  0.28350  Biso   1.000  Zn
  I77      1.0000 0.13880  0.16810  0.20520  Biso   1.000  I
  I78      1.0000 0.24390  0.21430  0.31660  Biso   1.000  I
  I79      1.0000 0.87630  0.76120  0.43680  Biso   1.000  I
  I80      1.0000 0.84320  0.93520  0.53350  Biso   1.000  I
