data_image0
_cell_length_a       34.9043
_cell_length_b       14.955
_cell_length_c       30.3469
_cell_angle_alpha    90
_cell_angle_beta     100.074
_cell_angle_gamma    90

_symmetry_space_group_name_H-M    "P 1"
_symmetry_int_tables_number       1

loop_
  _symmetry_equiv_pos_as_xyz
  'x, y, z'

loop_
  _atom_site_label
  _atom_site_occupancy
  _atom_site_fract_x
  _atom_site_fract_y
  _atom_site_fract_z
  _atom_site_thermal_displace_type
  _atom_site_B_iso_or_equiv
  _atom_site_type_symbol
  I1       1.0000 0.97985  0.34520  0.86483  Biso   1.000  I
  Zn1      1.0000 0.92055  0.37438  0.90318  Biso   1.000  Zn
  N1       1.0000 0.88242  0.44500  0.85569  Biso   1.000  N
  I2       1.0000 0.88610  0.26840  0.94117  Biso   1.000  I
  N2       1.0000 0.93573  0.48060  0.94700  Biso   1.000  N
  C1       1.0000 0.91060  0.50540  0.97250  Biso   1.000  C
  C2       1.0000 0.96660  0.53210  0.94680  Biso   1.000  C
  H1       1.0000 0.88830  0.46920  0.97260  Biso   1.000  H
  C3       1.0000 0.91500  0.58120  0.99880  Biso   1.000  C
  C4       1.0000 0.97308  0.60950  0.97220  Biso   1.000  C
  H2       1.0000 0.98510  0.51530  0.92870  Biso   1.000  H
  C5       1.0000 0.94695  0.63410  0.99850  Biso   1.000  C
  H3       1.0000 0.89630  0.59630  0.01690  Biso   1.000  H
  H4       1.0000 0.99550  0.64500  0.97120  Biso   1.000  H
  C6       1.0000 0.95193  0.71660  0.02650  Biso   1.000  C
  N3       1.0000 0.98157  0.77060  0.02177  Biso   1.000  N
  N4       1.0000 0.92766  0.72720  0.05540  Biso   1.000  N
  C7       1.0000 0.98578  0.83950  0.05030  Biso   1.000  C
  C8       1.0000 0.93392  0.80050  0.08090  Biso   1.000  C
  C9       1.0000 0.02014  0.89800  0.05050  Biso   1.000  C
  N5       1.0000 0.96286  0.85850  0.07983  Biso   1.000  N
  C10      1.0000 0.90822  0.81600  0.11380  Biso   1.000  C
  C11      1.0000 0.03870  0.90420  0.01620  Biso   1.000  C
  C12      1.0000 0.03500  0.94300  0.08840  Biso   1.000  C
  C13      1.0000 0.91270  0.88850  0.14120  Biso   1.000  C
  C14      1.0000 0.87840  0.76000  0.11730  Biso   1.000  C
  C15      1.0000 0.07090  0.95830  0.01850  Biso   1.000  C
  H5       1.0000 0.02980  0.87100  0.98970  Biso   1.000  H
  H6       1.0000 0.02270  0.94000  0.11390  Biso   1.000  H
  C16      1.0000 0.06810  0.99300  0.08930  Biso   1.000  C
  C17      1.0000 0.88830  0.90030  0.17150  Biso   1.000  C
  H7       1.0000 0.93260  0.93090  0.13940  Biso   1.000  H
  C18      1.0000 0.85540  0.77560  0.14830  Biso   1.000  C
  H8       1.0000 0.87350  0.70970  0.09800  Biso   1.000  H
  H9       1.0000 0.08360  0.96160  0.99340  Biso   1.000  H
  N6       1.0000 0.08467  0.00560  0.05430  Biso   1.000  N
  H10      1.0000 0.07960  0.01990  0.11690  Biso   1.000  H
  N7       1.0000 0.86102  0.84370  0.17710  Biso   1.000  N
  H11      1.0000 0.89140  0.95270  0.18950  Biso   1.000  H
  H12      1.0000 0.83430  0.73600  0.14960  Biso   1.000  H
  Zn2      1.0000 0.13142  0.09179  0.05935  Biso   1.000  Zn
  Zn3      1.0000 0.83033  0.85665  0.22889  Biso   1.000  Zn
  I3       1.0000 0.11095  0.22964  0.09500  Biso   1.000  I
  I4       1.0000 0.15695  0.07610  0.98435  Biso   1.000  I
  N8       1.0000 0.17261  0.02630  0.10550  Biso   1.000  N
  I5       1.0000 0.88059  0.83269  0.30148  Biso   1.000  I
  N9       1.0000 0.81684  0.99190  0.22530  Biso   1.000  N
  I6       1.0000 0.77132  0.75916  0.20838  Biso   1.000  I
  C19      1.0000 0.17740  0.93970  0.10310  Biso   1.000  C
  C20      1.0000 0.19710  0.07190  0.13610  Biso   1.000  C
  H13      1.0000 0.16020  0.90720  0.08110  Biso   1.000  H
  C21      1.0000 0.20620  0.89290  0.13120  Biso   1.000  C
  C22      1.0000 0.22610  0.03130  0.16520  Biso   1.000  C
  H14      1.0000 0.19410  0.13490  0.13770  Biso   1.000  H
  H15      1.0000 0.20870  0.83000  0.12820  Biso   1.000  H
  C23      1.0000 0.23109  0.93930  0.16320  Biso   1.000  C
  H16      1.0000 0.24290  0.06580  0.18670  Biso   1.000  H
  C24      1.0000 0.26238  0.89520  0.19450  Biso   1.000  C
  N10      1.0000 0.26802  0.80710  0.18989  Biso   1.000  N
  N11      1.0000 0.28270  0.94700  0.22648  Biso   1.000  N
  C25      1.0000 0.29668  0.77280  0.21970  Biso   1.000  C
  C26      1.0000 0.31176  0.90550  0.25320  Biso   1.000  C
  C27      1.0000 0.30338  0.67460  0.22060  Biso   1.000  C
  N12      1.0000 0.31999  0.81930  0.25125  Biso   1.000  N
  C28      1.0000 0.33586  0.95870  0.28900  Biso   1.000  C
  C29      1.0000 0.33120  0.63860  0.25360  Biso   1.000  C
  C30      1.0000 0.28200  0.61720  0.19140  Biso   1.000  C
  C31      1.0000 0.32758  0.04700  0.29680  Biso   1.000  C
  C32      1.0000 0.36820  0.91990  0.31420  Biso   1.000  C
  H17      1.0000 0.34620  0.67610  0.27530  Biso   1.000  H
  C33      1.0000 0.33710  0.54720  0.25460  Biso   1.000  C
  C34      1.0000 0.28980  0.52690  0.19470  Biso   1.000  C
  H18      1.0000 0.26180  0.63920  0.16880  Biso   1.000  H
  C35      1.0000 0.35090  0.09240  0.33080  Biso   1.000  C
  H19      1.0000 0.30610  0.07600  0.27900  Biso   1.000  H
  H20      1.0000 0.37450  0.85920  0.30960  Biso   1.000  H
  C36      1.0000 0.39100  0.97080  0.34590  Biso   1.000  C
  H21      1.0000 0.35650  0.52290  0.27730  Biso   1.000  H
  H22      1.0000 0.27470  0.48800  0.17380  Biso   1.000  H
  H23      1.0000 0.34450  0.15240  0.33680  Biso   1.000  H
  H24      1.0000 0.41410  0.94490  0.36190  Biso   1.000  H
  I7       1.0000 0.97794  0.33220  0.86930  Biso   1.000  I
  I8       1.0000 0.87530  0.27100  0.94417  Biso   1.000  I
  I9       1.0000 0.65412  0.39380  0.48940  Biso   1.000  I
  I10      1.0000 0.61487  0.26600  0.60400  Biso   1.000  I
  I11      1.0000 0.36870  0.67000  0.79940  Biso   1.000  I
  I12      1.0000 0.26310  0.72610  0.69870  Biso   1.000  I
  I13      1.0000 0.47985  0.84520  0.86483  Biso   1.000  I
  Zn4      1.0000 0.42055  0.87438  0.90318  Biso   1.000  Zn
  N13      1.0000 0.38242  0.94500  0.85569  Biso   1.000  N
  I14      1.0000 0.38610  0.76840  0.94117  Biso   1.000  I
  N14      1.0000 0.43573  0.98060  0.94700  Biso   1.000  N
  C37      1.0000 0.41060  0.00540  0.97250  Biso   1.000  C
  C38      1.0000 0.46660  0.03210  0.94680  Biso   1.000  C
  H25      1.0000 0.38830  0.96920  0.97260  Biso   1.000  H
  C39      1.0000 0.41500  0.08120  0.99880  Biso   1.000  C
  C40      1.0000 0.47308  0.10950  0.97220  Biso   1.000  C
  H26      1.0000 0.48510  0.01530  0.92870  Biso   1.000  H
  C41      1.0000 0.44695  0.13410  0.99850  Biso   1.000  C
  H27      1.0000 0.39630  0.09630  0.01690  Biso   1.000  H
  H28      1.0000 0.49550  0.14500  0.97120  Biso   1.000  H
  C42      1.0000 0.45193  0.21660  0.02650  Biso   1.000  C
  N15      1.0000 0.48157  0.27060  0.02177  Biso   1.000  N
  N16      1.0000 0.42766  0.22720  0.05540  Biso   1.000  N
  C43      1.0000 0.48578  0.33950  0.05030  Biso   1.000  C
  C44      1.0000 0.43392  0.30050  0.08090  Biso   1.000  C
  C45      1.0000 0.52014  0.39800  0.05050  Biso   1.000  C
  N17      1.0000 0.46286  0.35850  0.07983  Biso   1.000  N
  C46      1.0000 0.40822  0.31600  0.11380  Biso   1.000  C
  C47      1.0000 0.53870  0.40420  0.01620  Biso   1.000  C
  C48      1.0000 0.53500  0.44300  0.08840  Biso   1.000  C
  C49      1.0000 0.41270  0.38850  0.14120  Biso   1.000  C
  C50      1.0000 0.37840  0.26000  0.11730  Biso   1.000  C
  C51      1.0000 0.57090  0.45830  0.01850  Biso   1.000  C
  H29      1.0000 0.52980  0.37100  0.98970  Biso   1.000  H
  H30      1.0000 0.52270  0.44000  0.11390  Biso   1.000  H
  C52      1.0000 0.56810  0.49300  0.08930  Biso   1.000  C
  C53      1.0000 0.38830  0.40030  0.17150  Biso   1.000  C
  H31      1.0000 0.43260  0.43090  0.13940  Biso   1.000  H
  C54      1.0000 0.35540  0.27560  0.14830  Biso   1.000  C
  H32      1.0000 0.37350  0.20970  0.09800  Biso   1.000  H
  H33      1.0000 0.58360  0.46160  0.99340  Biso   1.000  H
  N18      1.0000 0.58467  0.50560  0.05430  Biso   1.000  N
  H34      1.0000 0.57960  0.51990  0.11690  Biso   1.000  H
  N19      1.0000 0.36102  0.34370  0.17710  Biso   1.000  N
  H35      1.0000 0.39140  0.45270  0.18950  Biso   1.000  H
  H36      1.0000 0.33430  0.23600  0.14960  Biso   1.000  H
  Zn5      1.0000 0.63142  0.59179  0.05935  Biso   1.000  Zn
  Zn6      1.0000 0.33033  0.35665  0.22889  Biso   1.000  Zn
  I15      1.0000 0.61095  0.72964  0.09500  Biso   1.000  I
  I16      1.0000 0.65695  0.57610  0.98435  Biso   1.000  I
  N20      1.0000 0.67261  0.52630  0.10550  Biso   1.000  N
  I17      1.0000 0.38059  0.33269  0.30148  Biso   1.000  I
  N21      1.0000 0.31684  0.49190  0.22530  Biso   1.000  N
  I18      1.0000 0.27132  0.25916  0.20838  Biso   1.000  I
  C55      1.0000 0.67740  0.43970  0.10310  Biso   1.000  C
  C56      1.0000 0.69710  0.57190  0.13610  Biso   1.000  C
  H37      1.0000 0.66020  0.40720  0.08110  Biso   1.000  H
  C57      1.0000 0.70620  0.39290  0.13120  Biso   1.000  C
  C58      1.0000 0.72610  0.53130  0.16520  Biso   1.000  C
  H38      1.0000 0.69410  0.63490  0.13770  Biso   1.000  H
  H39      1.0000 0.70870  0.33000  0.12820  Biso   1.000  H
  C59      1.0000 0.73109  0.43930  0.16320  Biso   1.000  C
  H40      1.0000 0.74290  0.56580  0.18670  Biso   1.000  H
  C60      1.0000 0.76238  0.39520  0.19450  Biso   1.000  C
  N22      1.0000 0.76802  0.30710  0.18989  Biso   1.000  N
  N23      1.0000 0.78270  0.44700  0.22648  Biso   1.000  N
  C61      1.0000 0.79668  0.27280  0.21970  Biso   1.000  C
  C62      1.0000 0.81176  0.40550  0.25320  Biso   1.000  C
  C63      1.0000 0.80338  0.17460  0.22060  Biso   1.000  C
  N24      1.0000 0.81999  0.31930  0.25125  Biso   1.000  N
  C64      1.0000 0.83586  0.45870  0.28900  Biso   1.000  C
  C65      1.0000 0.83120  0.13860  0.25360  Biso   1.000  C
  C66      1.0000 0.78200  0.11720  0.19140  Biso   1.000  C
  C67      1.0000 0.82758  0.54700  0.29680  Biso   1.000  C
  C68      1.0000 0.86820  0.41990  0.31420  Biso   1.000  C
  H41      1.0000 0.84620  0.17610  0.27530  Biso   1.000  H
  C69      1.0000 0.83710  0.04720  0.25460  Biso   1.000  C
  C70      1.0000 0.78980  0.02690  0.19470  Biso   1.000  C
  H42      1.0000 0.76180  0.13920  0.16880  Biso   1.000  H
  C71      1.0000 0.85090  0.59240  0.33080  Biso   1.000  C
  H43      1.0000 0.80610  0.57600  0.27900  Biso   1.000  H
  H44      1.0000 0.87450  0.35920  0.30960  Biso   1.000  H
  C72      1.0000 0.89100  0.47080  0.34590  Biso   1.000  C
  H45      1.0000 0.85650  0.02290  0.27730  Biso   1.000  H
  H46      1.0000 0.77470  0.98800  0.17380  Biso   1.000  H
  H47      1.0000 0.84450  0.65240  0.33680  Biso   1.000  H
  H48      1.0000 0.91410  0.44490  0.36190  Biso   1.000  H
  I19      1.0000 0.47794  0.83220  0.86930  Biso   1.000  I
  I20      1.0000 0.37530  0.77100  0.94417  Biso   1.000  I
  I21      1.0000 0.15412  0.89380  0.48940  Biso   1.000  I
  I22      1.0000 0.11487  0.76600  0.60400  Biso   1.000  I
  I23      1.0000 0.86870  0.17000  0.79940  Biso   1.000  I
  I24      1.0000 0.76310  0.22610  0.69870  Biso   1.000  I
  I25      1.0000 0.97985  0.65480  0.36483  Biso   1.000  I
  Zn7      1.0000 0.92055  0.62562  0.40318  Biso   1.000  Zn
  N25      1.0000 0.88242  0.55500  0.35569  Biso   1.000  N
  I26      1.0000 0.88610  0.73160  0.44117  Biso   1.000  I
  N26      1.0000 0.93573  0.51940  0.44700  Biso   1.000  N
  C73      1.0000 0.91060  0.49460  0.47250  Biso   1.000  C
  C74      1.0000 0.96660  0.46790  0.44680  Biso   1.000  C
  H49      1.0000 0.88830  0.53080  0.47260  Biso   1.000  H
  C75      1.0000 0.91500  0.41880  0.49880  Biso   1.000  C
  C76      1.0000 0.97308  0.39050  0.47220  Biso   1.000  C
  H50      1.0000 0.98510  0.48470  0.42870  Biso   1.000  H
  C77      1.0000 0.94695  0.36590  0.49850  Biso   1.000  C
  H51      1.0000 0.89630  0.40370  0.51690  Biso   1.000  H
  H52      1.0000 0.99550  0.35500  0.47120  Biso   1.000  H
  C78      1.0000 0.95193  0.28340  0.52650  Biso   1.000  C
  N27      1.0000 0.98157  0.22940  0.52177  Biso   1.000  N
  N28      1.0000 0.92766  0.27280  0.55540  Biso   1.000  N
  C79      1.0000 0.98578  0.16050  0.55030  Biso   1.000  C
  C80      1.0000 0.93392  0.19950  0.58090  Biso   1.000  C
  C81      1.0000 0.02014  0.10200  0.55050  Biso   1.000  C
  N29      1.0000 0.96286  0.14150  0.57983  Biso   1.000  N
  C82      1.0000 0.90822  0.18400  0.61380  Biso   1.000  C
  C83      1.0000 0.03870  0.09580  0.51620  Biso   1.000  C
  C84      1.0000 0.03500  0.05700  0.58840  Biso   1.000  C
  C85      1.0000 0.91270  0.11150  0.64120  Biso   1.000  C
  C86      1.0000 0.87840  0.24000  0.61730  Biso   1.000  C
  C87      1.0000 0.07090  0.04170  0.51850  Biso   1.000  C
  H53      1.0000 0.02980  0.12900  0.48970  Biso   1.000  H
  H54      1.0000 0.02270  0.06000  0.61390  Biso   1.000  H
  C88      1.0000 0.06810  0.00700  0.58930  Biso   1.000  C
  C89      1.0000 0.88830  0.09970  0.67150  Biso   1.000  C
  H55      1.0000 0.93260  0.06910  0.63940  Biso   1.000  H
  C90      1.0000 0.85540  0.22440  0.64830  Biso   1.000  C
  H56      1.0000 0.87350  0.29030  0.59800  Biso   1.000  H
  H57      1.0000 0.08360  0.03840  0.49340  Biso   1.000  H
  N30      1.0000 0.08467  0.99440  0.55430  Biso   1.000  N
  H58      1.0000 0.07960  0.98010  0.61690  Biso   1.000  H
  N31      1.0000 0.86102  0.15630  0.67710  Biso   1.000  N
  H59      1.0000 0.89140  0.04730  0.68950  Biso   1.000  H
  H60      1.0000 0.83430  0.26400  0.64960  Biso   1.000  H
  Zn8      1.0000 0.13142  0.90821  0.55935  Biso   1.000  Zn
  Zn9      1.0000 0.83033  0.14335  0.72889  Biso   1.000  Zn
  I27      1.0000 0.11095  0.77036  0.59500  Biso   1.000  I
  I28      1.0000 0.15695  0.92390  0.48435  Biso   1.000  I
  N32      1.0000 0.17261  0.97370  0.60550  Biso   1.000  N
  I29      1.0000 0.88059  0.16731  0.80148  Biso   1.000  I
  N33      1.0000 0.81684  0.00810  0.72530  Biso   1.000  N
  I30      1.0000 0.77132  0.24084  0.70838  Biso   1.000  I
  C91      1.0000 0.17740  0.06030  0.60310  Biso   1.000  C
  C92      1.0000 0.19710  0.92810  0.63610  Biso   1.000  C
  H61      1.0000 0.16020  0.09280  0.58110  Biso   1.000  H
  C93      1.0000 0.20620  0.10710  0.63120  Biso   1.000  C
  C94      1.0000 0.22610  0.96870  0.66520  Biso   1.000  C
  H62      1.0000 0.19410  0.86510  0.63770  Biso   1.000  H
  H63      1.0000 0.20870  0.17000  0.62820  Biso   1.000  H
  C95      1.0000 0.23109  0.06070  0.66320  Biso   1.000  C
  H64      1.0000 0.24290  0.93420  0.68670  Biso   1.000  H
  C96      1.0000 0.26238  0.10480  0.69450  Biso   1.000  C
  N34      1.0000 0.26802  0.19290  0.68989  Biso   1.000  N
  N35      1.0000 0.28270  0.05300  0.72648  Biso   1.000  N
  C97      1.0000 0.29668  0.22720  0.71970  Biso   1.000  C
  C98      1.0000 0.31176  0.09450  0.75320  Biso   1.000  C
  C99      1.0000 0.30338  0.32540  0.72060  Biso   1.000  C
  N36      1.0000 0.31999  0.18070  0.75125  Biso   1.000  N
  C100     1.0000 0.33586  0.04130  0.78900  Biso   1.000  C
  C101     1.0000 0.33120  0.36140  0.75360  Biso   1.000  C
  C102     1.0000 0.28200  0.38280  0.69140  Biso   1.000  C
  C103     1.0000 0.32758  0.95300  0.79680  Biso   1.000  C
  C104     1.0000 0.36820  0.08010  0.81420  Biso   1.000  C
  H65      1.0000 0.34620  0.32390  0.77530  Biso   1.000  H
  C105     1.0000 0.33710  0.45280  0.75460  Biso   1.000  C
  C106     1.0000 0.28980  0.47310  0.69470  Biso   1.000  C
  H66      1.0000 0.26180  0.36080  0.66880  Biso   1.000  H
  C107     1.0000 0.35090  0.90760  0.83080  Biso   1.000  C
  H67      1.0000 0.30610  0.92400  0.77900  Biso   1.000  H
  H68      1.0000 0.37450  0.14080  0.80960  Biso   1.000  H
  C108     1.0000 0.39100  0.02920  0.84590  Biso   1.000  C
  H69      1.0000 0.35650  0.47710  0.77730  Biso   1.000  H
  H70      1.0000 0.27470  0.51200  0.67380  Biso   1.000  H
  H71      1.0000 0.34450  0.84760  0.83680  Biso   1.000  H
  H72      1.0000 0.41410  0.05510  0.86190  Biso   1.000  H
  I31      1.0000 0.97794  0.66780  0.36930  Biso   1.000  I
  I32      1.0000 0.87530  0.72900  0.44417  Biso   1.000  I
  I33      1.0000 0.65412  0.60620  0.98940  Biso   1.000  I
  I34      1.0000 0.61487  0.73400  0.10400  Biso   1.000  I
  I35      1.0000 0.36870  0.33000  0.29940  Biso   1.000  I
  I36      1.0000 0.26310  0.27390  0.19870  Biso   1.000  I
  I37      1.0000 0.47985  0.15480  0.36483  Biso   1.000  I
  Zn10     1.0000 0.42055  0.12562  0.40318  Biso   1.000  Zn
  N37      1.0000 0.38242  0.05500  0.35569  Biso   1.000  N
  I38      1.0000 0.38610  0.23160  0.44117  Biso   1.000  I
  N38      1.0000 0.43573  0.01940  0.44700  Biso   1.000  N
  C109     1.0000 0.41060  0.99460  0.47250  Biso   1.000  C
  C110     1.0000 0.46660  0.96790  0.44680  Biso   1.000  C
  H73      1.0000 0.38830  0.03080  0.47260  Biso   1.000  H
  C111     1.0000 0.41500  0.91880  0.49880  Biso   1.000  C
  C112     1.0000 0.47308  0.89050  0.47220  Biso   1.000  C
  H74      1.0000 0.48510  0.98470  0.42870  Biso   1.000  H
  C113     1.0000 0.44695  0.86590  0.49850  Biso   1.000  C
  H75      1.0000 0.39630  0.90370  0.51690  Biso   1.000  H
  H76      1.0000 0.49550  0.85500  0.47120  Biso   1.000  H
  C114     1.0000 0.45193  0.78340  0.52650  Biso   1.000  C
  N39      1.0000 0.48157  0.72940  0.52177  Biso   1.000  N
  N40      1.0000 0.42766  0.77280  0.55540  Biso   1.000  N
  C115     1.0000 0.48578  0.66050  0.55030  Biso   1.000  C
  C116     1.0000 0.43392  0.69950  0.58090  Biso   1.000  C
  C117     1.0000 0.52014  0.60200  0.55050  Biso   1.000  C
  N41      1.0000 0.46286  0.64150  0.57983  Biso   1.000  N
  C118     1.0000 0.40822  0.68400  0.61380  Biso   1.000  C
  C119     1.0000 0.53870  0.59580  0.51620  Biso   1.000  C
  C120     1.0000 0.53500  0.55700  0.58840  Biso   1.000  C
  C121     1.0000 0.41270  0.61150  0.64120  Biso   1.000  C
  C122     1.0000 0.37840  0.74000  0.61730  Biso   1.000  C
  C123     1.0000 0.57090  0.54170  0.51850  Biso   1.000  C
  H77      1.0000 0.52980  0.62900  0.48970  Biso   1.000  H
  H78      1.0000 0.52270  0.56000  0.61390  Biso   1.000  H
  C124     1.0000 0.56810  0.50700  0.58930  Biso   1.000  C
  C125     1.0000 0.38830  0.59970  0.67150  Biso   1.000  C
  H79      1.0000 0.43260  0.56910  0.63940  Biso   1.000  H
  C126     1.0000 0.35540  0.72440  0.64830  Biso   1.000  C
  H80      1.0000 0.37350  0.79030  0.59800  Biso   1.000  H
  H81      1.0000 0.58360  0.53840  0.49340  Biso   1.000  H
  N42      1.0000 0.58467  0.49440  0.55430  Biso   1.000  N
  H82      1.0000 0.57960  0.48010  0.61690  Biso   1.000  H
  N43      1.0000 0.36102  0.65630  0.67710  Biso   1.000  N
  H83      1.0000 0.39140  0.54730  0.68950  Biso   1.000  H
  H84      1.0000 0.33430  0.76400  0.64960  Biso   1.000  H
  Zn11     1.0000 0.63142  0.40821  0.55935  Biso   1.000  Zn
  Zn12     1.0000 0.33033  0.64335  0.72889  Biso   1.000  Zn
  I39      1.0000 0.61095  0.27036  0.59500  Biso   1.000  I
  I40      1.0000 0.65695  0.42390  0.48435  Biso   1.000  I
  N44      1.0000 0.67261  0.47370  0.60550  Biso   1.000  N
  I41      1.0000 0.38059  0.66731  0.80148  Biso   1.000  I
  N45      1.0000 0.31684  0.50810  0.72530  Biso   1.000  N
  I42      1.0000 0.27132  0.74084  0.70838  Biso   1.000  I
  C127     1.0000 0.67740  0.56030  0.60310  Biso   1.000  C
  C128     1.0000 0.69710  0.42810  0.63610  Biso   1.000  C
  H85      1.0000 0.66020  0.59280  0.58110  Biso   1.000  H
  C129     1.0000 0.70620  0.60710  0.63120  Biso   1.000  C
  C130     1.0000 0.72610  0.46870  0.66520  Biso   1.000  C
  H86      1.0000 0.69410  0.36510  0.63770  Biso   1.000  H
  H87      1.0000 0.70870  0.67000  0.62820  Biso   1.000  H
  C131     1.0000 0.73109  0.56070  0.66320  Biso   1.000  C
  H88      1.0000 0.74290  0.43420  0.68670  Biso   1.000  H
  C132     1.0000 0.76238  0.60480  0.69450  Biso   1.000  C
  N46      1.0000 0.76802  0.69290  0.68989  Biso   1.000  N
  N47      1.0000 0.78270  0.55300  0.72648  Biso   1.000  N
  C133     1.0000 0.79668  0.72720  0.71970  Biso   1.000  C
  C134     1.0000 0.81176  0.59450  0.75320  Biso   1.000  C
  C135     1.0000 0.80338  0.82540  0.72060  Biso   1.000  C
  N48      1.0000 0.81999  0.68070  0.75125  Biso   1.000  N
  C136     1.0000 0.83586  0.54130  0.78900  Biso   1.000  C
  C137     1.0000 0.83120  0.86140  0.75360  Biso   1.000  C
  C138     1.0000 0.78200  0.88280  0.69140  Biso   1.000  C
  C139     1.0000 0.82758  0.45300  0.79680  Biso   1.000  C
  C140     1.0000 0.86820  0.58010  0.81420  Biso   1.000  C
  H89      1.0000 0.84620  0.82390  0.77530  Biso   1.000  H
  C141     1.0000 0.83710  0.95280  0.75460  Biso   1.000  C
  C142     1.0000 0.78980  0.97310  0.69470  Biso   1.000  C
  H90      1.0000 0.76180  0.86080  0.66880  Biso   1.000  H
  C143     1.0000 0.85090  0.40760  0.83080  Biso   1.000  C
  H91      1.0000 0.80610  0.42400  0.77900  Biso   1.000  H
  H92      1.0000 0.87450  0.64080  0.80960  Biso   1.000  H
  C144     1.0000 0.89100  0.52920  0.84590  Biso   1.000  C
  H93      1.0000 0.85650  0.97710  0.77730  Biso   1.000  H
  H94      1.0000 0.77470  0.01200  0.67380  Biso   1.000  H
  H95      1.0000 0.84450  0.34760  0.83680  Biso   1.000  H
  H96      1.0000 0.91410  0.55510  0.86190  Biso   1.000  H
  I43      1.0000 0.47794  0.16780  0.36930  Biso   1.000  I
  I44      1.0000 0.37530  0.22900  0.44417  Biso   1.000  I
  I45      1.0000 0.15412  0.10620  0.98940  Biso   1.000  I
  I46      1.0000 0.11487  0.23400  0.10400  Biso   1.000  I
  I47      1.0000 0.86870  0.83000  0.29940  Biso   1.000  I
  I48      1.0000 0.76310  0.77390  0.19870  Biso   1.000  I
  I49      1.0000 0.02015  0.34520  0.63517  Biso   1.000  I
  Zn13     1.0000 0.07945  0.37438  0.59682  Biso   1.000  Zn
  N49      1.0000 0.11758  0.44500  0.64431  Biso   1.000  N
  I50      1.0000 0.11390  0.26840  0.55883  Biso   1.000  I
  N50      1.0000 0.06427  0.48060  0.55300  Biso   1.000  N
  C145     1.0000 0.08940  0.50540  0.52750  Biso   1.000  C
  C146     1.0000 0.03340  0.53210  0.55320  Biso   1.000  C
  H97      1.0000 0.11170  0.46920  0.52740  Biso   1.000  H
  C147     1.0000 0.08500  0.58120  0.50120  Biso   1.000  C
  C148     1.0000 0.02692  0.60950  0.52780  Biso   1.000  C
  H98      1.0000 0.01490  0.51530  0.57130  Biso   1.000  H
  C149     1.0000 0.05305  0.63410  0.50150  Biso   1.000  C
  H99      1.0000 0.10370  0.59630  0.48310  Biso   1.000  H
  H100     1.0000 0.00450  0.64500  0.52880  Biso   1.000  H
  C150     1.0000 0.04807  0.71660  0.47350  Biso   1.000  C
  N51      1.0000 0.01843  0.77060  0.47823  Biso   1.000  N
  N52      1.0000 0.07234  0.72720  0.44460  Biso   1.000  N
  C151     1.0000 0.01422  0.83950  0.44970  Biso   1.000  C
  C152     1.0000 0.06608  0.80050  0.41910  Biso   1.000  C
  C153     1.0000 0.97986  0.89800  0.44950  Biso   1.000  C
  N53      1.0000 0.03714  0.85850  0.42017  Biso   1.000  N
  C154     1.0000 0.09178  0.81600  0.38620  Biso   1.000  C
  C155     1.0000 0.96130  0.90420  0.48380  Biso   1.000  C
  C156     1.0000 0.96500  0.94300  0.41160  Biso   1.000  C
  C157     1.0000 0.08730  0.88850  0.35880  Biso   1.000  C
  C158     1.0000 0.12160  0.76000  0.38270  Biso   1.000  C
  C159     1.0000 0.92910  0.95830  0.48150  Biso   1.000  C
  H101     1.0000 0.97020  0.87100  0.51030  Biso   1.000  H
  H102     1.0000 0.97730  0.94000  0.38610  Biso   1.000  H
  C160     1.0000 0.93190  0.99300  0.41070  Biso   1.000  C
  C161     1.0000 0.11170  0.90030  0.32850  Biso   1.000  C
  H103     1.0000 0.06740  0.93090  0.36060  Biso   1.000  H
  C162     1.0000 0.14460  0.77560  0.35170  Biso   1.000  C
  H104     1.0000 0.12650  0.70970  0.40200  Biso   1.000  H
  H105     1.0000 0.91640  0.96160  0.50660  Biso   1.000  H
  N54      1.0000 0.91533  0.00560  0.44570  Biso   1.000  N
  H106     1.0000 0.92040  0.01990  0.38310  Biso   1.000  H
  N55      1.0000 0.13898  0.84370  0.32290  Biso   1.000  N
  H107     1.0000 0.10860  0.95270  0.31050  Biso   1.000  H
  H108     1.0000 0.16570  0.73600  0.35040  Biso   1.000  H
  Zn14     1.0000 0.86858  0.09179  0.44065  Biso   1.000  Zn
  Zn15     1.0000 0.16967  0.85665  0.27111  Biso   1.000  Zn
  I51      1.0000 0.88905  0.22964  0.40500  Biso   1.000  I
  I52      1.0000 0.84305  0.07610  0.51565  Biso   1.000  I
  N56      1.0000 0.82739  0.02630  0.39450  Biso   1.000  N
  I53      1.0000 0.11941  0.83269  0.19852  Biso   1.000  I
  N57      1.0000 0.18316  0.99190  0.27470  Biso   1.000  N
  I54      1.0000 0.22868  0.75916  0.29162  Biso   1.000  I
  C163     1.0000 0.82260  0.93970  0.39690  Biso   1.000  C
  C164     1.0000 0.80290  0.07190  0.36390  Biso   1.000  C
  H109     1.0000 0.83980  0.90720  0.41890  Biso   1.000  H
  C165     1.0000 0.79380  0.89290  0.36880  Biso   1.000  C
  C166     1.0000 0.77390  0.03130  0.33480  Biso   1.000  C
  H110     1.0000 0.80590  0.13490  0.36230  Biso   1.000  H
  H111     1.0000 0.79130  0.83000  0.37180  Biso   1.000  H
  C167     1.0000 0.76891  0.93930  0.33680  Biso   1.000  C
  H112     1.0000 0.75710  0.06580  0.31330  Biso   1.000  H
  C168     1.0000 0.73762  0.89520  0.30550  Biso   1.000  C
  N58      1.0000 0.73198  0.80710  0.31011  Biso   1.000  N
  N59      1.0000 0.71730  0.94700  0.27352  Biso   1.000  N
  C169     1.0000 0.70332  0.77280  0.28030  Biso   1.000  C
  C170     1.0000 0.68824  0.90550  0.24680  Biso   1.000  C
  C171     1.0000 0.69662  0.67460  0.27940  Biso   1.000  C
  N60      1.0000 0.68001  0.81930  0.24875  Biso   1.000  N
  C172     1.0000 0.66414  0.95870  0.21100  Biso   1.000  C
  C173     1.0000 0.66880  0.63860  0.24640  Biso   1.000  C
  C174     1.0000 0.71800  0.61720  0.30860  Biso   1.000  C
  C175     1.0000 0.67242  0.04700  0.20320  Biso   1.000  C
  C176     1.0000 0.63180  0.91990  0.18580  Biso   1.000  C
  H113     1.0000 0.65380  0.67610  0.22470  Biso   1.000  H
  C177     1.0000 0.66290  0.54720  0.24540  Biso   1.000  C
  C178     1.0000 0.71020  0.52690  0.30530  Biso   1.000  C
  H114     1.0000 0.73820  0.63920  0.33120  Biso   1.000  H
  C179     1.0000 0.64910  0.09240  0.16920  Biso   1.000  C
  H115     1.0000 0.69390  0.07600  0.22100  Biso   1.000  H
  H116     1.0000 0.62550  0.85920  0.19040  Biso   1.000  H
  C180     1.0000 0.60900  0.97080  0.15410  Biso   1.000  C
  H117     1.0000 0.64350  0.52290  0.22270  Biso   1.000  H
  H118     1.0000 0.72530  0.48800  0.32620  Biso   1.000  H
  H119     1.0000 0.65550  0.15240  0.16320  Biso   1.000  H
  H120     1.0000 0.58590  0.94490  0.13810  Biso   1.000  H
  I55      1.0000 0.02206  0.33220  0.63070  Biso   1.000  I
  I56      1.0000 0.12470  0.27100  0.55583  Biso   1.000  I
  I57      1.0000 0.34588  0.39380  0.01060  Biso   1.000  I
  I58      1.0000 0.38513  0.26600  0.89600  Biso   1.000  I
  I59      1.0000 0.63130  0.67000  0.70060  Biso   1.000  I
  I60      1.0000 0.73690  0.72610  0.80130  Biso   1.000  I
  I61      1.0000 0.52015  0.84520  0.63517  Biso   1.000  I
  Zn16     1.0000 0.57945  0.87438  0.59682  Biso   1.000  Zn
  N61      1.0000 0.61758  0.94500  0.64431  Biso   1.000  N
  I62      1.0000 0.61390  0.76840  0.55883  Biso   1.000  I
  N62      1.0000 0.56427  0.98060  0.55300  Biso   1.000  N
  C181     1.0000 0.58940  0.00540  0.52750  Biso   1.000  C
  C182     1.0000 0.53340  0.03210  0.55320  Biso   1.000  C
  H121     1.0000 0.61170  0.96920  0.52740  Biso   1.000  H
  C183     1.0000 0.58500  0.08120  0.50120  Biso   1.000  C
  C184     1.0000 0.52692  0.10950  0.52780  Biso   1.000  C
  H122     1.0000 0.51490  0.01530  0.57130  Biso   1.000  H
  C185     1.0000 0.55305  0.13410  0.50150  Biso   1.000  C
  H123     1.0000 0.60370  0.09630  0.48310  Biso   1.000  H
  H124     1.0000 0.50450  0.14500  0.52880  Biso   1.000  H
  C186     1.0000 0.54807  0.21660  0.47350  Biso   1.000  C
  N63      1.0000 0.51843  0.27060  0.47823  Biso   1.000  N
  N64      1.0000 0.57234  0.22720  0.44460  Biso   1.000  N
  C187     1.0000 0.51422  0.33950  0.44970  Biso   1.000  C
  C188     1.0000 0.56608  0.30050  0.41910  Biso   1.000  C
  C189     1.0000 0.47986  0.39800  0.44950  Biso   1.000  C
  N65      1.0000 0.53714  0.35850  0.42017  Biso   1.000  N
  C190     1.0000 0.59178  0.31600  0.38620  Biso   1.000  C
  C191     1.0000 0.46130  0.40420  0.48380  Biso   1.000  C
  C192     1.0000 0.46500  0.44300  0.41160  Biso   1.000  C
  C193     1.0000 0.58730  0.38850  0.35880  Biso   1.000  C
  C194     1.0000 0.62160  0.26000  0.38270  Biso   1.000  C
  C195     1.0000 0.42910  0.45830  0.48150  Biso   1.000  C
  H125     1.0000 0.47020  0.37100  0.51030  Biso   1.000  H
  H126     1.0000 0.47730  0.44000  0.38610  Biso   1.000  H
  C196     1.0000 0.43190  0.49300  0.41070  Biso   1.000  C
  C197     1.0000 0.61170  0.40030  0.32850  Biso   1.000  C
  H127     1.0000 0.56740  0.43090  0.36060  Biso   1.000  H
  C198     1.0000 0.64460  0.27560  0.35170  Biso   1.000  C
  H128     1.0000 0.62650  0.20970  0.40200  Biso   1.000  H
  H129     1.0000 0.41640  0.46160  0.50660  Biso   1.000  H
  N66      1.0000 0.41533  0.50560  0.44570  Biso   1.000  N
  H130     1.0000 0.42040  0.51990  0.38310  Biso   1.000  H
  N67      1.0000 0.63898  0.34370  0.32290  Biso   1.000  N
  H131     1.0000 0.60860  0.45270  0.31050  Biso   1.000  H
  H132     1.0000 0.66570  0.23600  0.35040  Biso   1.000  H
  Zn17     1.0000 0.36858  0.59179  0.44065  Biso   1.000  Zn
  Zn18     1.0000 0.66967  0.35665  0.27111  Biso   1.000  Zn
  I63      1.0000 0.38905  0.72964  0.40500  Biso   1.000  I
  I64      1.0000 0.34305  0.57610  0.51565  Biso   1.000  I
  N68      1.0000 0.32739  0.52630  0.39450  Biso   1.000  N
  I65      1.0000 0.61941  0.33269  0.19852  Biso   1.000  I
  N69      1.0000 0.68316  0.49190  0.27470  Biso   1.000  N
  I66      1.0000 0.72868  0.25916  0.29162  Biso   1.000  I
  C199     1.0000 0.32260  0.43970  0.39690  Biso   1.000  C
  C200     1.0000 0.30290  0.57190  0.36390  Biso   1.000  C
  H133     1.0000 0.33980  0.40720  0.41890  Biso   1.000  H
  C201     1.0000 0.29380  0.39290  0.36880  Biso   1.000  C
  C202     1.0000 0.27390  0.53130  0.33480  Biso   1.000  C
  H134     1.0000 0.30590  0.63490  0.36230  Biso   1.000  H
  H135     1.0000 0.29130  0.33000  0.37180  Biso   1.000  H
  C203     1.0000 0.26891  0.43930  0.33680  Biso   1.000  C
  H136     1.0000 0.25710  0.56580  0.31330  Biso   1.000  H
  C204     1.0000 0.23762  0.39520  0.30550  Biso   1.000  C
  N70      1.0000 0.23198  0.30710  0.31011  Biso   1.000  N
  N71      1.0000 0.21730  0.44700  0.27352  Biso   1.000  N
  C205     1.0000 0.20332  0.27280  0.28030  Biso   1.000  C
  C206     1.0000 0.18824  0.40550  0.24680  Biso   1.000  C
  C207     1.0000 0.19662  0.17460  0.27940  Biso   1.000  C
  N72      1.0000 0.18001  0.31930  0.24875  Biso   1.000  N
  C208     1.0000 0.16414  0.45870  0.21100  Biso   1.000  C
  C209     1.0000 0.16880  0.13860  0.24640  Biso   1.000  C
  C210     1.0000 0.21800  0.11720  0.30860  Biso   1.000  C
  C211     1.0000 0.17242  0.54700  0.20320  Biso   1.000  C
  C212     1.0000 0.13180  0.41990  0.18580  Biso   1.000  C
  H137     1.0000 0.15380  0.17610  0.22470  Biso   1.000  H
  C213     1.0000 0.16290  0.04720  0.24540  Biso   1.000  C
  C214     1.0000 0.21020  0.02690  0.30530  Biso   1.000  C
  H138     1.0000 0.23820  0.13920  0.33120  Biso   1.000  H
  C215     1.0000 0.14910  0.59240  0.16920  Biso   1.000  C
  H139     1.0000 0.19390  0.57600  0.22100  Biso   1.000  H
  H140     1.0000 0.12550  0.35920  0.19040  Biso   1.000  H
  C216     1.0000 0.10900  0.47080  0.15410  Biso   1.000  C
  H141     1.0000 0.14350  0.02290  0.22270  Biso   1.000  H
  H142     1.0000 0.22530  0.98800  0.32620  Biso   1.000  H
  H143     1.0000 0.15550  0.65240  0.16320  Biso   1.000  H
  H144     1.0000 0.08590  0.44490  0.13810  Biso   1.000  H
  I67      1.0000 0.52206  0.83220  0.63070  Biso   1.000  I
  I68      1.0000 0.62470  0.77100  0.55583  Biso   1.000  I
  I69      1.0000 0.84588  0.89380  0.01060  Biso   1.000  I
  I70      1.0000 0.88513  0.76600  0.89600  Biso   1.000  I
  I71      1.0000 0.13130  0.17000  0.70060  Biso   1.000  I
  I72      1.0000 0.23690  0.22610  0.80130  Biso   1.000  I
  I73      1.0000 0.02015  0.65480  0.13517  Biso   1.000  I
  Zn19     1.0000 0.07945  0.62562  0.09682  Biso   1.000  Zn
  N73      1.0000 0.11758  0.55500  0.14431  Biso   1.000  N
  I74      1.0000 0.11390  0.73160  0.05883  Biso   1.000  I
  N74      1.0000 0.06427  0.51940  0.05300  Biso   1.000  N
  C217     1.0000 0.08940  0.49460  0.02750  Biso   1.000  C
  C218     1.0000 0.03340  0.46790  0.05320  Biso   1.000  C
  H145     1.0000 0.11170  0.53080  0.02740  Biso   1.000  H
  C219     1.0000 0.08500  0.41880  0.00120  Biso   1.000  C
  C220     1.0000 0.02692  0.39050  0.02780  Biso   1.000  C
  H146     1.0000 0.01490  0.48470  0.07130  Biso   1.000  H
  C221     1.0000 0.05305  0.36590  0.00150  Biso   1.000  C
  H147     1.0000 0.10370  0.40370  0.98310  Biso   1.000  H
  H148     1.0000 0.00450  0.35500  0.02880  Biso   1.000  H
  C222     1.0000 0.04807  0.28340  0.97350  Biso   1.000  C
  N75      1.0000 0.01843  0.22940  0.97823  Biso   1.000  N
  N76      1.0000 0.07234  0.27280  0.94460  Biso   1.000  N
  C223     1.0000 0.01422  0.16050  0.94970  Biso   1.000  C
  C224     1.0000 0.06608  0.19950  0.91910  Biso   1.000  C
  C225     1.0000 0.97986  0.10200  0.94950  Biso   1.000  C
  N77      1.0000 0.03714  0.14150  0.92017  Biso   1.000  N
  C226     1.0000 0.09178  0.18400  0.88620  Biso   1.000  C
  C227     1.0000 0.96130  0.09580  0.98380  Biso   1.000  C
  C228     1.0000 0.96500  0.05700  0.91160  Biso   1.000  C
  C229     1.0000 0.08730  0.11150  0.85880  Biso   1.000  C
  C230     1.0000 0.12160  0.24000  0.88270  Biso   1.000  C
  C231     1.0000 0.92910  0.04170  0.98150  Biso   1.000  C
  H149     1.0000 0.97020  0.12900  0.01030  Biso   1.000  H
  H150     1.0000 0.97730  0.06000  0.88610  Biso   1.000  H
  C232     1.0000 0.93190  0.00700  0.91070  Biso   1.000  C
  C233     1.0000 0.11170  0.09970  0.82850  Biso   1.000  C
  H151     1.0000 0.06740  0.06910  0.86060  Biso   1.000  H
  C234     1.0000 0.14460  0.22440  0.85170  Biso   1.000  C
  H152     1.0000 0.12650  0.29030  0.90200  Biso   1.000  H
  H153     1.0000 0.91640  0.03840  0.00660  Biso   1.000  H
  N78      1.0000 0.91533  0.99440  0.94570  Biso   1.000  N
  H154     1.0000 0.92040  0.98010  0.88310  Biso   1.000  H
  N79      1.0000 0.13898  0.15630  0.82290  Biso   1.000  N
  H155     1.0000 0.10860  0.04730  0.81050  Biso   1.000  H
  H156     1.0000 0.16570  0.26400  0.85040  Biso   1.000  H
  Zn20     1.0000 0.86858  0.90821  0.94065  Biso   1.000  Zn
  Zn21     1.0000 0.16967  0.14335  0.77111  Biso   1.000  Zn
  I75      1.0000 0.88905  0.77036  0.90500  Biso   1.000  I
  I76      1.0000 0.84305  0.92390  0.01565  Biso   1.000  I
  N80      1.0000 0.82739  0.97370  0.89450  Biso   1.000  N
  I77      1.0000 0.11941  0.16731  0.69852  Biso   1.000  I
  N81      1.0000 0.18316  0.00810  0.77470  Biso   1.000  N
  I78      1.0000 0.22868  0.24084  0.79162  Biso   1.000  I
  C235     1.0000 0.82260  0.06030  0.89690  Biso   1.000  C
  C236     1.0000 0.80290  0.92810  0.86390  Biso   1.000  C
  H157     1.0000 0.83980  0.09280  0.91890  Biso   1.000  H
  C237     1.0000 0.79380  0.10710  0.86880  Biso   1.000  C
  C238     1.0000 0.77390  0.96870  0.83480  Biso   1.000  C
  H158     1.0000 0.80590  0.86510  0.86230  Biso   1.000  H
  H159     1.0000 0.79130  0.17000  0.87180  Biso   1.000  H
  C239     1.0000 0.76891  0.06070  0.83680  Biso   1.000  C
  H160     1.0000 0.75710  0.93420  0.81330  Biso   1.000  H
  C240     1.0000 0.73762  0.10480  0.80550  Biso   1.000  C
  N82      1.0000 0.73198  0.19290  0.81011  Biso   1.000  N
  N83      1.0000 0.71730  0.05300  0.77352  Biso   1.000  N
  C241     1.0000 0.70332  0.22720  0.78030  Biso   1.000  C
  C242     1.0000 0.68824  0.09450  0.74680  Biso   1.000  C
  C243     1.0000 0.69662  0.32540  0.77940  Biso   1.000  C
  N84      1.0000 0.68001  0.18070  0.74875  Biso   1.000  N
  C244     1.0000 0.66414  0.04130  0.71100  Biso   1.000  C
  C245     1.0000 0.66880  0.36140  0.74640  Biso   1.000  C
  C246     1.0000 0.71800  0.38280  0.80860  Biso   1.000  C
  C247     1.0000 0.67242  0.95300  0.70320  Biso   1.000  C
  C248     1.0000 0.63180  0.08010  0.68580  Biso   1.000  C
  H161     1.0000 0.65380  0.32390  0.72470  Biso   1.000  H
  C249     1.0000 0.66290  0.45280  0.74540  Biso   1.000  C
  C250     1.0000 0.71020  0.47310  0.80530  Biso   1.000  C
  H162     1.0000 0.73820  0.36080  0.83120  Biso   1.000  H
  C251     1.0000 0.64910  0.90760  0.66920  Biso   1.000  C
  H163     1.0000 0.69390  0.92400  0.72100  Biso   1.000  H
  H164     1.0000 0.62550  0.14080  0.69040  Biso   1.000  H
  C252     1.0000 0.60900  0.02920  0.65410  Biso   1.000  C
  H165     1.0000 0.64350  0.47710  0.72270  Biso   1.000  H
  H166     1.0000 0.72530  0.51200  0.82620  Biso   1.000  H
  H167     1.0000 0.65550  0.84760  0.66320  Biso   1.000  H
  H168     1.0000 0.58590  0.05510  0.63810  Biso   1.000  H
  I79      1.0000 0.02206  0.66780  0.13070  Biso   1.000  I
  I80      1.0000 0.12470  0.72900  0.05583  Biso   1.000  I
  I81      1.0000 0.34588  0.60620  0.51060  Biso   1.000  I
  I82      1.0000 0.38513  0.73400  0.39600  Biso   1.000  I
  I83      1.0000 0.63130  0.33000  0.20060  Biso   1.000  I
  I84      1.0000 0.73690  0.27390  0.30130  Biso   1.000  I
  I85      1.0000 0.52015  0.15480  0.13517  Biso   1.000  I
  Zn22     1.0000 0.57945  0.12562  0.09682  Biso   1.000  Zn
  N85      1.0000 0.61758  0.05500  0.14431  Biso   1.000  N
  I86      1.0000 0.61390  0.23160  0.05883  Biso   1.000  I
  N86      1.0000 0.56427  0.01940  0.05300  Biso   1.000  N
  C253     1.0000 0.58940  0.99460  0.02750  Biso   1.000  C
  C254     1.0000 0.53340  0.96790  0.05320  Biso   1.000  C
  H169     1.0000 0.61170  0.03080  0.02740  Biso   1.000  H
  C255     1.0000 0.58500  0.91880  0.00120  Biso   1.000  C
  C256     1.0000 0.52692  0.89050  0.02780  Biso   1.000  C
  H170     1.0000 0.51490  0.98470  0.07130  Biso   1.000  H
  C257     1.0000 0.55305  0.86590  0.00150  Biso   1.000  C
  H171     1.0000 0.60370  0.90370  0.98310  Biso   1.000  H
  H172     1.0000 0.50450  0.85500  0.02880  Biso   1.000  H
  C258     1.0000 0.54807  0.78340  0.97350  Biso   1.000  C
  N87      1.0000 0.51843  0.72940  0.97823  Biso   1.000  N
  N88      1.0000 0.57234  0.77280  0.94460  Biso   1.000  N
  C259     1.0000 0.51422  0.66050  0.94970  Biso   1.000  C
  C260     1.0000 0.56608  0.69950  0.91910  Biso   1.000  C
  C261     1.0000 0.47986  0.60200  0.94950  Biso   1.000  C
  N89      1.0000 0.53714  0.64150  0.92017  Biso   1.000  N
  C262     1.0000 0.59178  0.68400  0.88620  Biso   1.000  C
  C263     1.0000 0.46130  0.59580  0.98380  Biso   1.000  C
  C264     1.0000 0.46500  0.55700  0.91160  Biso   1.000  C
  C265     1.0000 0.58730  0.61150  0.85880  Biso   1.000  C
  C266     1.0000 0.62160  0.74000  0.88270  Biso   1.000  C
  C267     1.0000 0.42910  0.54170  0.98150  Biso   1.000  C
  H173     1.0000 0.47020  0.62900  0.01030  Biso   1.000  H
  H174     1.0000 0.47730  0.56000  0.88610  Biso   1.000  H
  C268     1.0000 0.43190  0.50700  0.91070  Biso   1.000  C
  C269     1.0000 0.61170  0.59970  0.82850  Biso   1.000  C
  H175     1.0000 0.56740  0.56910  0.86060  Biso   1.000  H
  C270     1.0000 0.64460  0.72440  0.85170  Biso   1.000  C
  H176     1.0000 0.62650  0.79030  0.90200  Biso   1.000  H
  H177     1.0000 0.41640  0.53840  0.00660  Biso   1.000  H
  N90      1.0000 0.41533  0.49440  0.94570  Biso   1.000  N
  H178     1.0000 0.42040  0.48010  0.88310  Biso   1.000  H
  N91      1.0000 0.63898  0.65630  0.82290  Biso   1.000  N
  H179     1.0000 0.60860  0.54730  0.81050  Biso   1.000  H
  H180     1.0000 0.66570  0.76400  0.85040  Biso   1.000  H
  Zn23     1.0000 0.36858  0.40821  0.94065  Biso   1.000  Zn
  Zn24     1.0000 0.66967  0.64335  0.77111  Biso   1.000  Zn
  I87      1.0000 0.38905  0.27036  0.90500  Biso   1.000  I
  I88      1.0000 0.34305  0.42390  0.01565  Biso   1.000  I
  N92      1.0000 0.32739  0.47370  0.89450  Biso   1.000  N
  I89      1.0000 0.61941  0.66731  0.69852  Biso   1.000  I
  N93      1.0000 0.68316  0.50810  0.77470  Biso   1.000  N
  I90      1.0000 0.72868  0.74084  0.79162  Biso   1.000  I
  C271     1.0000 0.32260  0.56030  0.89690  Biso   1.000  C
  C272     1.0000 0.30290  0.42810  0.86390  Biso   1.000  C
  H181     1.0000 0.33980  0.59280  0.91890  Biso   1.000  H
  C273     1.0000 0.29380  0.60710  0.86880  Biso   1.000  C
  C274     1.0000 0.27390  0.46870  0.83480  Biso   1.000  C
  H182     1.0000 0.30590  0.36510  0.86230  Biso   1.000  H
  H183     1.0000 0.29130  0.67000  0.87180  Biso   1.000  H
  C275     1.0000 0.26891  0.56070  0.83680  Biso   1.000  C
  H184     1.0000 0.25710  0.43420  0.81330  Biso   1.000  H
  C276     1.0000 0.23762  0.60480  0.80550  Biso   1.000  C
  N94      1.0000 0.23198  0.69290  0.81011  Biso   1.000  N
  N95      1.0000 0.21730  0.55300  0.77352  Biso   1.000  N
  C277     1.0000 0.20332  0.72720  0.78030  Biso   1.000  C
  C278     1.0000 0.18824  0.59450  0.74680  Biso   1.000  C
  C279     1.0000 0.19662  0.82540  0.77940  Biso   1.000  C
  N96      1.0000 0.18001  0.68070  0.74875  Biso   1.000  N
  C280     1.0000 0.16414  0.54130  0.71100  Biso   1.000  C
  C281     1.0000 0.16880  0.86140  0.74640  Biso   1.000  C
  C282     1.0000 0.21800  0.88280  0.80860  Biso   1.000  C
  C283     1.0000 0.17242  0.45300  0.70320  Biso   1.000  C
  C284     1.0000 0.13180  0.58010  0.68580  Biso   1.000  C
  H185     1.0000 0.15380  0.82390  0.72470  Biso   1.000  H
  C285     1.0000 0.16290  0.95280  0.74540  Biso   1.000  C
  C286     1.0000 0.21020  0.97310  0.80530  Biso   1.000  C
  H186     1.0000 0.23820  0.86080  0.83120  Biso   1.000  H
  C287     1.0000 0.14910  0.40760  0.66920  Biso   1.000  C
  H187     1.0000 0.19390  0.42400  0.72100  Biso   1.000  H
  H188     1.0000 0.12550  0.64080  0.69040  Biso   1.000  H
  C288     1.0000 0.10900  0.52920  0.65410  Biso   1.000  C
  H189     1.0000 0.14350  0.97710  0.72270  Biso   1.000  H
  H190     1.0000 0.22530  0.01200  0.82620  Biso   1.000  H
  H191     1.0000 0.15550  0.34760  0.66320  Biso   1.000  H
  H192     1.0000 0.08590  0.55510  0.63810  Biso   1.000  H
  I91      1.0000 0.52206  0.16780  0.13070  Biso   1.000  I
  I92      1.0000 0.62470  0.22900  0.05583  Biso   1.000  I
  I93      1.0000 0.84588  0.10620  0.51060  Biso   1.000  I
  I94      1.0000 0.88513  0.23400  0.39600  Biso   1.000  I
  I95      1.0000 0.13130  0.83000  0.20060  Biso   1.000  I
  I96      1.0000 0.23690  0.77390  0.30130  Biso   1.000  I
  C289     1.0000 0.55210  0.77600  0.23200  Biso   1.000  C
  C290     1.0000 0.56170  0.69900  0.24980  Biso   1.000  C
  C291     1.0000 0.59410  0.69180  0.29220  Biso   1.000  C
  C292     1.0000 0.60810  0.77700  0.31720  Biso   1.000  C
  C293     1.0000 0.59630  0.85660  0.29470  Biso   1.000  C
  O1       1.0000 0.56820  0.85360  0.25480  Biso   1.000  O
  C294     1.0000 0.60970  0.93800  0.30500  Biso   1.000  C
  C295     1.0000 0.63270  0.94760  0.35040  Biso   1.000  C
  C296     1.0000 0.64260  0.86530  0.37400  Biso   1.000  C
  C297     1.0000 0.63520  0.77640  0.35760  Biso   1.000  C
  C298     1.0000 0.52440  0.79700  0.19050  Biso   1.000  C
  C299     1.0000 0.50600  0.87830  0.18590  Biso   1.000  C
  H193     1.0000 0.51140  0.92210  0.20880  Biso   1.000  H
  C300     1.0000 0.47870  0.89610  0.14610  Biso   1.000  C
  H194     1.0000 0.46810  0.95450  0.14130  Biso   1.000  H
  C301     1.0000 0.46710  0.82960  0.11390  Biso   1.000  C
  C302     1.0000 0.48440  0.74230  0.12250  Biso   1.000  C
  C303     1.0000 0.51400  0.72950  0.15890  Biso   1.000  C
  H195     1.0000 0.52750  0.67410  0.16220  Biso   1.000  H
  O2       1.0000 0.59690  0.61390  0.31040  Biso   1.000  O
  O3       1.0000 0.58980  0.00830  0.28860  Biso   1.000  O
  C304     1.0000 0.59420  0.07600  0.26580  Biso   1.000  C
  H196     1.0000 0.57040  0.11250  0.26180  Biso   1.000  H
  H197     1.0000 0.61610  0.11180  0.28140  Biso   1.000  H
  H198     1.0000 0.59960  0.05800  0.23650  Biso   1.000  H
  O4       1.0000 0.63180  0.02200  0.37450  Biso   1.000  O
  C305     1.0000 0.66710  0.07200  0.38530  Biso   1.000  C
  H199     1.0000 0.66270  0.12470  0.40290  Biso   1.000  H
  H200     1.0000 0.68730  0.03450  0.40270  Biso   1.000  H
  H201     1.0000 0.67560  0.09110  0.35760  Biso   1.000  H
  O5       1.0000 0.44210  0.83670  0.07970  Biso   1.000  O
  C306     1.0000 0.41990  0.92300  0.07530  Biso   1.000  C
  H202     1.0000 0.40100  0.92210  0.04740  Biso   1.000  H
  H203     1.0000 0.40630  0.92920  0.10070  Biso   1.000  H
  H204     1.0000 0.43800  0.97260  0.07490  Biso   1.000  H
  O6       1.0000 0.47710  0.69020  0.08800  Biso   1.000  O
  C307     1.0000 0.48600  0.59680  0.09900  Biso   1.000  C
  H205     1.0000 0.47970  0.56050  0.07180  Biso   1.000  H
  H206     1.0000 0.51330  0.59040  0.11200  Biso   1.000  H
  H207     1.0000 0.46970  0.57660  0.12070  Biso   1.000  H
  O7       1.0000 0.54230  0.63100  0.23410  Biso   1.000  O
  C308     1.0000 0.57260  0.57100  0.21410  Biso   1.000  C
  H208     1.0000 0.55970  0.51590  0.20130  Biso   1.000  H
  H209     1.0000 0.58250  0.60400  0.19080  Biso   1.000  H
  H210     1.0000 0.59420  0.55470  0.23800  Biso   1.000  H
  O8       1.0000 0.67190  0.86600  0.41340  Biso   1.000  O
  C309     1.0000 0.65120  0.89900  0.44670  Biso   1.000  C
  H211     1.0000 0.66890  0.90190  0.47560  Biso   1.000  H
  H212     1.0000 0.64110  0.95870  0.43830  Biso   1.000  H
  H213     1.0000 0.62960  0.85860  0.44920  Biso   1.000  H
  O9       1.0000 0.65310  0.71660  0.37370  Biso   1.000  O
  C310     1.0000 0.64900  0.64500  0.40250  Biso   1.000  C
  H214     1.0000 0.67230  0.60860  0.40760  Biso   1.000  H
  H215     1.0000 0.64370  0.66850  0.43120  Biso   1.000  H
  H216     1.0000 0.62650  0.60780  0.38890  Biso   1.000  H
  C311     1.0000 0.48530  0.46200  0.22790  Biso   1.000  C
  H217     1.0000 0.48920  0.51550  0.21010  Biso   1.000  H
  H218     1.0000 0.45840  0.46280  0.23410  Biso   1.000  H
  C312     1.0000 0.49200  0.37600  0.20140  Biso   1.000  C
  H219     1.0000 0.47390  0.37620  0.17220  Biso   1.000  H
  H220     1.0000 0.51880  0.37430  0.19590  Biso   1.000  H
  C313     1.0000 0.48340  0.29500  0.22950  Biso   1.000  C
  H221     1.0000 0.48360  0.23910  0.21220  Biso   1.000  H
  H222     1.0000 0.45780  0.30120  0.23900  Biso   1.000  H
  C314     1.0000 0.59330  0.79000  0.28970  Biso   1.000  C
  C315     1.0000 0.58960  0.70860  0.30150  Biso   1.000  C
  C316     1.0000 0.56620  0.64100  0.26790  Biso   1.000  C
  C317     1.0000 0.55120  0.67600  0.22060  Biso   1.000  C
  C318     1.0000 0.54770  0.76700  0.21690  Biso   1.000  C
  O10      1.0000 0.56930  0.82290  0.25090  Biso   1.000  O
  C319     1.0000 0.52970  0.81200  0.18250  Biso   1.000  C
  C320     1.0000 0.50310  0.76000  0.14920  Biso   1.000  C
  C321     1.0000 0.50960  0.66400  0.15100  Biso   1.000  C
  C322     1.0000 0.52590  0.61900  0.19110  Biso   1.000  C
  C323     1.0000 0.61590  0.86010  0.31790  Biso   1.000  C
  C324     1.0000 0.64400  0.84400  0.35430  Biso   1.000  C
  H223     1.0000 0.64770  0.78540  0.36670  Biso   1.000  H
  C325     1.0000 0.66820  0.91810  0.37380  Biso   1.000  C
  H224     1.0000 0.69130  0.90820  0.39490  Biso   1.000  H
  C326     1.0000 0.65600  0.00570  0.36010  Biso   1.000  C
  C327     1.0000 0.62890  0.01710  0.31930  Biso   1.000  C
  C328     1.0000 0.60380  0.94700  0.30420  Biso   1.000  C
  H225     1.0000 0.57950  0.95740  0.28530  Biso   1.000  H
  O11      1.0000 0.56490  0.55860  0.27930  Biso   1.000  O
  O12      1.0000 0.52920  0.89900  0.18380  Biso   1.000  O
  C329     1.0000 0.51090  0.95400  0.20500  Biso   1.000  C
  H226     1.0000 0.51770  0.01500  0.19760  Biso   1.000  H
  H227     1.0000 0.48280  0.94470  0.19520  Biso   1.000  H
  H228     1.0000 0.51800  0.94350  0.23690  Biso   1.000  H
  O13      1.0000 0.48210  0.79100  0.11120  Biso   1.000  O
  C330     1.0000 0.46700  0.88000  0.11400  Biso   1.000  C
  H229     1.0000 0.45200  0.89760  0.08470  Biso   1.000  H
  H230     1.0000 0.44990  0.88190  0.13640  Biso   1.000  H
  H231     1.0000 0.48850  0.92220  0.12240  Biso   1.000  H
  O14      1.0000 0.68100  0.06460  0.36940  Biso   1.000  O
  C331     1.0000 0.70790  0.06200  0.41200  Biso   1.000  C
  H232     1.0000 0.72570  0.11270  0.41400  Biso   1.000  H
  H233     1.0000 0.69310  0.06430  0.43660  Biso   1.000  H
  H234     1.0000 0.72280  0.00590  0.41390  Biso   1.000  H
  O15      1.0000 0.62140  0.09450  0.30060  Biso   1.000  O
  C332     1.0000 0.57920  0.10100  0.28160  Biso   1.000  C
  H235     1.0000 0.57380  0.15990  0.26750  Biso   1.000  H
  H236     1.0000 0.57210  0.05420  0.25910  Biso   1.000  H
  H237     1.0000 0.56400  0.09400  0.30560  Biso   1.000  H
  O16      1.0000 0.61760  0.65660  0.32870  Biso   1.000  O
  C333     1.0000 0.61350  0.65900  0.37530  Biso   1.000  C
  H238     1.0000 0.63370  0.62200  0.39290  Biso   1.000  H
  H239     1.0000 0.61620  0.72100  0.38610  Biso   1.000  H
  H240     1.0000 0.58780  0.63630  0.37840  Biso   1.000  H
  O17      1.0000 0.48290  0.60600  0.12200  Biso   1.000  O
  C334     1.0000 0.44360  0.63500  0.12200  Biso   1.000  C
  H241     1.0000 0.42550  0.59610  0.10260  Biso   1.000  H
  H242     1.0000 0.43800  0.63330  0.15240  Biso   1.000  H
  H243     1.0000 0.44060  0.69680  0.11060  Biso   1.000  H
  O18      1.0000 0.52760  0.54400  0.19170  Biso   1.000  O
  C335     1.0000 0.51500  0.46500  0.20980  Biso   1.000  C
  H244     1.0000 0.52660  0.41310  0.19750  Biso   1.000  H
  H245     1.0000 0.52270  0.46570  0.24240  Biso   1.000  H
  H246     1.0000 0.48640  0.46100  0.20210  Biso   1.000  H
  C336     1.0000 0.44790  0.77600  0.26800  Biso   1.000  C
  C337     1.0000 0.43830  0.69900  0.25020  Biso   1.000  C
  C338     1.0000 0.40590  0.69180  0.20780  Biso   1.000  C
  C339     1.0000 0.39190  0.77700  0.18280  Biso   1.000  C
  C340     1.0000 0.40370  0.85660  0.20530  Biso   1.000  C
  O19      1.0000 0.43180  0.85360  0.24520  Biso   1.000  O
  C341     1.0000 0.39030  0.93800  0.19500  Biso   1.000  C
  C342     1.0000 0.36730  0.94760  0.14960  Biso   1.000  C
  C343     1.0000 0.35740  0.86530  0.12600  Biso   1.000  C
  C344     1.0000 0.36480  0.77640  0.14240  Biso   1.000  C
  C345     1.0000 0.47560  0.79700  0.30950  Biso   1.000  C
  C346     1.0000 0.49400  0.87830  0.31410  Biso   1.000  C
  H247     1.0000 0.48860  0.92210  0.29120  Biso   1.000  H
  C347     1.0000 0.52130  0.89610  0.35390  Biso   1.000  C
  H248     1.0000 0.53190  0.95450  0.35870  Biso   1.000  H
  C348     1.0000 0.53290  0.82960  0.38610  Biso   1.000  C
  C349     1.0000 0.51560  0.74230  0.37750  Biso   1.000  C
  C350     1.0000 0.48600  0.72950  0.34110  Biso   1.000  C
  H249     1.0000 0.47250  0.67410  0.33780  Biso   1.000  H
  O20      1.0000 0.40310  0.61390  0.18960  Biso   1.000  O
  O21      1.0000 0.41020  0.00830  0.21140  Biso   1.000  O
  C351     1.0000 0.40580  0.07600  0.23420  Biso   1.000  C
  H250     1.0000 0.42960  0.11250  0.23820  Biso   1.000  H
  H251     1.0000 0.38390  0.11180  0.21860  Biso   1.000  H
  H252     1.0000 0.40040  0.05800  0.26350  Biso   1.000  H
  O22      1.0000 0.36820  0.02200  0.12550  Biso   1.000  O
  C352     1.0000 0.33290  0.07200  0.11470  Biso   1.000  C
  H253     1.0000 0.33730  0.12470  0.09710  Biso   1.000  H
  H254     1.0000 0.31270  0.03450  0.09730  Biso   1.000  H
  H255     1.0000 0.32440  0.09110  0.14240  Biso   1.000  H
  O23      1.0000 0.55790  0.83670  0.42030  Biso   1.000  O
  C353     1.0000 0.58010  0.92300  0.42470  Biso   1.000  C
  H256     1.0000 0.59900  0.92210  0.45260  Biso   1.000  H
  H257     1.0000 0.59370  0.92920  0.39930  Biso   1.000  H
  H258     1.0000 0.56200  0.97260  0.42510  Biso   1.000  H
  O24      1.0000 0.52290  0.69020  0.41200  Biso   1.000  O
  C354     1.0000 0.51400  0.59680  0.40100  Biso   1.000  C
  H259     1.0000 0.52030  0.56050  0.42820  Biso   1.000  H
  H260     1.0000 0.48670  0.59040  0.38800  Biso   1.000  H
  H261     1.0000 0.53030  0.57660  0.37930  Biso   1.000  H
  O25      1.0000 0.45770  0.63100  0.26590  Biso   1.000  O
  C355     1.0000 0.42740  0.57100  0.28590  Biso   1.000  C
  H262     1.0000 0.44030  0.51590  0.29870  Biso   1.000  H
  H263     1.0000 0.41750  0.60400  0.30920  Biso   1.000  H
  H264     1.0000 0.40580  0.55470  0.26200  Biso   1.000  H
  O26      1.0000 0.32810  0.86600  0.08660  Biso   1.000  O
  C356     1.0000 0.34880  0.89900  0.05330  Biso   1.000  C
  H265     1.0000 0.33110  0.90190  0.02440  Biso   1.000  H
  H266     1.0000 0.35890  0.95870  0.06170  Biso   1.000  H
  H267     1.0000 0.37040  0.85860  0.05080  Biso   1.000  H
  O27      1.0000 0.34690  0.71660  0.12630  Biso   1.000  O
  C357     1.0000 0.35100  0.64500  0.09750  Biso   1.000  C
  H268     1.0000 0.32770  0.60860  0.09240  Biso   1.000  H
  H269     1.0000 0.35630  0.66850  0.06880  Biso   1.000  H
  H270     1.0000 0.37350  0.60780  0.11110  Biso   1.000  H
  C358     1.0000 0.51470  0.46200  0.27210  Biso   1.000  C
  H271     1.0000 0.51080  0.51550  0.28990  Biso   1.000  H
  H272     1.0000 0.54160  0.46280  0.26590  Biso   1.000  H
  C359     1.0000 0.50800  0.37600  0.29860  Biso   1.000  C
  H273     1.0000 0.52610  0.37620  0.32780  Biso   1.000  H
  H274     1.0000 0.48120  0.37430  0.30410  Biso   1.000  H
  C360     1.0000 0.51660  0.29500  0.27050  Biso   1.000  C
  H275     1.0000 0.51640  0.23910  0.28780  Biso   1.000  H
  H276     1.0000 0.54220  0.30120  0.26100  Biso   1.000  H
  C361     1.0000 0.40670  0.79000  0.21030  Biso   1.000  C
  C362     1.0000 0.41040  0.70860  0.19850  Biso   1.000  C
  C363     1.0000 0.43380  0.64100  0.23210  Biso   1.000  C
  C364     1.0000 0.44880  0.67600  0.27940  Biso   1.000  C
  C365     1.0000 0.45230  0.76700  0.28310  Biso   1.000  C
  O28      1.0000 0.43070  0.82290  0.24910  Biso   1.000  O
  C366     1.0000 0.47030  0.81200  0.31750  Biso   1.000  C
  C367     1.0000 0.49690  0.76000  0.35080  Biso   1.000  C
  C368     1.0000 0.49040  0.66400  0.34900  Biso   1.000  C
  C369     1.0000 0.47410  0.61900  0.30890  Biso   1.000  C
  C370     1.0000 0.38410  0.86010  0.18210  Biso   1.000  C
  C371     1.0000 0.35600  0.84400  0.14570  Biso   1.000  C
  H277     1.0000 0.35230  0.78540  0.13330  Biso   1.000  H
  C372     1.0000 0.33180  0.91810  0.12620  Biso   1.000  C
  H278     1.0000 0.30870  0.90820  0.10510  Biso   1.000  H
  C373     1.0000 0.34400  0.00570  0.13990  Biso   1.000  C
  C374     1.0000 0.37110  0.01710  0.18070  Biso   1.000  C
  C375     1.0000 0.39620  0.94700  0.19580  Biso   1.000  C
  H279     1.0000 0.42050  0.95740  0.21470  Biso   1.000  H
  O29      1.0000 0.43510  0.55860  0.22070  Biso   1.000  O
  O30      1.0000 0.47080  0.89900  0.31620  Biso   1.000  O
  C376     1.0000 0.48910  0.95400  0.29500  Biso   1.000  C
  H280     1.0000 0.48230  0.01500  0.30240  Biso   1.000  H
  H281     1.0000 0.51720  0.94470  0.30480  Biso   1.000  H
  H282     1.0000 0.48200  0.94350  0.26310  Biso   1.000  H
  O31      1.0000 0.51790  0.79100  0.38880  Biso   1.000  O
  C377     1.0000 0.53300  0.88000  0.38600  Biso   1.000  C
  H283     1.0000 0.54800  0.89760  0.41530  Biso   1.000  H
  H284     1.0000 0.55010  0.88190  0.36360  Biso   1.000  H
  H285     1.0000 0.51150  0.92220  0.37760  Biso   1.000  H
  O32      1.0000 0.31900  0.06460  0.13060  Biso   1.000  O
  C378     1.0000 0.29210  0.06200  0.08800  Biso   1.000  C
  H286     1.0000 0.27430  0.11270  0.08600  Biso   1.000  H
  H287     1.0000 0.30690  0.06430  0.06340  Biso   1.000  H
  H288     1.0000 0.27720  0.00590  0.08610  Biso   1.000  H
  O33      1.0000 0.37860  0.09450  0.19940  Biso   1.000  O
  C379     1.0000 0.42080  0.10100  0.21840  Biso   1.000  C
  H289     1.0000 0.42620  0.15990  0.23250  Biso   1.000  H
  H290     1.0000 0.42790  0.05420  0.24090  Biso   1.000  H
  H291     1.0000 0.43600  0.09400  0.19440  Biso   1.000  H
  O34      1.0000 0.38240  0.65660  0.17130  Biso   1.000  O
  C380     1.0000 0.38650  0.65900  0.12470  Biso   1.000  C
  H292     1.0000 0.36630  0.62200  0.10710  Biso   1.000  H
  H293     1.0000 0.38380  0.72100  0.11390  Biso   1.000  H
  H294     1.0000 0.41220  0.63630  0.12160  Biso   1.000  H
  O35      1.0000 0.51710  0.60600  0.37800  Biso   1.000  O
  C381     1.0000 0.55640  0.63500  0.37800  Biso   1.000  C
  H295     1.0000 0.57450  0.59610  0.39740  Biso   1.000  H
  H296     1.0000 0.56200  0.63330  0.34760  Biso   1.000  H
  H297     1.0000 0.55940  0.69680  0.38940  Biso   1.000  H
  O36      1.0000 0.47240  0.54400  0.30830  Biso   1.000  O
  C382     1.0000 0.48500  0.46500  0.29020  Biso   1.000  C
  H298     1.0000 0.47340  0.41310  0.30250  Biso   1.000  H
  H299     1.0000 0.47730  0.46570  0.25760  Biso   1.000  H
  H300     1.0000 0.51360  0.46100  0.29790  Biso   1.000  H
  C383     1.0000 0.05210  0.27600  0.23200  Biso   1.000  C
  C384     1.0000 0.06170  0.19900  0.24980  Biso   1.000  C
  C385     1.0000 0.09410  0.19180  0.29220  Biso   1.000  C
  C386     1.0000 0.10810  0.27700  0.31720  Biso   1.000  C
  C387     1.0000 0.09630  0.35660  0.29470  Biso   1.000  C
  O37      1.0000 0.06820  0.35360  0.25480  Biso   1.000  O
  C388     1.0000 0.10970  0.43800  0.30500  Biso   1.000  C
  C389     1.0000 0.13270  0.44760  0.35040  Biso   1.000  C
  C390     1.0000 0.14260  0.36530  0.37400  Biso   1.000  C
  C391     1.0000 0.13520  0.27640  0.35760  Biso   1.000  C
  C392     1.0000 0.02440  0.29700  0.19050  Biso   1.000  C
  C393     1.0000 0.00600  0.37830  0.18590  Biso   1.000  C
  H301     1.0000 0.01140  0.42210  0.20880  Biso   1.000  H
  C394     1.0000 0.97870  0.39610  0.14610  Biso   1.000  C
  H302     1.0000 0.96810  0.45450  0.14130  Biso   1.000  H
  C395     1.0000 0.96710  0.32960  0.11390  Biso   1.000  C
  C396     1.0000 0.98440  0.24230  0.12250  Biso   1.000  C
  C397     1.0000 0.01400  0.22950  0.15890  Biso   1.000  C
  H303     1.0000 0.02750  0.17410  0.16220  Biso   1.000  H
  O38      1.0000 0.09690  0.11390  0.31040  Biso   1.000  O
  O39      1.0000 0.08980  0.50830  0.28860  Biso   1.000  O
  C398     1.0000 0.09420  0.57600  0.26580  Biso   1.000  C
  H304     1.0000 0.07040  0.61250  0.26180  Biso   1.000  H
  H305     1.0000 0.11610  0.61180  0.28140  Biso   1.000  H
  H306     1.0000 0.09960  0.55800  0.23650  Biso   1.000  H
  O40      1.0000 0.13180  0.52200  0.37450  Biso   1.000  O
  C399     1.0000 0.16710  0.57200  0.38530  Biso   1.000  C
  H307     1.0000 0.16270  0.62470  0.40290  Biso   1.000  H
  H308     1.0000 0.18730  0.53450  0.40270  Biso   1.000  H
  H309     1.0000 0.17560  0.59110  0.35760  Biso   1.000  H
  O41      1.0000 0.94210  0.33670  0.07970  Biso   1.000  O
  C400     1.0000 0.91990  0.42300  0.07530  Biso   1.000  C
  H310     1.0000 0.90100  0.42210  0.04740  Biso   1.000  H
  H311     1.0000 0.90630  0.42920  0.10070  Biso   1.000  H
  H312     1.0000 0.93800  0.47260  0.07490  Biso   1.000  H
  O42      1.0000 0.97710  0.19020  0.08800  Biso   1.000  O
  C401     1.0000 0.98600  0.09680  0.09900  Biso   1.000  C
  H313     1.0000 0.97970  0.06050  0.07180  Biso   1.000  H
  H314     1.0000 0.01330  0.09040  0.11200  Biso   1.000  H
  H315     1.0000 0.96970  0.07660  0.12070  Biso   1.000  H
  O43      1.0000 0.04230  0.13100  0.23410  Biso   1.000  O
  C402     1.0000 0.07260  0.07100  0.21410  Biso   1.000  C
  H316     1.0000 0.05970  0.01590  0.20130  Biso   1.000  H
  H317     1.0000 0.08250  0.10400  0.19080  Biso   1.000  H
  H318     1.0000 0.09420  0.05470  0.23800  Biso   1.000  H
  O44      1.0000 0.17190  0.36600  0.41340  Biso   1.000  O
  C403     1.0000 0.15120  0.39900  0.44670  Biso   1.000  C
  H319     1.0000 0.16890  0.40190  0.47560  Biso   1.000  H
  H320     1.0000 0.14110  0.45870  0.43830  Biso   1.000  H
  H321     1.0000 0.12960  0.35860  0.44920  Biso   1.000  H
  O45      1.0000 0.15310  0.21660  0.37370  Biso   1.000  O
  C404     1.0000 0.14900  0.14500  0.40250  Biso   1.000  C
  H322     1.0000 0.17230  0.10860  0.40760  Biso   1.000  H
  H323     1.0000 0.14370  0.16850  0.43120  Biso   1.000  H
  H324     1.0000 0.12650  0.10780  0.38890  Biso   1.000  H
  C405     1.0000 0.98530  0.96200  0.22790  Biso   1.000  C
  H325     1.0000 0.98920  0.01550  0.21010  Biso   1.000  H
  H326     1.0000 0.95840  0.96280  0.23410  Biso   1.000  H
  C406     1.0000 0.99200  0.87600  0.20140  Biso   1.000  C
  H327     1.0000 0.97390  0.87620  0.17220  Biso   1.000  H
  H328     1.0000 0.01880  0.87430  0.19590  Biso   1.000  H
  C407     1.0000 0.98340  0.79500  0.22950  Biso   1.000  C
  H329     1.0000 0.98360  0.73910  0.21220  Biso   1.000  H
  H330     1.0000 0.95780  0.80120  0.23900  Biso   1.000  H
  C408     1.0000 0.09330  0.29000  0.28970  Biso   1.000  C
  C409     1.0000 0.08960  0.20860  0.30150  Biso   1.000  C
  C410     1.0000 0.06620  0.14100  0.26790  Biso   1.000  C
  C411     1.0000 0.05120  0.17600  0.22060  Biso   1.000  C
  C412     1.0000 0.04770  0.26700  0.21690  Biso   1.000  C
  O46      1.0000 0.06930  0.32290  0.25090  Biso   1.000  O
  C413     1.0000 0.02970  0.31200  0.18250  Biso   1.000  C
  C414     1.0000 0.00310  0.26000  0.14920  Biso   1.000  C
  C415     1.0000 0.00960  0.16400  0.15100  Biso   1.000  C
  C416     1.0000 0.02590  0.11900  0.19110  Biso   1.000  C
  C417     1.0000 0.11590  0.36010  0.31790  Biso   1.000  C
  C418     1.0000 0.14400  0.34400  0.35430  Biso   1.000  C
  H331     1.0000 0.14770  0.28540  0.36670  Biso   1.000  H
  C419     1.0000 0.16820  0.41810  0.37380  Biso   1.000  C
  H332     1.0000 0.19130  0.40820  0.39490  Biso   1.000  H
  C420     1.0000 0.15600  0.50570  0.36010  Biso   1.000  C
  C421     1.0000 0.12890  0.51710  0.31930  Biso   1.000  C
  C422     1.0000 0.10380  0.44700  0.30420  Biso   1.000  C
  H333     1.0000 0.07950  0.45740  0.28530  Biso   1.000  H
  O47      1.0000 0.06490  0.05860  0.27930  Biso   1.000  O
  O48      1.0000 0.02920  0.39900  0.18380  Biso   1.000  O
  C423     1.0000 0.01090  0.45400  0.20500  Biso   1.000  C
  H334     1.0000 0.01770  0.51500  0.19760  Biso   1.000  H
  H335     1.0000 0.98280  0.44470  0.19520  Biso   1.000  H
  H336     1.0000 0.01800  0.44350  0.23690  Biso   1.000  H
  O49      1.0000 0.98210  0.29100  0.11120  Biso   1.000  O
  C424     1.0000 0.96700  0.38000  0.11400  Biso   1.000  C
  H337     1.0000 0.95200  0.39760  0.08470  Biso   1.000  H
  H338     1.0000 0.94990  0.38190  0.13640  Biso   1.000  H
  H339     1.0000 0.98850  0.42220  0.12240  Biso   1.000  H
  O50      1.0000 0.18100  0.56460  0.36940  Biso   1.000  O
  C425     1.0000 0.20790  0.56200  0.41200  Biso   1.000  C
  H340     1.0000 0.22570  0.61270  0.41400  Biso   1.000  H
  H341     1.0000 0.19310  0.56430  0.43660  Biso   1.000  H
  H342     1.0000 0.22280  0.50590  0.41390  Biso   1.000  H
  O51      1.0000 0.12140  0.59450  0.30060  Biso   1.000  O
  C426     1.0000 0.07920  0.60100  0.28160  Biso   1.000  C
  H343     1.0000 0.07380  0.65990  0.26750  Biso   1.000  H
  H344     1.0000 0.07210  0.55420  0.25910  Biso   1.000  H
  H345     1.0000 0.06400  0.59400  0.30560  Biso   1.000  H
  O52      1.0000 0.11760  0.15660  0.32870  Biso   1.000  O
  C427     1.0000 0.11350  0.15900  0.37530  Biso   1.000  C
  H346     1.0000 0.13370  0.12200  0.39290  Biso   1.000  H
  H347     1.0000 0.11620  0.22100  0.38610  Biso   1.000  H
  H348     1.0000 0.08780  0.13630  0.37840  Biso   1.000  H
  O53      1.0000 0.98290  0.10600  0.12200  Biso   1.000  O
  C428     1.0000 0.94360  0.13500  0.12200  Biso   1.000  C
  H349     1.0000 0.92550  0.09610  0.10260  Biso   1.000  H
  H350     1.0000 0.93800  0.13330  0.15240  Biso   1.000  H
  H351     1.0000 0.94060  0.19680  0.11060  Biso   1.000  H
  O54      1.0000 0.02760  0.04400  0.19170  Biso   1.000  O
  C429     1.0000 0.01500  0.96500  0.20980  Biso   1.000  C
  H352     1.0000 0.02660  0.91310  0.19750  Biso   1.000  H
  H353     1.0000 0.02270  0.96570  0.24240  Biso   1.000  H
  H354     1.0000 0.98640  0.96100  0.20210  Biso   1.000  H
  C430     1.0000 0.94790  0.27600  0.26800  Biso   1.000  C
  C431     1.0000 0.93830  0.19900  0.25020  Biso   1.000  C
  C432     1.0000 0.90590  0.19180  0.20780  Biso   1.000  C
  C433     1.0000 0.89190  0.27700  0.18280  Biso   1.000  C
  C434     1.0000 0.90370  0.35660  0.20530  Biso   1.000  C
  O55      1.0000 0.93180  0.35360  0.24520  Biso   1.000  O
  C435     1.0000 0.89030  0.43800  0.19500  Biso   1.000  C
  C436     1.0000 0.86730  0.44760  0.14960  Biso   1.000  C
  C437     1.0000 0.85740  0.36530  0.12600  Biso   1.000  C
  C438     1.0000 0.86480  0.27640  0.14240  Biso   1.000  C
  C439     1.0000 0.97560  0.29700  0.30950  Biso   1.000  C
  C440     1.0000 0.99400  0.37830  0.31410  Biso   1.000  C
  H355     1.0000 0.98860  0.42210  0.29120  Biso   1.000  H
  C441     1.0000 0.02130  0.39610  0.35390  Biso   1.000  C
  H356     1.0000 0.03190  0.45450  0.35870  Biso   1.000  H
  C442     1.0000 0.03290  0.32960  0.38610  Biso   1.000  C
  C443     1.0000 0.01560  0.24230  0.37750  Biso   1.000  C
  C444     1.0000 0.98600  0.22950  0.34110  Biso   1.000  C
  H357     1.0000 0.97250  0.17410  0.33780  Biso   1.000  H
  O56      1.0000 0.90310  0.11390  0.18960  Biso   1.000  O
  O57      1.0000 0.91020  0.50830  0.21140  Biso   1.000  O
  C445     1.0000 0.90580  0.57600  0.23420  Biso   1.000  C
  H358     1.0000 0.92960  0.61250  0.23820  Biso   1.000  H
  H359     1.0000 0.88390  0.61180  0.21860  Biso   1.000  H
  H360     1.0000 0.90040  0.55800  0.26350  Biso   1.000  H
  O58      1.0000 0.86820  0.52200  0.12550  Biso   1.000  O
  C446     1.0000 0.83290  0.57200  0.11470  Biso   1.000  C
  H361     1.0000 0.83730  0.62470  0.09710  Biso   1.000  H
  H362     1.0000 0.81270  0.53450  0.09730  Biso   1.000  H
  H363     1.0000 0.82440  0.59110  0.14240  Biso   1.000  H
  O59      1.0000 0.05790  0.33670  0.42030  Biso   1.000  O
  C447     1.0000 0.08010  0.42300  0.42470  Biso   1.000  C
  H364     1.0000 0.09900  0.42210  0.45260  Biso   1.000  H
  H365     1.0000 0.09370  0.42920  0.39930  Biso   1.000  H
  H366     1.0000 0.06200  0.47260  0.42510  Biso   1.000  H
  O60      1.0000 0.02290  0.19020  0.41200  Biso   1.000  O
  C448     1.0000 0.01400  0.09680  0.40100  Biso   1.000  C
  H367     1.0000 0.02030  0.06050  0.42820  Biso   1.000  H
  H368     1.0000 0.98670  0.09040  0.38800  Biso   1.000  H
  H369     1.0000 0.03030  0.07660  0.37930  Biso   1.000  H
  O61      1.0000 0.95770  0.13100  0.26590  Biso   1.000  O
  C449     1.0000 0.92740  0.07100  0.28590  Biso   1.000  C
  H370     1.0000 0.94030  0.01590  0.29870  Biso   1.000  H
  H371     1.0000 0.91750  0.10400  0.30920  Biso   1.000  H
  H372     1.0000 0.90580  0.05470  0.26200  Biso   1.000  H
  O62      1.0000 0.82810  0.36600  0.08660  Biso   1.000  O
  C450     1.0000 0.84880  0.39900  0.05330  Biso   1.000  C
  H373     1.0000 0.83110  0.40190  0.02440  Biso   1.000  H
  H374     1.0000 0.85890  0.45870  0.06170  Biso   1.000  H
  H375     1.0000 0.87040  0.35860  0.05080  Biso   1.000  H
  O63      1.0000 0.84690  0.21660  0.12630  Biso   1.000  O
  C451     1.0000 0.85100  0.14500  0.09750  Biso   1.000  C
  H376     1.0000 0.82770  0.10860  0.09240  Biso   1.000  H
  H377     1.0000 0.85630  0.16850  0.06880  Biso   1.000  H
  H378     1.0000 0.87350  0.10780  0.11110  Biso   1.000  H
  C452     1.0000 0.01470  0.96200  0.27210  Biso   1.000  C
  H379     1.0000 0.01080  0.01550  0.28990  Biso   1.000  H
  H380     1.0000 0.04160  0.96280  0.26590  Biso   1.000  H
  C453     1.0000 0.00800  0.87600  0.29860  Biso   1.000  C
  H381     1.0000 0.02610  0.87620  0.32780  Biso   1.000  H
  H382     1.0000 0.98120  0.87430  0.30410  Biso   1.000  H
  C454     1.0000 0.01660  0.79500  0.27050  Biso   1.000  C
  H383     1.0000 0.01640  0.73910  0.28780  Biso   1.000  H
  H384     1.0000 0.04220  0.80120  0.26100  Biso   1.000  H
  C455     1.0000 0.90670  0.29000  0.21030  Biso   1.000  C
  C456     1.0000 0.91040  0.20860  0.19850  Biso   1.000  C
  C457     1.0000 0.93380  0.14100  0.23210  Biso   1.000  C
  C458     1.0000 0.94880  0.17600  0.27940  Biso   1.000  C
  C459     1.0000 0.95230  0.26700  0.28310  Biso   1.000  C
  O64      1.0000 0.93070  0.32290  0.24910  Biso   1.000  O
  C460     1.0000 0.97030  0.31200  0.31750  Biso   1.000  C
  C461     1.0000 0.99690  0.26000  0.35080  Biso   1.000  C
  C462     1.0000 0.99040  0.16400  0.34900  Biso   1.000  C
  C463     1.0000 0.97410  0.11900  0.30890  Biso   1.000  C
  C464     1.0000 0.88410  0.36010  0.18210  Biso   1.000  C
  C465     1.0000 0.85600  0.34400  0.14570  Biso   1.000  C
  H385     1.0000 0.85230  0.28540  0.13330  Biso   1.000  H
  C466     1.0000 0.83180  0.41810  0.12620  Biso   1.000  C
  H386     1.0000 0.80870  0.40820  0.10510  Biso   1.000  H
  C467     1.0000 0.84400  0.50570  0.13990  Biso   1.000  C
  C468     1.0000 0.87110  0.51710  0.18070  Biso   1.000  C
  C469     1.0000 0.89620  0.44700  0.19580  Biso   1.000  C
  H387     1.0000 0.92050  0.45740  0.21470  Biso   1.000  H
  O65      1.0000 0.93510  0.05860  0.22070  Biso   1.000  O
  O66      1.0000 0.97080  0.39900  0.31620  Biso   1.000  O
  C470     1.0000 0.98910  0.45400  0.29500  Biso   1.000  C
  H388     1.0000 0.98230  0.51500  0.30240  Biso   1.000  H
  H389     1.0000 0.01720  0.44470  0.30480  Biso   1.000  H
  H390     1.0000 0.98200  0.44350  0.26310  Biso   1.000  H
  O67      1.0000 0.01790  0.29100  0.38880  Biso   1.000  O
  C471     1.0000 0.03300  0.38000  0.38600  Biso   1.000  C
  H391     1.0000 0.04800  0.39760  0.41530  Biso   1.000  H
  H392     1.0000 0.05010  0.38190  0.36360  Biso   1.000  H
  H393     1.0000 0.01150  0.42220  0.37760  Biso   1.000  H
  O68      1.0000 0.81900  0.56460  0.13060  Biso   1.000  O
  C472     1.0000 0.79210  0.56200  0.08800  Biso   1.000  C
  H394     1.0000 0.77430  0.61270  0.08600  Biso   1.000  H
  H395     1.0000 0.80690  0.56430  0.06340  Biso   1.000  H
  H396     1.0000 0.77720  0.50590  0.08610  Biso   1.000  H
  O69      1.0000 0.87860  0.59450  0.19940  Biso   1.000  O
  C473     1.0000 0.92080  0.60100  0.21840  Biso   1.000  C
  H397     1.0000 0.92620  0.65990  0.23250  Biso   1.000  H
  H398     1.0000 0.92790  0.55420  0.24090  Biso   1.000  H
  H399     1.0000 0.93600  0.59400  0.19440  Biso   1.000  H
  O70      1.0000 0.88240  0.15660  0.17130  Biso   1.000  O
  C474     1.0000 0.88650  0.15900  0.12470  Biso   1.000  C
  H400     1.0000 0.86630  0.12200  0.10710  Biso   1.000  H
  H401     1.0000 0.88380  0.22100  0.11390  Biso   1.000  H
  H402     1.0000 0.91220  0.13630  0.12160  Biso   1.000  H
  O71      1.0000 0.01710  0.10600  0.37800  Biso   1.000  O
  C475     1.0000 0.05640  0.13500  0.37800  Biso   1.000  C
  H403     1.0000 0.07450  0.09610  0.39740  Biso   1.000  H
  H404     1.0000 0.06200  0.13330  0.34760  Biso   1.000  H
  H405     1.0000 0.05940  0.19680  0.38940  Biso   1.000  H
  O72      1.0000 0.97240  0.04400  0.30830  Biso   1.000  O
  C476     1.0000 0.98500  0.96500  0.29020  Biso   1.000  C
  H406     1.0000 0.97340  0.91310  0.30250  Biso   1.000  H
  H407     1.0000 0.97730  0.96570  0.25760  Biso   1.000  H
  H408     1.0000 0.01360  0.96100  0.29790  Biso   1.000  H
  C477     1.0000 0.44790  0.22400  0.76800  Biso   1.000  C
  C478     1.0000 0.43830  0.30100  0.75020  Biso   1.000  C
  C479     1.0000 0.40590  0.30820  0.70780  Biso   1.000  C
  C480     1.0000 0.39190  0.22300  0.68280  Biso   1.000  C
  C481     1.0000 0.40370  0.14340  0.70530  Biso   1.000  C
  O73      1.0000 0.43180  0.14640  0.74520  Biso   1.000  O
  C482     1.0000 0.39030  0.06200  0.69500  Biso   1.000  C
  C483     1.0000 0.36730  0.05240  0.64960  Biso   1.000  C
  C484     1.0000 0.35740  0.13470  0.62600  Biso   1.000  C
  C485     1.0000 0.36480  0.22360  0.64240  Biso   1.000  C
  C486     1.0000 0.47560  0.20300  0.80950  Biso   1.000  C
  C487     1.0000 0.49400  0.12170  0.81410  Biso   1.000  C
  H409     1.0000 0.48860  0.07790  0.79120  Biso   1.000  H
  C488     1.0000 0.52130  0.10390  0.85390  Biso   1.000  C
  H410     1.0000 0.53190  0.04550  0.85870  Biso   1.000  H
  C489     1.0000 0.53290  0.17040  0.88610  Biso   1.000  C
  C490     1.0000 0.51560  0.25770  0.87750  Biso   1.000  C
  C491     1.0000 0.48600  0.27050  0.84110  Biso   1.000  C
  H411     1.0000 0.47250  0.32590  0.83780  Biso   1.000  H
  O74      1.0000 0.40310  0.38610  0.68960  Biso   1.000  O
  O75      1.0000 0.41020  0.99170  0.71140  Biso   1.000  O
  C492     1.0000 0.40580  0.92400  0.73420  Biso   1.000  C
  H412     1.0000 0.42960  0.88750  0.73820  Biso   1.000  H
  H413     1.0000 0.38390  0.88820  0.71860  Biso   1.000  H
  H414     1.0000 0.40040  0.94200  0.76350  Biso   1.000  H
  O76      1.0000 0.36820  0.97800  0.62550  Biso   1.000  O
  C493     1.0000 0.33290  0.92800  0.61470  Biso   1.000  C
  H415     1.0000 0.33730  0.87530  0.59710  Biso   1.000  H
  H416     1.0000 0.31270  0.96550  0.59730  Biso   1.000  H
  H417     1.0000 0.32440  0.90890  0.64240  Biso   1.000  H
  O77      1.0000 0.55790  0.16330  0.92030  Biso   1.000  O
  C494     1.0000 0.58010  0.07700  0.92470  Biso   1.000  C
  H418     1.0000 0.59900  0.07790  0.95260  Biso   1.000  H
  H419     1.0000 0.59370  0.07080  0.89930  Biso   1.000  H
  H420     1.0000 0.56200  0.02740  0.92510  Biso   1.000  H
  O78      1.0000 0.52290  0.30980  0.91200  Biso   1.000  O
  C495     1.0000 0.51400  0.40320  0.90100  Biso   1.000  C
  H421     1.0000 0.52030  0.43950  0.92820  Biso   1.000  H
  H422     1.0000 0.48670  0.40960  0.88800  Biso   1.000  H
  H423     1.0000 0.53030  0.42340  0.87930  Biso   1.000  H
  O79      1.0000 0.45770  0.36900  0.76590  Biso   1.000  O
  C496     1.0000 0.42740  0.42900  0.78590  Biso   1.000  C
  H424     1.0000 0.44030  0.48410  0.79870  Biso   1.000  H
  H425     1.0000 0.41750  0.39600  0.80920  Biso   1.000  H
  H426     1.0000 0.40580  0.44530  0.76200  Biso   1.000  H
  O80      1.0000 0.32810  0.13400  0.58660  Biso   1.000  O
  C497     1.0000 0.34880  0.10100  0.55330  Biso   1.000  C
  H427     1.0000 0.33110  0.09810  0.52440  Biso   1.000  H
  H428     1.0000 0.35890  0.04130  0.56170  Biso   1.000  H
  H429     1.0000 0.37040  0.14140  0.55080  Biso   1.000  H
  O81      1.0000 0.34690  0.28340  0.62630  Biso   1.000  O
  C498     1.0000 0.35100  0.35500  0.59750  Biso   1.000  C
  H430     1.0000 0.32770  0.39140  0.59240  Biso   1.000  H
  H431     1.0000 0.35630  0.33150  0.56880  Biso   1.000  H
  H432     1.0000 0.37350  0.39220  0.61110  Biso   1.000  H
  C499     1.0000 0.51470  0.53800  0.77210  Biso   1.000  C
  H433     1.0000 0.51080  0.48450  0.78990  Biso   1.000  H
  H434     1.0000 0.54160  0.53720  0.76590  Biso   1.000  H
  C500     1.0000 0.50800  0.62400  0.79860  Biso   1.000  C
  H435     1.0000 0.52610  0.62380  0.82780  Biso   1.000  H
  H436     1.0000 0.48120  0.62570  0.80410  Biso   1.000  H
  C501     1.0000 0.51660  0.70500  0.77050  Biso   1.000  C
  H437     1.0000 0.51640  0.76090  0.78780  Biso   1.000  H
  H438     1.0000 0.54220  0.69880  0.76100  Biso   1.000  H
  C502     1.0000 0.40670  0.21000  0.71030  Biso   1.000  C
  C503     1.0000 0.41040  0.29140  0.69850  Biso   1.000  C
  C504     1.0000 0.43380  0.35900  0.73210  Biso   1.000  C
  C505     1.0000 0.44880  0.32400  0.77940  Biso   1.000  C
  C506     1.0000 0.45230  0.23300  0.78310  Biso   1.000  C
  O82      1.0000 0.43070  0.17710  0.74910  Biso   1.000  O
  C507     1.0000 0.47030  0.18800  0.81750  Biso   1.000  C
  C508     1.0000 0.49690  0.24000  0.85080  Biso   1.000  C
  C509     1.0000 0.49040  0.33600  0.84900  Biso   1.000  C
  C510     1.0000 0.47410  0.38100  0.80890  Biso   1.000  C
  C511     1.0000 0.38410  0.13990  0.68210  Biso   1.000  C
  C512     1.0000 0.35600  0.15600  0.64570  Biso   1.000  C
  H439     1.0000 0.35230  0.21460  0.63330  Biso   1.000  H
  C513     1.0000 0.33180  0.08190  0.62620  Biso   1.000  C
  H440     1.0000 0.30870  0.09180  0.60510  Biso   1.000  H
  C514     1.0000 0.34400  0.99430  0.63990  Biso   1.000  C
  C515     1.0000 0.37110  0.98290  0.68070  Biso   1.000  C
  C516     1.0000 0.39620  0.05300  0.69580  Biso   1.000  C
  H441     1.0000 0.42050  0.04260  0.71470  Biso   1.000  H
  O83      1.0000 0.43510  0.44140  0.72070  Biso   1.000  O
  O84      1.0000 0.47080  0.10100  0.81620  Biso   1.000  O
  C517     1.0000 0.48910  0.04600  0.79500  Biso   1.000  C
  H442     1.0000 0.48230  0.98500  0.80240  Biso   1.000  H
  H443     1.0000 0.51720  0.05530  0.80480  Biso   1.000  H
  H444     1.0000 0.48200  0.05650  0.76310  Biso   1.000  H
  O85      1.0000 0.51790  0.20900  0.88880  Biso   1.000  O
  C518     1.0000 0.53300  0.12000  0.88600  Biso   1.000  C
  H445     1.0000 0.54800  0.10240  0.91530  Biso   1.000  H
  H446     1.0000 0.55010  0.11810  0.86360  Biso   1.000  H
  H447     1.0000 0.51150  0.07780  0.87760  Biso   1.000  H
  O86      1.0000 0.31900  0.93540  0.63060  Biso   1.000  O
  C519     1.0000 0.29210  0.93800  0.58800  Biso   1.000  C
  H448     1.0000 0.27430  0.88730  0.58600  Biso   1.000  H
  H449     1.0000 0.30690  0.93570  0.56340  Biso   1.000  H
  H450     1.0000 0.27720  0.99410  0.58610  Biso   1.000  H
  O87      1.0000 0.37860  0.90550  0.69940  Biso   1.000  O
  C520     1.0000 0.42080  0.89900  0.71840  Biso   1.000  C
  H451     1.0000 0.42620  0.84010  0.73250  Biso   1.000  H
  H452     1.0000 0.42790  0.94580  0.74090  Biso   1.000  H
  H453     1.0000 0.43600  0.90600  0.69440  Biso   1.000  H
  O88      1.0000 0.38240  0.34340  0.67130  Biso   1.000  O
  C521     1.0000 0.38650  0.34100  0.62470  Biso   1.000  C
  H454     1.0000 0.36630  0.37800  0.60710  Biso   1.000  H
  H455     1.0000 0.38380  0.27900  0.61390  Biso   1.000  H
  H456     1.0000 0.41220  0.36370  0.62160  Biso   1.000  H
  O89      1.0000 0.51710  0.39400  0.87800  Biso   1.000  O
  C522     1.0000 0.55640  0.36500  0.87800  Biso   1.000  C
  H457     1.0000 0.57450  0.40390  0.89740  Biso   1.000  H
  H458     1.0000 0.56200  0.36670  0.84760  Biso   1.000  H
  H459     1.0000 0.55940  0.30320  0.88940  Biso   1.000  H
  O90      1.0000 0.47240  0.45600  0.80830  Biso   1.000  O
  C523     1.0000 0.48500  0.53500  0.79020  Biso   1.000  C
  H460     1.0000 0.47340  0.58690  0.80250  Biso   1.000  H
  H461     1.0000 0.47730  0.53430  0.75760  Biso   1.000  H
  H462     1.0000 0.51360  0.53900  0.79790  Biso   1.000  H
  C524     1.0000 0.55210  0.22400  0.73200  Biso   1.000  C
  C525     1.0000 0.56170  0.30100  0.74980  Biso   1.000  C
  C526     1.0000 0.59410  0.30820  0.79220  Biso   1.000  C
  C527     1.0000 0.60810  0.22300  0.81720  Biso   1.000  C
  C528     1.0000 0.59630  0.14340  0.79470  Biso   1.000  C
  O91      1.0000 0.56820  0.14640  0.75480  Biso   1.000  O
  C529     1.0000 0.60970  0.06200  0.80500  Biso   1.000  C
  C530     1.0000 0.63270  0.05240  0.85040  Biso   1.000  C
  C531     1.0000 0.64260  0.13470  0.87400  Biso   1.000  C
  C532     1.0000 0.63520  0.22360  0.85760  Biso   1.000  C
  C533     1.0000 0.52440  0.20300  0.69050  Biso   1.000  C
  C534     1.0000 0.50600  0.12170  0.68590  Biso   1.000  C
  H463     1.0000 0.51140  0.07790  0.70880  Biso   1.000  H
  C535     1.0000 0.47870  0.10390  0.64610  Biso   1.000  C
  H464     1.0000 0.46810  0.04550  0.64130  Biso   1.000  H
  C536     1.0000 0.46710  0.17040  0.61390  Biso   1.000  C
  C537     1.0000 0.48440  0.25770  0.62250  Biso   1.000  C
  C538     1.0000 0.51400  0.27050  0.65890  Biso   1.000  C
  H465     1.0000 0.52750  0.32590  0.66220  Biso   1.000  H
  O92      1.0000 0.59690  0.38610  0.81040  Biso   1.000  O
  O93      1.0000 0.58980  0.99170  0.78860  Biso   1.000  O
  C539     1.0000 0.59420  0.92400  0.76580  Biso   1.000  C
  H466     1.0000 0.57040  0.88750  0.76180  Biso   1.000  H
  H467     1.0000 0.61610  0.88820  0.78140  Biso   1.000  H
  H468     1.0000 0.59960  0.94200  0.73650  Biso   1.000  H
  O94      1.0000 0.63180  0.97800  0.87450  Biso   1.000  O
  C540     1.0000 0.66710  0.92800  0.88530  Biso   1.000  C
  H469     1.0000 0.66270  0.87530  0.90290  Biso   1.000  H
  H470     1.0000 0.68730  0.96550  0.90270  Biso   1.000  H
  H471     1.0000 0.67560  0.90890  0.85760  Biso   1.000  H
  O95      1.0000 0.44210  0.16330  0.57970  Biso   1.000  O
  C541     1.0000 0.41990  0.07700  0.57530  Biso   1.000  C
  H472     1.0000 0.40100  0.07790  0.54740  Biso   1.000  H
  H473     1.0000 0.40630  0.07080  0.60070  Biso   1.000  H
  H474     1.0000 0.43800  0.02740  0.57490  Biso   1.000  H
  O96      1.0000 0.47710  0.30980  0.58800  Biso   1.000  O
  C542     1.0000 0.48600  0.40320  0.59900  Biso   1.000  C
  H475     1.0000 0.47970  0.43950  0.57180  Biso   1.000  H
  H476     1.0000 0.51330  0.40960  0.61200  Biso   1.000  H
  H477     1.0000 0.46970  0.42340  0.62070  Biso   1.000  H
  O97      1.0000 0.54230  0.36900  0.73410  Biso   1.000  O
  C543     1.0000 0.57260  0.42900  0.71410  Biso   1.000  C
  H478     1.0000 0.55970  0.48410  0.70130  Biso   1.000  H
  H479     1.0000 0.58250  0.39600  0.69080  Biso   1.000  H
  H480     1.0000 0.59420  0.44530  0.73800  Biso   1.000  H
  O98      1.0000 0.67190  0.13400  0.91340  Biso   1.000  O
  C544     1.0000 0.65120  0.10100  0.94670  Biso   1.000  C
  H481     1.0000 0.66890  0.09810  0.97560  Biso   1.000  H
  H482     1.0000 0.64110  0.04130  0.93830  Biso   1.000  H
  H483     1.0000 0.62960  0.14140  0.94920  Biso   1.000  H
  O99      1.0000 0.65310  0.28340  0.87370  Biso   1.000  O
  C545     1.0000 0.64900  0.35500  0.90250  Biso   1.000  C
  H484     1.0000 0.67230  0.39140  0.90760  Biso   1.000  H
  H485     1.0000 0.64370  0.33150  0.93120  Biso   1.000  H
  H486     1.0000 0.62650  0.39220  0.88890  Biso   1.000  H
  C546     1.0000 0.48530  0.53800  0.72790  Biso   1.000  C
  H487     1.0000 0.48920  0.48450  0.71010  Biso   1.000  H
  H488     1.0000 0.45840  0.53720  0.73410  Biso   1.000  H
  C547     1.0000 0.49200  0.62400  0.70140  Biso   1.000  C
  H489     1.0000 0.47390  0.62380  0.67220  Biso   1.000  H
  H490     1.0000 0.51880  0.62570  0.69590  Biso   1.000  H
  C548     1.0000 0.48340  0.70500  0.72950  Biso   1.000  C
  H491     1.0000 0.48360  0.76090  0.71220  Biso   1.000  H
  H492     1.0000 0.45780  0.69880  0.73900  Biso   1.000  H
  C549     1.0000 0.59330  0.21000  0.78970  Biso   1.000  C
  C550     1.0000 0.58960  0.29140  0.80150  Biso   1.000  C
  C551     1.0000 0.56620  0.35900  0.76790  Biso   1.000  C
  C552     1.0000 0.55120  0.32400  0.72060  Biso   1.000  C
  C553     1.0000 0.54770  0.23300  0.71690  Biso   1.000  C
  O100     1.0000 0.56930  0.17710  0.75090  Biso   1.000  O
  C554     1.0000 0.52970  0.18800  0.68250  Biso   1.000  C
  C555     1.0000 0.50310  0.24000  0.64920  Biso   1.000  C
  C556     1.0000 0.50960  0.33600  0.65100  Biso   1.000  C
  C557     1.0000 0.52590  0.38100  0.69110  Biso   1.000  C
  C558     1.0000 0.61590  0.13990  0.81790  Biso   1.000  C
  C559     1.0000 0.64400  0.15600  0.85430  Biso   1.000  C
  H493     1.0000 0.64770  0.21460  0.86670  Biso   1.000  H
  C560     1.0000 0.66820  0.08190  0.87380  Biso   1.000  C
  H494     1.0000 0.69130  0.09180  0.89490  Biso   1.000  H
  C561     1.0000 0.65600  0.99430  0.86010  Biso   1.000  C
  C562     1.0000 0.62890  0.98290  0.81930  Biso   1.000  C
  C563     1.0000 0.60380  0.05300  0.80420  Biso   1.000  C
  H495     1.0000 0.57950  0.04260  0.78530  Biso   1.000  H
  O101     1.0000 0.56490  0.44140  0.77930  Biso   1.000  O
  O102     1.0000 0.52920  0.10100  0.68380  Biso   1.000  O
  C564     1.0000 0.51090  0.04600  0.70500  Biso   1.000  C
  H496     1.0000 0.51770  0.98500  0.69760  Biso   1.000  H
  H497     1.0000 0.48280  0.05530  0.69520  Biso   1.000  H
  H498     1.0000 0.51800  0.05650  0.73690  Biso   1.000  H
  O103     1.0000 0.48210  0.20900  0.61120  Biso   1.000  O
  C565     1.0000 0.46700  0.12000  0.61400  Biso   1.000  C
  H499     1.0000 0.45200  0.10240  0.58470  Biso   1.000  H
  H500     1.0000 0.44990  0.11810  0.63640  Biso   1.000  H
  H501     1.0000 0.48850  0.07780  0.62240  Biso   1.000  H
  O104     1.0000 0.68100  0.93540  0.86940  Biso   1.000  O
  C566     1.0000 0.70790  0.93800  0.91200  Biso   1.000  C
  H502     1.0000 0.72570  0.88730  0.91400  Biso   1.000  H
  H503     1.0000 0.69310  0.93570  0.93660  Biso   1.000  H
  H504     1.0000 0.72280  0.99410  0.91390  Biso   1.000  H
  O105     1.0000 0.62140  0.90550  0.80060  Biso   1.000  O
  C567     1.0000 0.57920  0.89900  0.78160  Biso   1.000  C
  H505     1.0000 0.57380  0.84010  0.76750  Biso   1.000  H
  H506     1.0000 0.57210  0.94580  0.75910  Biso   1.000  H
  H507     1.0000 0.56400  0.90600  0.80560  Biso   1.000  H
  O106     1.0000 0.61760  0.34340  0.82870  Biso   1.000  O
  C568     1.0000 0.61350  0.34100  0.87530  Biso   1.000  C
  H508     1.0000 0.63370  0.37800  0.89290  Biso   1.000  H
  H509     1.0000 0.61620  0.27900  0.88610  Biso   1.000  H
  H510     1.0000 0.58780  0.36370  0.87840  Biso   1.000  H
  O107     1.0000 0.48290  0.39400  0.62200  Biso   1.000  O
  C569     1.0000 0.44360  0.36500  0.62200  Biso   1.000  C
  H511     1.0000 0.42550  0.40390  0.60260  Biso   1.000  H
  H512     1.0000 0.43800  0.36670  0.65240  Biso   1.000  H
  H513     1.0000 0.44060  0.30320  0.61060  Biso   1.000  H
  O108     1.0000 0.52760  0.45600  0.69170  Biso   1.000  O
  C570     1.0000 0.51500  0.53500  0.70980  Biso   1.000  C
  H514     1.0000 0.52660  0.58690  0.69750  Biso   1.000  H
  H515     1.0000 0.52270  0.53430  0.74240  Biso   1.000  H
  H516     1.0000 0.48640  0.53900  0.70210  Biso   1.000  H
  C571     1.0000 0.94790  0.72400  0.76800  Biso   1.000  C
  C572     1.0000 0.93830  0.80100  0.75020  Biso   1.000  C
  C573     1.0000 0.90590  0.80820  0.70780  Biso   1.000  C
  C574     1.0000 0.89190  0.72300  0.68280  Biso   1.000  C
  C575     1.0000 0.90370  0.64340  0.70530  Biso   1.000  C
  O109     1.0000 0.93180  0.64640  0.74520  Biso   1.000  O
  C576     1.0000 0.89030  0.56200  0.69500  Biso   1.000  C
  C577     1.0000 0.86730  0.55240  0.64960  Biso   1.000  C
  C578     1.0000 0.85740  0.63470  0.62600  Biso   1.000  C
  C579     1.0000 0.86480  0.72360  0.64240  Biso   1.000  C
  C580     1.0000 0.97560  0.70300  0.80950  Biso   1.000  C
  C581     1.0000 0.99400  0.62170  0.81410  Biso   1.000  C
  H517     1.0000 0.98860  0.57790  0.79120  Biso   1.000  H
  C582     1.0000 0.02130  0.60390  0.85390  Biso   1.000  C
  H518     1.0000 0.03190  0.54550  0.85870  Biso   1.000  H
  C583     1.0000 0.03290  0.67040  0.88610  Biso   1.000  C
  C584     1.0000 0.01560  0.75770  0.87750  Biso   1.000  C
  C585     1.0000 0.98600  0.77050  0.84110  Biso   1.000  C
  H519     1.0000 0.97250  0.82590  0.83780  Biso   1.000  H
  O110     1.0000 0.90310  0.88610  0.68960  Biso   1.000  O
  O111     1.0000 0.91020  0.49170  0.71140  Biso   1.000  O
  C586     1.0000 0.90580  0.42400  0.73420  Biso   1.000  C
  H520     1.0000 0.92960  0.38750  0.73820  Biso   1.000  H
  H521     1.0000 0.88390  0.38820  0.71860  Biso   1.000  H
  H522     1.0000 0.90040  0.44200  0.76350  Biso   1.000  H
  O112     1.0000 0.86820  0.47800  0.62550  Biso   1.000  O
  C587     1.0000 0.83290  0.42800  0.61470  Biso   1.000  C
  H523     1.0000 0.83730  0.37530  0.59710  Biso   1.000  H
  H524     1.0000 0.81270  0.46550  0.59730  Biso   1.000  H
  H525     1.0000 0.82440  0.40890  0.64240  Biso   1.000  H
  O113     1.0000 0.05790  0.66330  0.92030  Biso   1.000  O
  C588     1.0000 0.08010  0.57700  0.92470  Biso   1.000  C
  H526     1.0000 0.09900  0.57790  0.95260  Biso   1.000  H
  H527     1.0000 0.09370  0.57080  0.89930  Biso   1.000  H
  H528     1.0000 0.06200  0.52740  0.92510  Biso   1.000  H
  O114     1.0000 0.02290  0.80980  0.91200  Biso   1.000  O
  C589     1.0000 0.01400  0.90320  0.90100  Biso   1.000  C
  H529     1.0000 0.02030  0.93950  0.92820  Biso   1.000  H
  H530     1.0000 0.98670  0.90960  0.88800  Biso   1.000  H
  H531     1.0000 0.03030  0.92340  0.87930  Biso   1.000  H
  O115     1.0000 0.95770  0.86900  0.76590  Biso   1.000  O
  C590     1.0000 0.92740  0.92900  0.78590  Biso   1.000  C
  H532     1.0000 0.94030  0.98410  0.79870  Biso   1.000  H
  H533     1.0000 0.91750  0.89600  0.80920  Biso   1.000  H
  H534     1.0000 0.90580  0.94530  0.76200  Biso   1.000  H
  O116     1.0000 0.82810  0.63400  0.58660  Biso   1.000  O
  C591     1.0000 0.84880  0.60100  0.55330  Biso   1.000  C
  H535     1.0000 0.83110  0.59810  0.52440  Biso   1.000  H
  H536     1.0000 0.85890  0.54130  0.56170  Biso   1.000  H
  H537     1.0000 0.87040  0.64140  0.55080  Biso   1.000  H
  O117     1.0000 0.84690  0.78340  0.62630  Biso   1.000  O
  C592     1.0000 0.85100  0.85500  0.59750  Biso   1.000  C
  H538     1.0000 0.82770  0.89140  0.59240  Biso   1.000  H
  H539     1.0000 0.85630  0.83150  0.56880  Biso   1.000  H
  H540     1.0000 0.87350  0.89220  0.61110  Biso   1.000  H
  C593     1.0000 0.01470  0.03800  0.77210  Biso   1.000  C
  H541     1.0000 0.01080  0.98450  0.78990  Biso   1.000  H
  H542     1.0000 0.04160  0.03720  0.76590  Biso   1.000  H
  C594     1.0000 0.00800  0.12400  0.79860  Biso   1.000  C
  H543     1.0000 0.02610  0.12380  0.82780  Biso   1.000  H
  H544     1.0000 0.98120  0.12570  0.80410  Biso   1.000  H
  C595     1.0000 0.01660  0.20500  0.77050  Biso   1.000  C
  H545     1.0000 0.01640  0.26090  0.78780  Biso   1.000  H
  H546     1.0000 0.04220  0.19880  0.76100  Biso   1.000  H
  C596     1.0000 0.90670  0.71000  0.71030  Biso   1.000  C
  C597     1.0000 0.91040  0.79140  0.69850  Biso   1.000  C
  C598     1.0000 0.93380  0.85900  0.73210  Biso   1.000  C
  C599     1.0000 0.94880  0.82400  0.77940  Biso   1.000  C
  C600     1.0000 0.95230  0.73300  0.78310  Biso   1.000  C
  O118     1.0000 0.93070  0.67710  0.74910  Biso   1.000  O
  C601     1.0000 0.97030  0.68800  0.81750  Biso   1.000  C
  C602     1.0000 0.99690  0.74000  0.85080  Biso   1.000  C
  C603     1.0000 0.99040  0.83600  0.84900  Biso   1.000  C
  C604     1.0000 0.97410  0.88100  0.80890  Biso   1.000  C
  C605     1.0000 0.88410  0.63990  0.68210  Biso   1.000  C
  C606     1.0000 0.85600  0.65600  0.64570  Biso   1.000  C
  H547     1.0000 0.85230  0.71460  0.63330  Biso   1.000  H
  C607     1.0000 0.83180  0.58190  0.62620  Biso   1.000  C
  H548     1.0000 0.80870  0.59180  0.60510  Biso   1.000  H
  C608     1.0000 0.84400  0.49430  0.63990  Biso   1.000  C
  C609     1.0000 0.87110  0.48290  0.68070  Biso   1.000  C
  C610     1.0000 0.89620  0.55300  0.69580  Biso   1.000  C
  H549     1.0000 0.92050  0.54260  0.71470  Biso   1.000  H
  O119     1.0000 0.93510  0.94140  0.72070  Biso   1.000  O
  O120     1.0000 0.97080  0.60100  0.81620  Biso   1.000  O
  C611     1.0000 0.98910  0.54600  0.79500  Biso   1.000  C
  H550     1.0000 0.98230  0.48500  0.80240  Biso   1.000  H
  H551     1.0000 0.01720  0.55530  0.80480  Biso   1.000  H
  H552     1.0000 0.98200  0.55650  0.76310  Biso   1.000  H
  O121     1.0000 0.01790  0.70900  0.88880  Biso   1.000  O
  C612     1.0000 0.03300  0.62000  0.88600  Biso   1.000  C
  H553     1.0000 0.04800  0.60240  0.91530  Biso   1.000  H
  H554     1.0000 0.05010  0.61810  0.86360  Biso   1.000  H
  H555     1.0000 0.01150  0.57780  0.87760  Biso   1.000  H
  O122     1.0000 0.81900  0.43540  0.63060  Biso   1.000  O
  C613     1.0000 0.79210  0.43800  0.58800  Biso   1.000  C
  H556     1.0000 0.77430  0.38730  0.58600  Biso   1.000  H
  H557     1.0000 0.80690  0.43570  0.56340  Biso   1.000  H
  H558     1.0000 0.77720  0.49410  0.58610  Biso   1.000  H
  O123     1.0000 0.87860  0.40550  0.69940  Biso   1.000  O
  C614     1.0000 0.92080  0.39900  0.71840  Biso   1.000  C
  H559     1.0000 0.92620  0.34010  0.73250  Biso   1.000  H
  H560     1.0000 0.92790  0.44580  0.74090  Biso   1.000  H
  H561     1.0000 0.93600  0.40600  0.69440  Biso   1.000  H
  O124     1.0000 0.88240  0.84340  0.67130  Biso   1.000  O
  C615     1.0000 0.88650  0.84100  0.62470  Biso   1.000  C
  H562     1.0000 0.86630  0.87800  0.60710  Biso   1.000  H
  H563     1.0000 0.88380  0.77900  0.61390  Biso   1.000  H
  H564     1.0000 0.91220  0.86370  0.62160  Biso   1.000  H
  O125     1.0000 0.01710  0.89400  0.87800  Biso   1.000  O
  C616     1.0000 0.05640  0.86500  0.87800  Biso   1.000  C
  H565     1.0000 0.07450  0.90390  0.89740  Biso   1.000  H
  H566     1.0000 0.06200  0.86670  0.84760  Biso   1.000  H
  H567     1.0000 0.05940  0.80320  0.88940  Biso   1.000  H
  O126     1.0000 0.97240  0.95600  0.80830  Biso   1.000  O
  C617     1.0000 0.98500  0.03500  0.79020  Biso   1.000  C
  H568     1.0000 0.97340  0.08690  0.80250  Biso   1.000  H
  H569     1.0000 0.97730  0.03430  0.75760  Biso   1.000  H
  H570     1.0000 0.01360  0.03900  0.79790  Biso   1.000  H
  C618     1.0000 0.05210  0.72400  0.73200  Biso   1.000  C
  C619     1.0000 0.06170  0.80100  0.74980  Biso   1.000  C
  C620     1.0000 0.09410  0.80820  0.79220  Biso   1.000  C
  C621     1.0000 0.10810  0.72300  0.81720  Biso   1.000  C
  C622     1.0000 0.09630  0.64340  0.79470  Biso   1.000  C
  O127     1.0000 0.06820  0.64640  0.75480  Biso   1.000  O
  C623     1.0000 0.10970  0.56200  0.80500  Biso   1.000  C
  C624     1.0000 0.13270  0.55240  0.85040  Biso   1.000  C
  C625     1.0000 0.14260  0.63470  0.87400  Biso   1.000  C
  C626     1.0000 0.13520  0.72360  0.85760  Biso   1.000  C
  C627     1.0000 0.02440  0.70300  0.69050  Biso   1.000  C
  C628     1.0000 0.00600  0.62170  0.68590  Biso   1.000  C
  H571     1.0000 0.01140  0.57790  0.70880  Biso   1.000  H
  C629     1.0000 0.97870  0.60390  0.64610  Biso   1.000  C
  H572     1.0000 0.96810  0.54550  0.64130  Biso   1.000  H
  C630     1.0000 0.96710  0.67040  0.61390  Biso   1.000  C
  C631     1.0000 0.98440  0.75770  0.62250  Biso   1.000  C
  C632     1.0000 0.01400  0.77050  0.65890  Biso   1.000  C
  H573     1.0000 0.02750  0.82590  0.66220  Biso   1.000  H
  O128     1.0000 0.09690  0.88610  0.81040  Biso   1.000  O
  O129     1.0000 0.08980  0.49170  0.78860  Biso   1.000  O
  C633     1.0000 0.09420  0.42400  0.76580  Biso   1.000  C
  H574     1.0000 0.07040  0.38750  0.76180  Biso   1.000  H
  H575     1.0000 0.11610  0.38820  0.78140  Biso   1.000  H
  H576     1.0000 0.09960  0.44200  0.73650  Biso   1.000  H
  O130     1.0000 0.13180  0.47800  0.87450  Biso   1.000  O
  C634     1.0000 0.16710  0.42800  0.88530  Biso   1.000  C
  H577     1.0000 0.16270  0.37530  0.90290  Biso   1.000  H
  H578     1.0000 0.18730  0.46550  0.90270  Biso   1.000  H
  H579     1.0000 0.17560  0.40890  0.85760  Biso   1.000  H
  O131     1.0000 0.94210  0.66330  0.57970  Biso   1.000  O
  C635     1.0000 0.91990  0.57700  0.57530  Biso   1.000  C
  H580     1.0000 0.90100  0.57790  0.54740  Biso   1.000  H
  H581     1.0000 0.90630  0.57080  0.60070  Biso   1.000  H
  H582     1.0000 0.93800  0.52740  0.57490  Biso   1.000  H
  O132     1.0000 0.97710  0.80980  0.58800  Biso   1.000  O
  C636     1.0000 0.98600  0.90320  0.59900  Biso   1.000  C
  H583     1.0000 0.97970  0.93950  0.57180  Biso   1.000  H
  H584     1.0000 0.01330  0.90960  0.61200  Biso   1.000  H
  H585     1.0000 0.96970  0.92340  0.62070  Biso   1.000  H
  O133     1.0000 0.04230  0.86900  0.73410  Biso   1.000  O
  C637     1.0000 0.07260  0.92900  0.71410  Biso   1.000  C
  H586     1.0000 0.05970  0.98410  0.70130  Biso   1.000  H
  H587     1.0000 0.08250  0.89600  0.69080  Biso   1.000  H
  H588     1.0000 0.09420  0.94530  0.73800  Biso   1.000  H
  O134     1.0000 0.17190  0.63400  0.91340  Biso   1.000  O
  C638     1.0000 0.15120  0.60100  0.94670  Biso   1.000  C
  H589     1.0000 0.16890  0.59810  0.97560  Biso   1.000  H
  H590     1.0000 0.14110  0.54130  0.93830  Biso   1.000  H
  H591     1.0000 0.12960  0.64140  0.94920  Biso   1.000  H
  O135     1.0000 0.15310  0.78340  0.87370  Biso   1.000  O
  C639     1.0000 0.14900  0.85500  0.90250  Biso   1.000  C
  H592     1.0000 0.17230  0.89140  0.90760  Biso   1.000  H
  H593     1.0000 0.14370  0.83150  0.93120  Biso   1.000  H
  H594     1.0000 0.12650  0.89220  0.88890  Biso   1.000  H
  C640     1.0000 0.98530  0.03800  0.72790  Biso   1.000  C
  H595     1.0000 0.98920  0.98450  0.71010  Biso   1.000  H
  H596     1.0000 0.95840  0.03720  0.73410  Biso   1.000  H
  C641     1.0000 0.99200  0.12400  0.70140  Biso   1.000  C
  H597     1.0000 0.97390  0.12380  0.67220  Biso   1.000  H
  H598     1.0000 0.01880  0.12570  0.69590  Biso   1.000  H
  C642     1.0000 0.98340  0.20500  0.72950  Biso   1.000  C
  H599     1.0000 0.98360  0.26090  0.71220  Biso   1.000  H
  H600     1.0000 0.95780  0.19880  0.73900  Biso   1.000  H
  C643     1.0000 0.09330  0.71000  0.78970  Biso   1.000  C
  C644     1.0000 0.08960  0.79140  0.80150  Biso   1.000  C
  C645     1.0000 0.06620  0.85900  0.76790  Biso   1.000  C
  C646     1.0000 0.05120  0.82400  0.72060  Biso   1.000  C
  C647     1.0000 0.04770  0.73300  0.71690  Biso   1.000  C
  O136     1.0000 0.06930  0.67710  0.75090  Biso   1.000  O
  C648     1.0000 0.02970  0.68800  0.68250  Biso   1.000  C
  C649     1.0000 0.00310  0.74000  0.64920  Biso   1.000  C
  C650     1.0000 0.00960  0.83600  0.65100  Biso   1.000  C
  C651     1.0000 0.02590  0.88100  0.69110  Biso   1.000  C
  C652     1.0000 0.11590  0.63990  0.81790  Biso   1.000  C
  C653     1.0000 0.14400  0.65600  0.85430  Biso   1.000  C
  H601     1.0000 0.14770  0.71460  0.86670  Biso   1.000  H
  C654     1.0000 0.16820  0.58190  0.87380  Biso   1.000  C
  H602     1.0000 0.19130  0.59180  0.89490  Biso   1.000  H
  C655     1.0000 0.15600  0.49430  0.86010  Biso   1.000  C
  C656     1.0000 0.12890  0.48290  0.81930  Biso   1.000  C
  C657     1.0000 0.10380  0.55300  0.80420  Biso   1.000  C
  H603     1.0000 0.07950  0.54260  0.78530  Biso   1.000  H
  O137     1.0000 0.06490  0.94140  0.77930  Biso   1.000  O
  O138     1.0000 0.02920  0.60100  0.68380  Biso   1.000  O
  C658     1.0000 0.01090  0.54600  0.70500  Biso   1.000  C
  H604     1.0000 0.01770  0.48500  0.69760  Biso   1.000  H
  H605     1.0000 0.98280  0.55530  0.69520  Biso   1.000  H
  H606     1.0000 0.01800  0.55650  0.73690  Biso   1.000  H
  O139     1.0000 0.98210  0.70900  0.61120  Biso   1.000  O
  C659     1.0000 0.96700  0.62000  0.61400  Biso   1.000  C
  H607     1.0000 0.95200  0.60240  0.58470  Biso   1.000  H
  H608     1.0000 0.94990  0.61810  0.63640  Biso   1.000  H
  H609     1.0000 0.98850  0.57780  0.62240  Biso   1.000  H
  O140     1.0000 0.18100  0.43540  0.86940  Biso   1.000  O
  C660     1.0000 0.20790  0.43800  0.91200  Biso   1.000  C
  H610     1.0000 0.22570  0.38730  0.91400  Biso   1.000  H
  H611     1.0000 0.19310  0.43570  0.93660  Biso   1.000  H
  H612     1.0000 0.22280  0.49410  0.91390  Biso   1.000  H
  O141     1.0000 0.12140  0.40550  0.80060  Biso   1.000  O
  C661     1.0000 0.07920  0.39900  0.78160  Biso   1.000  C
  H613     1.0000 0.07380  0.34010  0.76750  Biso   1.000  H
  H614     1.0000 0.07210  0.44580  0.75910  Biso   1.000  H
  H615     1.0000 0.06400  0.40600  0.80560  Biso   1.000  H
  O142     1.0000 0.11760  0.84340  0.82870  Biso   1.000  O
  C662     1.0000 0.11350  0.84100  0.87530  Biso   1.000  C
  H616     1.0000 0.13370  0.87800  0.89290  Biso   1.000  H
  H617     1.0000 0.11620  0.77900  0.88610  Biso   1.000  H
  H618     1.0000 0.08780  0.86370  0.87840  Biso   1.000  H
  O143     1.0000 0.98290  0.89400  0.62200  Biso   1.000  O
  C663     1.0000 0.94360  0.86500  0.62200  Biso   1.000  C
  H619     1.0000 0.92550  0.90390  0.60260  Biso   1.000  H
  H620     1.0000 0.93800  0.86670  0.65240  Biso   1.000  H
  H621     1.0000 0.94060  0.80320  0.61060  Biso   1.000  H
  O144     1.0000 0.02760  0.95600  0.69170  Biso   1.000  O
  C664     1.0000 0.01500  0.03500  0.70980  Biso   1.000  C
  H622     1.0000 0.02660  0.08690  0.69750  Biso   1.000  H
  H623     1.0000 0.02270  0.03430  0.74240  Biso   1.000  H
  H624     1.0000 0.98640  0.03900  0.70210  Biso   1.000  H
