data_image0
_cell_length_a       36.8116
_cell_length_b       14.6974
_cell_length_c       30.6993
_cell_angle_alpha    90
_cell_angle_beta     103.07
_cell_angle_gamma    90

_symmetry_space_group_name_H-M    "P 1"
_symmetry_int_tables_number       1

loop_
  _symmetry_equiv_pos_as_xyz
  'x, y, z'

loop_
  _atom_site_label
  _atom_site_occupancy
  _atom_site_fract_x
  _atom_site_fract_y
  _atom_site_fract_z
  _atom_site_thermal_displace_type
  _atom_site_B_iso_or_equiv
  _atom_site_type_symbol
  I1       1.0000 0.35982  0.60724  0.49890  Biso   1.000  I
  Zn1      1.0000 0.38097  0.59965  0.42624  Biso   1.000  Zn
  I2       1.0000 0.39957  0.73548  0.38478  Biso   1.000  I
  N1       1.0000 0.33845  0.53150  0.38240  Biso   1.000  N
  N2       1.0000 0.42483  0.51090  0.43390  Biso   1.000  N
  C1       1.0000 0.31640  0.57530  0.34800  Biso   1.000  C
  C2       1.0000 0.33130  0.44560  0.39020  Biso   1.000  C
  H1       1.0000 0.32190  0.63660  0.34210  Biso   1.000  H
  C3       1.0000 0.28610  0.53420  0.32110  Biso   1.000  C
  C4       1.0000 0.30130  0.39840  0.36380  Biso   1.000  C
  H2       1.0000 0.34720  0.41490  0.41440  Biso   1.000  H
  H3       1.0000 0.27070  0.56700  0.29720  Biso   1.000  H
  C5       1.0000 0.27799  0.44380  0.32910  Biso   1.000  C
  H4       1.0000 0.29700  0.33640  0.36980  Biso   1.000  H
  C6       1.0000 0.24510  0.39930  0.30040  Biso   1.000  C
  N3       1.0000 0.22368  0.45130  0.26900  Biso   1.000  N
  N4       1.0000 0.23838  0.31160  0.30848  Biso   1.000  N
  C7       1.0000 0.19250  0.41190  0.24630  Biso   1.000  C
  C8       1.0000 0.20760  0.27820  0.28130  Biso   1.000  C
  C9       1.0000 0.16660  0.46640  0.21240  Biso   1.000  C
  N5       1.0000 0.18327  0.32570  0.25120  Biso   1.000  N
  C10      1.0000 0.19891  0.17960  0.28390  Biso   1.000  C
  C11      1.0000 0.17530  0.55350  0.20030  Biso   1.000  C
  C12      1.0000 0.13210  0.42950  0.19240  Biso   1.000  C
  C13      1.0000 0.22350  0.11910  0.31040  Biso   1.000  C
  C14      1.0000 0.16660  0.14480  0.25680  Biso   1.000  C
  C15      1.0000 0.14990  0.59940  0.16730  Biso   1.000  C
  H5       1.0000 0.19820  0.58120  0.21440  Biso   1.000  H
  H6       1.0000 0.12520  0.37070  0.20040  Biso   1.000  H
  C16      1.0000 0.10830  0.48060  0.16050  Biso   1.000  C
  C17      1.0000 0.21420  0.02760  0.30800  Biso   1.000  C
  H7       1.0000 0.24590  0.13990  0.32950  Biso   1.000  H
  H8       1.0000 0.14940  0.18450  0.23830  Biso   1.000  H
  C18      1.0000 0.15930  0.05360  0.25660  Biso   1.000  C
  N6       1.0000 0.11742  0.56350  0.14760  Biso   1.000  N
  H9       1.0000 0.15610  0.65840  0.15850  Biso   1.000  H
  H10      1.0000 0.08440  0.45640  0.14710  Biso   1.000  H
  N7       1.0000 0.18323  0.99460  0.28180  Biso   1.000  N
  H11      1.0000 0.23090  0.98620  0.32620  Biso   1.000  H
  H12      1.0000 0.13680  0.03120  0.23820  Biso   1.000  H
  Zn2      1.0000 0.07746  0.62677  0.09806  Biso   1.000  Zn
  Zn3      1.0000 0.16959  0.85710  0.27594  Biso   1.000  Zn
  I3       1.0000 0.02060  0.65900  0.12890  Biso   1.000  I
  I4       1.0000 0.10740  0.74600  0.05850  Biso   1.000  I
  N8       1.0000 0.06742  0.51500  0.05460  Biso   1.000  N
  N9       1.0000 0.13991  0.84210  0.32470  Biso   1.000  N
  I5       1.0000 0.12079  0.83501  0.20039  Biso   1.000  I
  I6       1.0000 0.22729  0.75860  0.29347  Biso   1.000  I
  C19      1.0000 0.11170  0.89670  0.32590  Biso   1.000  C
  C20      1.0000 0.14700  0.77570  0.35560  Biso   1.000  C
  C21      1.0000 0.08760  0.88420  0.35410  Biso   1.000  C
  H13      1.0000 0.10760  0.94750  0.30630  Biso   1.000  H
  H14      1.0000 0.16840  0.73850  0.35700  Biso   1.000  H
  C22      1.0000 0.12490  0.75920  0.38520  Biso   1.000  C
  H15      1.0000 0.06700  0.92380  0.35270  Biso   1.000  H
  C23      1.0000 0.09410  0.81340  0.38400  Biso   1.000  C
  H16      1.0000 0.13070  0.71100  0.40620  Biso   1.000  H
  C24      1.0000 0.06870  0.79700  0.41450  Biso   1.000  C
  N10      1.0000 0.07510  0.72450  0.44150  Biso   1.000  N
  N11      1.0000 0.04095  0.85680  0.41300  Biso   1.000  N
  C25      1.0000 0.05310  0.71690  0.46980  Biso   1.000  C
  C26      1.0000 0.01994  0.84140  0.44190  Biso   1.000  C
  C27      1.0000 0.05800  0.63640  0.49980  Biso   1.000  C
  N12      1.0000 0.02541  0.77510  0.47270  Biso   1.000  N
  C28      1.0000 0.98729  0.90030  0.44000  Biso   1.000  C
  C29      1.0000 0.03080  0.61200  0.52240  Biso   1.000  C
  C30      1.0000 0.09020  0.58430  0.50560  Biso   1.000  C
  C31      1.0000 0.97110  0.91180  0.47600  Biso   1.000  C
  C32      1.0000 0.97110  0.94440  0.40050  Biso   1.000  C
  H17      1.0000 0.00870  0.64700  0.51930  Biso   1.000  H
  C33      1.0000 0.03660  0.53600  0.54940  Biso   1.000  C
  C34      1.0000 0.09350  0.50860  0.53300  Biso   1.000  C
  H18      1.0000 0.10960  0.60030  0.49100  Biso   1.000  H
  H19      1.0000 0.98080  0.88130  0.50340  Biso   1.000  H
  C35      1.0000 0.94030  0.96860  0.47150  Biso   1.000  C
  H20      1.0000 0.98110  0.93790  0.37470  Biso   1.000  H
  C36      1.0000 0.94000  0.99790  0.39920  Biso   1.000  C
  H21      1.0000 0.01810  0.51920  0.56500  Biso   1.000  H
  H22      1.0000 0.11520  0.47200  0.53650  Biso   1.000  H
  H23      1.0000 0.92980  0.97750  0.49670  Biso   1.000  H
  H24      1.0000 0.92890  0.02710  0.37180  Biso   1.000  H
  I7       1.0000 0.02058  0.64450  0.13063  Biso   1.000  I
  I8       1.0000 0.10972  0.74110  0.05806  Biso   1.000  I
  I9       1.0000 0.62910  0.33960  0.20890  Biso   1.000  I
  I10      1.0000 0.73380  0.26860  0.30350  Biso   1.000  I
  I11      1.0000 0.85982  0.10724  0.49890  Biso   1.000  I
  Zn4      1.0000 0.88097  0.09965  0.42624  Biso   1.000  Zn
  I12      1.0000 0.89957  0.23548  0.38478  Biso   1.000  I
  N13      1.0000 0.83845  0.03150  0.38240  Biso   1.000  N
  N14      1.0000 0.92483  0.01090  0.43390  Biso   1.000  N
  C37      1.0000 0.81640  0.07530  0.34800  Biso   1.000  C
  C38      1.0000 0.83130  0.94560  0.39020  Biso   1.000  C
  H25      1.0000 0.82190  0.13660  0.34210  Biso   1.000  H
  C39      1.0000 0.78610  0.03420  0.32110  Biso   1.000  C
  C40      1.0000 0.80130  0.89840  0.36380  Biso   1.000  C
  H26      1.0000 0.84720  0.91490  0.41440  Biso   1.000  H
  H27      1.0000 0.77070  0.06700  0.29720  Biso   1.000  H
  C41      1.0000 0.77799  0.94380  0.32910  Biso   1.000  C
  H28      1.0000 0.79700  0.83640  0.36980  Biso   1.000  H
  C42      1.0000 0.74510  0.89930  0.30040  Biso   1.000  C
  N15      1.0000 0.72368  0.95130  0.26900  Biso   1.000  N
  N16      1.0000 0.73838  0.81160  0.30848  Biso   1.000  N
  C43      1.0000 0.69250  0.91190  0.24630  Biso   1.000  C
  C44      1.0000 0.70760  0.77820  0.28130  Biso   1.000  C
  C45      1.0000 0.66660  0.96640  0.21240  Biso   1.000  C
  N17      1.0000 0.68327  0.82570  0.25120  Biso   1.000  N
  C46      1.0000 0.69891  0.67960  0.28390  Biso   1.000  C
  C47      1.0000 0.67530  0.05350  0.20030  Biso   1.000  C
  C48      1.0000 0.63210  0.92950  0.19240  Biso   1.000  C
  C49      1.0000 0.72350  0.61910  0.31040  Biso   1.000  C
  C50      1.0000 0.66660  0.64480  0.25680  Biso   1.000  C
  C51      1.0000 0.64990  0.09940  0.16730  Biso   1.000  C
  H29      1.0000 0.69820  0.08120  0.21440  Biso   1.000  H
  H30      1.0000 0.62520  0.87070  0.20040  Biso   1.000  H
  C52      1.0000 0.60830  0.98060  0.16050  Biso   1.000  C
  C53      1.0000 0.71420  0.52760  0.30800  Biso   1.000  C
  H31      1.0000 0.74590  0.63990  0.32950  Biso   1.000  H
  H32      1.0000 0.64940  0.68450  0.23830  Biso   1.000  H
  C54      1.0000 0.65930  0.55360  0.25660  Biso   1.000  C
  N18      1.0000 0.61742  0.06350  0.14760  Biso   1.000  N
  H33      1.0000 0.65610  0.15840  0.15850  Biso   1.000  H
  H34      1.0000 0.58440  0.95640  0.14710  Biso   1.000  H
  N19      1.0000 0.68323  0.49460  0.28180  Biso   1.000  N
  H35      1.0000 0.73090  0.48620  0.32620  Biso   1.000  H
  H36      1.0000 0.63680  0.53120  0.23820  Biso   1.000  H
  Zn5      1.0000 0.57746  0.12677  0.09806  Biso   1.000  Zn
  Zn6      1.0000 0.66959  0.35710  0.27594  Biso   1.000  Zn
  I13      1.0000 0.52060  0.15900  0.12890  Biso   1.000  I
  I14      1.0000 0.60740  0.24600  0.05850  Biso   1.000  I
  N20      1.0000 0.56742  0.01500  0.05460  Biso   1.000  N
  N21      1.0000 0.63991  0.34210  0.32470  Biso   1.000  N
  I15      1.0000 0.62079  0.33501  0.20039  Biso   1.000  I
  I16      1.0000 0.72729  0.25860  0.29347  Biso   1.000  I
  C55      1.0000 0.61170  0.39670  0.32590  Biso   1.000  C
  C56      1.0000 0.64700  0.27570  0.35560  Biso   1.000  C
  C57      1.0000 0.58760  0.38420  0.35410  Biso   1.000  C
  H37      1.0000 0.60760  0.44750  0.30630  Biso   1.000  H
  H38      1.0000 0.66840  0.23850  0.35700  Biso   1.000  H
  C58      1.0000 0.62490  0.25920  0.38520  Biso   1.000  C
  H39      1.0000 0.56700  0.42380  0.35270  Biso   1.000  H
  C59      1.0000 0.59410  0.31340  0.38400  Biso   1.000  C
  H40      1.0000 0.63070  0.21100  0.40620  Biso   1.000  H
  C60      1.0000 0.56870  0.29700  0.41450  Biso   1.000  C
  N22      1.0000 0.57510  0.22450  0.44150  Biso   1.000  N
  N23      1.0000 0.54095  0.35680  0.41300  Biso   1.000  N
  C61      1.0000 0.55310  0.21690  0.46980  Biso   1.000  C
  C62      1.0000 0.51994  0.34140  0.44190  Biso   1.000  C
  C63      1.0000 0.55800  0.13640  0.49980  Biso   1.000  C
  N24      1.0000 0.52541  0.27510  0.47270  Biso   1.000  N
  C64      1.0000 0.48729  0.40030  0.44000  Biso   1.000  C
  C65      1.0000 0.53080  0.11200  0.52240  Biso   1.000  C
  C66      1.0000 0.59020  0.08430  0.50560  Biso   1.000  C
  C67      1.0000 0.47110  0.41180  0.47600  Biso   1.000  C
  C68      1.0000 0.47110  0.44440  0.40050  Biso   1.000  C
  H41      1.0000 0.50870  0.14700  0.51930  Biso   1.000  H
  C69      1.0000 0.53660  0.03600  0.54940  Biso   1.000  C
  C70      1.0000 0.59350  0.00860  0.53300  Biso   1.000  C
  H42      1.0000 0.60960  0.10030  0.49100  Biso   1.000  H
  H43      1.0000 0.48080  0.38130  0.50340  Biso   1.000  H
  C71      1.0000 0.44030  0.46860  0.47150  Biso   1.000  C
  H44      1.0000 0.48110  0.43790  0.37470  Biso   1.000  H
  C72      1.0000 0.44000  0.49790  0.39920  Biso   1.000  C
  H45      1.0000 0.51810  0.01920  0.56500  Biso   1.000  H
  H46      1.0000 0.61520  0.97200  0.53650  Biso   1.000  H
  H47      1.0000 0.42980  0.47750  0.49670  Biso   1.000  H
  H48      1.0000 0.42890  0.52710  0.37180  Biso   1.000  H
  I17      1.0000 0.52058  0.14450  0.13063  Biso   1.000  I
  I18      1.0000 0.60972  0.24110  0.05806  Biso   1.000  I
  I19      1.0000 0.12910  0.83960  0.20890  Biso   1.000  I
  I20      1.0000 0.23380  0.76860  0.30350  Biso   1.000  I
  I21      1.0000 0.35982  0.39276  0.99890  Biso   1.000  I
  Zn7      1.0000 0.38097  0.40035  0.92624  Biso   1.000  Zn
  I22      1.0000 0.39957  0.26452  0.88478  Biso   1.000  I
  N25      1.0000 0.33845  0.46850  0.88240  Biso   1.000  N
  N26      1.0000 0.42483  0.48910  0.93390  Biso   1.000  N
  C73      1.0000 0.31640  0.42470  0.84800  Biso   1.000  C
  C74      1.0000 0.33130  0.55440  0.89020  Biso   1.000  C
  H49      1.0000 0.32190  0.36340  0.84210  Biso   1.000  H
  C75      1.0000 0.28610  0.46580  0.82110  Biso   1.000  C
  C76      1.0000 0.30130  0.60160  0.86380  Biso   1.000  C
  H50      1.0000 0.34720  0.58510  0.91440  Biso   1.000  H
  H51      1.0000 0.27070  0.43300  0.79720  Biso   1.000  H
  C77      1.0000 0.27799  0.55620  0.82910  Biso   1.000  C
  H52      1.0000 0.29700  0.66360  0.86980  Biso   1.000  H
  C78      1.0000 0.24510  0.60070  0.80040  Biso   1.000  C
  N27      1.0000 0.22368  0.54870  0.76900  Biso   1.000  N
  N28      1.0000 0.23838  0.68840  0.80848  Biso   1.000  N
  C79      1.0000 0.19250  0.58810  0.74630  Biso   1.000  C
  C80      1.0000 0.20760  0.72180  0.78130  Biso   1.000  C
  C81      1.0000 0.16660  0.53360  0.71240  Biso   1.000  C
  N29      1.0000 0.18327  0.67430  0.75120  Biso   1.000  N
  C82      1.0000 0.19891  0.82040  0.78390  Biso   1.000  C
  C83      1.0000 0.17530  0.44650  0.70030  Biso   1.000  C
  C84      1.0000 0.13210  0.57050  0.69240  Biso   1.000  C
  C85      1.0000 0.22350  0.88090  0.81040  Biso   1.000  C
  C86      1.0000 0.16660  0.85520  0.75680  Biso   1.000  C
  C87      1.0000 0.14990  0.40060  0.66730  Biso   1.000  C
  H53      1.0000 0.19820  0.41880  0.71440  Biso   1.000  H
  H54      1.0000 0.12520  0.62930  0.70040  Biso   1.000  H
  C88      1.0000 0.10830  0.51940  0.66050  Biso   1.000  C
  C89      1.0000 0.21420  0.97240  0.80800  Biso   1.000  C
  H55      1.0000 0.24590  0.86010  0.82950  Biso   1.000  H
  H56      1.0000 0.14940  0.81550  0.73830  Biso   1.000  H
  C90      1.0000 0.15930  0.94640  0.75660  Biso   1.000  C
  N30      1.0000 0.11742  0.43650  0.64760  Biso   1.000  N
  H57      1.0000 0.15610  0.34160  0.65850  Biso   1.000  H
  H58      1.0000 0.08440  0.54360  0.64710  Biso   1.000  H
  N31      1.0000 0.18323  0.00540  0.78180  Biso   1.000  N
  H59      1.0000 0.23090  0.01380  0.82620  Biso   1.000  H
  H60      1.0000 0.13680  0.96880  0.73820  Biso   1.000  H
  Zn8      1.0000 0.07746  0.37323  0.59806  Biso   1.000  Zn
  Zn9      1.0000 0.16959  0.14290  0.77594  Biso   1.000  Zn
  I23      1.0000 0.02060  0.34100  0.62890  Biso   1.000  I
  I24      1.0000 0.10740  0.25400  0.55850  Biso   1.000  I
  N32      1.0000 0.06742  0.48500  0.55460  Biso   1.000  N
  N33      1.0000 0.13991  0.15790  0.82470  Biso   1.000  N
  I25      1.0000 0.12079  0.16499  0.70039  Biso   1.000  I
  I26      1.0000 0.22729  0.24140  0.79347  Biso   1.000  I
  C91      1.0000 0.11170  0.10330  0.82590  Biso   1.000  C
  C92      1.0000 0.14700  0.22430  0.85560  Biso   1.000  C
  C93      1.0000 0.08760  0.11580  0.85410  Biso   1.000  C
  H61      1.0000 0.10760  0.05250  0.80630  Biso   1.000  H
  H62      1.0000 0.16840  0.26150  0.85700  Biso   1.000  H
  C94      1.0000 0.12490  0.24080  0.88520  Biso   1.000  C
  H63      1.0000 0.06700  0.07620  0.85270  Biso   1.000  H
  C95      1.0000 0.09410  0.18660  0.88400  Biso   1.000  C
  H64      1.0000 0.13070  0.28900  0.90620  Biso   1.000  H
  C96      1.0000 0.06870  0.20300  0.91450  Biso   1.000  C
  N34      1.0000 0.07510  0.27550  0.94150  Biso   1.000  N
  N35      1.0000 0.04095  0.14320  0.91300  Biso   1.000  N
  C97      1.0000 0.05310  0.28310  0.96980  Biso   1.000  C
  C98      1.0000 0.01994  0.15860  0.94190  Biso   1.000  C
  C99      1.0000 0.05800  0.36360  0.99980  Biso   1.000  C
  N36      1.0000 0.02541  0.22490  0.97270  Biso   1.000  N
  C100     1.0000 0.98729  0.09970  0.94000  Biso   1.000  C
  C101     1.0000 0.03080  0.38800  0.02240  Biso   1.000  C
  C102     1.0000 0.09020  0.41570  0.00560  Biso   1.000  C
  C103     1.0000 0.97110  0.08820  0.97600  Biso   1.000  C
  C104     1.0000 0.97110  0.05560  0.90050  Biso   1.000  C
  H65      1.0000 0.00870  0.35300  0.01930  Biso   1.000  H
  C105     1.0000 0.03660  0.46400  0.04940  Biso   1.000  C
  C106     1.0000 0.09350  0.49140  0.03300  Biso   1.000  C
  H66      1.0000 0.10960  0.39970  0.99100  Biso   1.000  H
  H67      1.0000 0.98080  0.11870  0.00340  Biso   1.000  H
  C107     1.0000 0.94030  0.03140  0.97150  Biso   1.000  C
  H68      1.0000 0.98110  0.06210  0.87470  Biso   1.000  H
  C108     1.0000 0.94000  0.00210  0.89920  Biso   1.000  C
  H69      1.0000 0.01810  0.48080  0.06500  Biso   1.000  H
  H70      1.0000 0.11520  0.52800  0.03650  Biso   1.000  H
  H71      1.0000 0.92980  0.02250  0.99670  Biso   1.000  H
  H72      1.0000 0.92890  0.97290  0.87180  Biso   1.000  H
  I27      1.0000 0.02058  0.35550  0.63063  Biso   1.000  I
  I28      1.0000 0.10972  0.25890  0.55806  Biso   1.000  I
  I29      1.0000 0.62910  0.66040  0.70890  Biso   1.000  I
  I30      1.0000 0.73380  0.73140  0.80350  Biso   1.000  I
  I31      1.0000 0.85982  0.89276  0.99890  Biso   1.000  I
  Zn10     1.0000 0.88097  0.90035  0.92624  Biso   1.000  Zn
  I32      1.0000 0.89957  0.76452  0.88478  Biso   1.000  I
  N37      1.0000 0.83845  0.96850  0.88240  Biso   1.000  N
  N38      1.0000 0.92483  0.98910  0.93390  Biso   1.000  N
  C109     1.0000 0.81640  0.92470  0.84800  Biso   1.000  C
  C110     1.0000 0.83130  0.05440  0.89020  Biso   1.000  C
  H73      1.0000 0.82190  0.86340  0.84210  Biso   1.000  H
  C111     1.0000 0.78610  0.96580  0.82110  Biso   1.000  C
  C112     1.0000 0.80130  0.10160  0.86380  Biso   1.000  C
  H74      1.0000 0.84720  0.08510  0.91440  Biso   1.000  H
  H75      1.0000 0.77070  0.93300  0.79720  Biso   1.000  H
  C113     1.0000 0.77799  0.05620  0.82910  Biso   1.000  C
  H76      1.0000 0.79700  0.16360  0.86980  Biso   1.000  H
  C114     1.0000 0.74510  0.10070  0.80040  Biso   1.000  C
  N39      1.0000 0.72368  0.04870  0.76900  Biso   1.000  N
  N40      1.0000 0.73838  0.18840  0.80848  Biso   1.000  N
  C115     1.0000 0.69250  0.08810  0.74630  Biso   1.000  C
  C116     1.0000 0.70760  0.22180  0.78130  Biso   1.000  C
  C117     1.0000 0.66660  0.03360  0.71240  Biso   1.000  C
  N41      1.0000 0.68327  0.17430  0.75120  Biso   1.000  N
  C118     1.0000 0.69891  0.32040  0.78390  Biso   1.000  C
  C119     1.0000 0.67530  0.94650  0.70030  Biso   1.000  C
  C120     1.0000 0.63210  0.07050  0.69240  Biso   1.000  C
  C121     1.0000 0.72350  0.38090  0.81040  Biso   1.000  C
  C122     1.0000 0.66660  0.35520  0.75680  Biso   1.000  C
  C123     1.0000 0.64990  0.90060  0.66730  Biso   1.000  C
  H77      1.0000 0.69820  0.91880  0.71440  Biso   1.000  H
  H78      1.0000 0.62520  0.12930  0.70040  Biso   1.000  H
  C124     1.0000 0.60830  0.01940  0.66050  Biso   1.000  C
  C125     1.0000 0.71420  0.47240  0.80800  Biso   1.000  C
  H79      1.0000 0.74590  0.36010  0.82950  Biso   1.000  H
  H80      1.0000 0.64940  0.31550  0.73830  Biso   1.000  H
  C126     1.0000 0.65930  0.44640  0.75660  Biso   1.000  C
  N42      1.0000 0.61742  0.93650  0.64760  Biso   1.000  N
  H81      1.0000 0.65610  0.84160  0.65850  Biso   1.000  H
  H82      1.0000 0.58440  0.04360  0.64710  Biso   1.000  H
  N43      1.0000 0.68323  0.50540  0.78180  Biso   1.000  N
  H83      1.0000 0.73090  0.51380  0.82620  Biso   1.000  H
  H84      1.0000 0.63680  0.46880  0.73820  Biso   1.000  H
  Zn11     1.0000 0.57746  0.87323  0.59806  Biso   1.000  Zn
  Zn12     1.0000 0.66959  0.64290  0.77594  Biso   1.000  Zn
  I33      1.0000 0.52060  0.84100  0.62890  Biso   1.000  I
  I34      1.0000 0.60740  0.75400  0.55850  Biso   1.000  I
  N44      1.0000 0.56742  0.98500  0.55460  Biso   1.000  N
  N45      1.0000 0.63991  0.65790  0.82470  Biso   1.000  N
  I35      1.0000 0.62079  0.66499  0.70039  Biso   1.000  I
  I36      1.0000 0.72729  0.74140  0.79347  Biso   1.000  I
  C127     1.0000 0.61170  0.60330  0.82590  Biso   1.000  C
  C128     1.0000 0.64700  0.72430  0.85560  Biso   1.000  C
  C129     1.0000 0.58760  0.61580  0.85410  Biso   1.000  C
  H85      1.0000 0.60760  0.55250  0.80630  Biso   1.000  H
  H86      1.0000 0.66840  0.76150  0.85700  Biso   1.000  H
  C130     1.0000 0.62490  0.74080  0.88520  Biso   1.000  C
  H87      1.0000 0.56700  0.57620  0.85270  Biso   1.000  H
  C131     1.0000 0.59410  0.68660  0.88400  Biso   1.000  C
  H88      1.0000 0.63070  0.78900  0.90620  Biso   1.000  H
  C132     1.0000 0.56870  0.70300  0.91450  Biso   1.000  C
  N46      1.0000 0.57510  0.77550  0.94150  Biso   1.000  N
  N47      1.0000 0.54095  0.64320  0.91300  Biso   1.000  N
  C133     1.0000 0.55310  0.78310  0.96980  Biso   1.000  C
  C134     1.0000 0.51994  0.65860  0.94190  Biso   1.000  C
  C135     1.0000 0.55800  0.86360  0.99980  Biso   1.000  C
  N48      1.0000 0.52541  0.72490  0.97270  Biso   1.000  N
  C136     1.0000 0.48729  0.59970  0.94000  Biso   1.000  C
  C137     1.0000 0.53080  0.88800  0.02240  Biso   1.000  C
  C138     1.0000 0.59020  0.91570  0.00560  Biso   1.000  C
  C139     1.0000 0.47110  0.58820  0.97600  Biso   1.000  C
  C140     1.0000 0.47110  0.55560  0.90050  Biso   1.000  C
  H89      1.0000 0.50870  0.85300  0.01930  Biso   1.000  H
  C141     1.0000 0.53660  0.96400  0.04940  Biso   1.000  C
  C142     1.0000 0.59350  0.99140  0.03300  Biso   1.000  C
  H90      1.0000 0.60960  0.89970  0.99100  Biso   1.000  H
  H91      1.0000 0.48080  0.61870  0.00340  Biso   1.000  H
  C143     1.0000 0.44030  0.53140  0.97150  Biso   1.000  C
  H92      1.0000 0.48110  0.56210  0.87470  Biso   1.000  H
  C144     1.0000 0.44000  0.50210  0.89920  Biso   1.000  C
  H93      1.0000 0.51810  0.98080  0.06500  Biso   1.000  H
  H94      1.0000 0.61520  0.02800  0.03650  Biso   1.000  H
  H95      1.0000 0.42980  0.52250  0.99670  Biso   1.000  H
  H96      1.0000 0.42890  0.47290  0.87180  Biso   1.000  H
  I37      1.0000 0.52058  0.85550  0.63063  Biso   1.000  I
  I38      1.0000 0.60972  0.75890  0.55806  Biso   1.000  I
  I39      1.0000 0.12910  0.16040  0.70890  Biso   1.000  I
  I40      1.0000 0.23380  0.23140  0.80350  Biso   1.000  I
  I41      1.0000 0.64018  0.60724  0.00110  Biso   1.000  I
  Zn13     1.0000 0.61903  0.59965  0.07376  Biso   1.000  Zn
  I42      1.0000 0.60043  0.73548  0.11522  Biso   1.000  I
  N49      1.0000 0.66155  0.53150  0.11760  Biso   1.000  N
  N50      1.0000 0.57517  0.51090  0.06610  Biso   1.000  N
  C145     1.0000 0.68360  0.57530  0.15200  Biso   1.000  C
  C146     1.0000 0.66870  0.44560  0.10980  Biso   1.000  C
  H97      1.0000 0.67810  0.63660  0.15790  Biso   1.000  H
  C147     1.0000 0.71390  0.53420  0.17890  Biso   1.000  C
  C148     1.0000 0.69870  0.39840  0.13620  Biso   1.000  C
  H98      1.0000 0.65280  0.41490  0.08560  Biso   1.000  H
  H99      1.0000 0.72930  0.56700  0.20280  Biso   1.000  H
  C149     1.0000 0.72201  0.44380  0.17090  Biso   1.000  C
  H100     1.0000 0.70300  0.33640  0.13020  Biso   1.000  H
  C150     1.0000 0.75490  0.39930  0.19960  Biso   1.000  C
  N51      1.0000 0.77632  0.45130  0.23100  Biso   1.000  N
  N52      1.0000 0.76162  0.31160  0.19152  Biso   1.000  N
  C151     1.0000 0.80750  0.41190  0.25370  Biso   1.000  C
  C152     1.0000 0.79240  0.27820  0.21870  Biso   1.000  C
  C153     1.0000 0.83340  0.46640  0.28760  Biso   1.000  C
  N53      1.0000 0.81673  0.32570  0.24880  Biso   1.000  N
  C154     1.0000 0.80109  0.17960  0.21610  Biso   1.000  C
  C155     1.0000 0.82470  0.55350  0.29970  Biso   1.000  C
  C156     1.0000 0.86790  0.42950  0.30760  Biso   1.000  C
  C157     1.0000 0.77650  0.11910  0.18960  Biso   1.000  C
  C158     1.0000 0.83340  0.14480  0.24320  Biso   1.000  C
  C159     1.0000 0.85010  0.59940  0.33270  Biso   1.000  C
  H101     1.0000 0.80180  0.58120  0.28560  Biso   1.000  H
  H102     1.0000 0.87480  0.37070  0.29960  Biso   1.000  H
  C160     1.0000 0.89170  0.48060  0.33950  Biso   1.000  C
  C161     1.0000 0.78580  0.02760  0.19200  Biso   1.000  C
  H103     1.0000 0.75410  0.13990  0.17050  Biso   1.000  H
  H104     1.0000 0.85060  0.18450  0.26170  Biso   1.000  H
  C162     1.0000 0.84070  0.05360  0.24340  Biso   1.000  C
  N54      1.0000 0.88258  0.56350  0.35240  Biso   1.000  N
  H105     1.0000 0.84390  0.65840  0.34150  Biso   1.000  H
  H106     1.0000 0.91560  0.45640  0.35290  Biso   1.000  H
  N55      1.0000 0.81677  0.99460  0.21820  Biso   1.000  N
  H107     1.0000 0.76910  0.98620  0.17380  Biso   1.000  H
  H108     1.0000 0.86320  0.03120  0.26180  Biso   1.000  H
  Zn14     1.0000 0.92254  0.62677  0.40194  Biso   1.000  Zn
  Zn15     1.0000 0.83041  0.85710  0.22406  Biso   1.000  Zn
  I43      1.0000 0.97940  0.65900  0.37110  Biso   1.000  I
  I44      1.0000 0.89260  0.74600  0.44150  Biso   1.000  I
  N56      1.0000 0.93258  0.51500  0.44540  Biso   1.000  N
  N57      1.0000 0.86009  0.84210  0.17530  Biso   1.000  N
  I45      1.0000 0.87921  0.83501  0.29961  Biso   1.000  I
  I46      1.0000 0.77271  0.75860  0.20653  Biso   1.000  I
  C163     1.0000 0.88830  0.89670  0.17410  Biso   1.000  C
  C164     1.0000 0.85300  0.77570  0.14440  Biso   1.000  C
  C165     1.0000 0.91240  0.88420  0.14590  Biso   1.000  C
  H109     1.0000 0.89240  0.94750  0.19370  Biso   1.000  H
  H110     1.0000 0.83160  0.73850  0.14300  Biso   1.000  H
  C166     1.0000 0.87510  0.75920  0.11480  Biso   1.000  C
  H111     1.0000 0.93300  0.92380  0.14730  Biso   1.000  H
  C167     1.0000 0.90590  0.81340  0.11600  Biso   1.000  C
  H112     1.0000 0.86930  0.71100  0.09380  Biso   1.000  H
  C168     1.0000 0.93130  0.79700  0.08550  Biso   1.000  C
  N58      1.0000 0.92490  0.72450  0.05850  Biso   1.000  N
  N59      1.0000 0.95905  0.85680  0.08700  Biso   1.000  N
  C169     1.0000 0.94690  0.71690  0.03020  Biso   1.000  C
  C170     1.0000 0.98006  0.84140  0.05810  Biso   1.000  C
  C171     1.0000 0.94200  0.63640  0.00020  Biso   1.000  C
  N60      1.0000 0.97459  0.77510  0.02730  Biso   1.000  N
  C172     1.0000 0.01271  0.90030  0.06000  Biso   1.000  C
  C173     1.0000 0.96920  0.61200  0.97760  Biso   1.000  C
  C174     1.0000 0.90980  0.58430  0.99440  Biso   1.000  C
  C175     1.0000 0.02890  0.91180  0.02400  Biso   1.000  C
  C176     1.0000 0.02890  0.94440  0.09950  Biso   1.000  C
  H113     1.0000 0.99130  0.64700  0.98070  Biso   1.000  H
  C177     1.0000 0.96340  0.53600  0.95060  Biso   1.000  C
  C178     1.0000 0.90650  0.50860  0.96700  Biso   1.000  C
  H114     1.0000 0.89040  0.60030  0.00900  Biso   1.000  H
  H115     1.0000 0.01920  0.88130  0.99660  Biso   1.000  H
  C179     1.0000 0.05970  0.96860  0.02850  Biso   1.000  C
  H116     1.0000 0.01890  0.93790  0.12530  Biso   1.000  H
  C180     1.0000 0.06000  0.99790  0.10080  Biso   1.000  C
  H117     1.0000 0.98190  0.51920  0.93500  Biso   1.000  H
  H118     1.0000 0.88480  0.47200  0.96350  Biso   1.000  H
  H119     1.0000 0.07020  0.97750  0.00330  Biso   1.000  H
  H120     1.0000 0.07110  0.02710  0.12820  Biso   1.000  H
  I47      1.0000 0.97942  0.64450  0.36937  Biso   1.000  I
  I48      1.0000 0.89028  0.74110  0.44194  Biso   1.000  I
  I49      1.0000 0.37090  0.33960  0.29110  Biso   1.000  I
  I50      1.0000 0.26620  0.26860  0.19650  Biso   1.000  I
  I51      1.0000 0.14018  0.10724  0.00110  Biso   1.000  I
  Zn16     1.0000 0.11903  0.09965  0.07376  Biso   1.000  Zn
  I52      1.0000 0.10043  0.23548  0.11522  Biso   1.000  I
  N61      1.0000 0.16155  0.03150  0.11760  Biso   1.000  N
  N62      1.0000 0.07517  0.01090  0.06610  Biso   1.000  N
  C181     1.0000 0.18360  0.07530  0.15200  Biso   1.000  C
  C182     1.0000 0.16870  0.94560  0.10980  Biso   1.000  C
  H121     1.0000 0.17810  0.13660  0.15790  Biso   1.000  H
  C183     1.0000 0.21390  0.03420  0.17890  Biso   1.000  C
  C184     1.0000 0.19870  0.89840  0.13620  Biso   1.000  C
  H122     1.0000 0.15280  0.91490  0.08560  Biso   1.000  H
  H123     1.0000 0.22930  0.06700  0.20280  Biso   1.000  H
  C185     1.0000 0.22201  0.94380  0.17090  Biso   1.000  C
  H124     1.0000 0.20300  0.83640  0.13020  Biso   1.000  H
  C186     1.0000 0.25490  0.89930  0.19960  Biso   1.000  C
  N63      1.0000 0.27632  0.95130  0.23100  Biso   1.000  N
  N64      1.0000 0.26162  0.81160  0.19152  Biso   1.000  N
  C187     1.0000 0.30750  0.91190  0.25370  Biso   1.000  C
  C188     1.0000 0.29240  0.77820  0.21870  Biso   1.000  C
  C189     1.0000 0.33340  0.96640  0.28760  Biso   1.000  C
  N65      1.0000 0.31673  0.82570  0.24880  Biso   1.000  N
  C190     1.0000 0.30109  0.67960  0.21610  Biso   1.000  C
  C191     1.0000 0.32470  0.05350  0.29970  Biso   1.000  C
  C192     1.0000 0.36790  0.92950  0.30760  Biso   1.000  C
  C193     1.0000 0.27650  0.61910  0.18960  Biso   1.000  C
  C194     1.0000 0.33340  0.64480  0.24320  Biso   1.000  C
  C195     1.0000 0.35010  0.09940  0.33270  Biso   1.000  C
  H125     1.0000 0.30180  0.08120  0.28560  Biso   1.000  H
  H126     1.0000 0.37480  0.87070  0.29960  Biso   1.000  H
  C196     1.0000 0.39170  0.98060  0.33950  Biso   1.000  C
  C197     1.0000 0.28580  0.52760  0.19200  Biso   1.000  C
  H127     1.0000 0.25410  0.63990  0.17050  Biso   1.000  H
  H128     1.0000 0.35060  0.68450  0.26170  Biso   1.000  H
  C198     1.0000 0.34070  0.55360  0.24340  Biso   1.000  C
  N66      1.0000 0.38258  0.06350  0.35240  Biso   1.000  N
  H129     1.0000 0.34390  0.15840  0.34150  Biso   1.000  H
  H130     1.0000 0.41560  0.95640  0.35290  Biso   1.000  H
  N67      1.0000 0.31677  0.49460  0.21820  Biso   1.000  N
  H131     1.0000 0.26910  0.48620  0.17380  Biso   1.000  H
  H132     1.0000 0.36320  0.53120  0.26180  Biso   1.000  H
  Zn17     1.0000 0.42254  0.12677  0.40194  Biso   1.000  Zn
  Zn18     1.0000 0.33041  0.35710  0.22406  Biso   1.000  Zn
  I53      1.0000 0.47940  0.15900  0.37110  Biso   1.000  I
  I54      1.0000 0.39260  0.24600  0.44150  Biso   1.000  I
  N68      1.0000 0.43258  0.01500  0.44540  Biso   1.000  N
  N69      1.0000 0.36009  0.34210  0.17530  Biso   1.000  N
  I55      1.0000 0.37921  0.33501  0.29961  Biso   1.000  I
  I56      1.0000 0.27271  0.25860  0.20653  Biso   1.000  I
  C199     1.0000 0.38830  0.39670  0.17410  Biso   1.000  C
  C200     1.0000 0.35300  0.27570  0.14440  Biso   1.000  C
  C201     1.0000 0.41240  0.38420  0.14590  Biso   1.000  C
  H133     1.0000 0.39240  0.44750  0.19370  Biso   1.000  H
  H134     1.0000 0.33160  0.23850  0.14300  Biso   1.000  H
  C202     1.0000 0.37510  0.25920  0.11480  Biso   1.000  C
  H135     1.0000 0.43300  0.42380  0.14730  Biso   1.000  H
  C203     1.0000 0.40590  0.31340  0.11600  Biso   1.000  C
  H136     1.0000 0.36930  0.21100  0.09380  Biso   1.000  H
  C204     1.0000 0.43130  0.29700  0.08550  Biso   1.000  C
  N70      1.0000 0.42490  0.22450  0.05850  Biso   1.000  N
  N71      1.0000 0.45905  0.35680  0.08700  Biso   1.000  N
  C205     1.0000 0.44690  0.21690  0.03020  Biso   1.000  C
  C206     1.0000 0.48006  0.34140  0.05810  Biso   1.000  C
  C207     1.0000 0.44200  0.13640  0.00020  Biso   1.000  C
  N72      1.0000 0.47459  0.27510  0.02730  Biso   1.000  N
  C208     1.0000 0.51271  0.40030  0.06000  Biso   1.000  C
  C209     1.0000 0.46920  0.11200  0.97760  Biso   1.000  C
  C210     1.0000 0.40980  0.08430  0.99440  Biso   1.000  C
  C211     1.0000 0.52890  0.41180  0.02400  Biso   1.000  C
  C212     1.0000 0.52890  0.44440  0.09950  Biso   1.000  C
  H137     1.0000 0.49130  0.14700  0.98070  Biso   1.000  H
  C213     1.0000 0.46340  0.03600  0.95060  Biso   1.000  C
  C214     1.0000 0.40650  0.00860  0.96700  Biso   1.000  C
  H138     1.0000 0.39040  0.10030  0.00900  Biso   1.000  H
  H139     1.0000 0.51920  0.38130  0.99660  Biso   1.000  H
  C215     1.0000 0.55970  0.46860  0.02850  Biso   1.000  C
  H140     1.0000 0.51890  0.43790  0.12530  Biso   1.000  H
  C216     1.0000 0.56000  0.49790  0.10080  Biso   1.000  C
  H141     1.0000 0.48190  0.01920  0.93500  Biso   1.000  H
  H142     1.0000 0.38480  0.97200  0.96350  Biso   1.000  H
  H143     1.0000 0.57020  0.47750  0.00330  Biso   1.000  H
  H144     1.0000 0.57110  0.52710  0.12820  Biso   1.000  H
  I57      1.0000 0.47942  0.14450  0.36937  Biso   1.000  I
  I58      1.0000 0.39028  0.24110  0.44194  Biso   1.000  I
  I59      1.0000 0.87090  0.83960  0.29110  Biso   1.000  I
  I60      1.0000 0.76620  0.76860  0.19650  Biso   1.000  I
  I61      1.0000 0.64018  0.39276  0.50110  Biso   1.000  I
  Zn19     1.0000 0.61903  0.40035  0.57376  Biso   1.000  Zn
  I62      1.0000 0.60043  0.26452  0.61522  Biso   1.000  I
  N73      1.0000 0.66155  0.46850  0.61760  Biso   1.000  N
  N74      1.0000 0.57517  0.48910  0.56610  Biso   1.000  N
  C217     1.0000 0.68360  0.42470  0.65200  Biso   1.000  C
  C218     1.0000 0.66870  0.55440  0.60980  Biso   1.000  C
  H145     1.0000 0.67810  0.36340  0.65790  Biso   1.000  H
  C219     1.0000 0.71390  0.46580  0.67890  Biso   1.000  C
  C220     1.0000 0.69870  0.60160  0.63620  Biso   1.000  C
  H146     1.0000 0.65280  0.58510  0.58560  Biso   1.000  H
  H147     1.0000 0.72930  0.43300  0.70280  Biso   1.000  H
  C221     1.0000 0.72201  0.55620  0.67090  Biso   1.000  C
  H148     1.0000 0.70300  0.66360  0.63020  Biso   1.000  H
  C222     1.0000 0.75490  0.60070  0.69960  Biso   1.000  C
  N75      1.0000 0.77632  0.54870  0.73100  Biso   1.000  N
  N76      1.0000 0.76162  0.68840  0.69152  Biso   1.000  N
  C223     1.0000 0.80750  0.58810  0.75370  Biso   1.000  C
  C224     1.0000 0.79240  0.72180  0.71870  Biso   1.000  C
  C225     1.0000 0.83340  0.53360  0.78760  Biso   1.000  C
  N77      1.0000 0.81673  0.67430  0.74880  Biso   1.000  N
  C226     1.0000 0.80109  0.82040  0.71610  Biso   1.000  C
  C227     1.0000 0.82470  0.44650  0.79970  Biso   1.000  C
  C228     1.0000 0.86790  0.57050  0.80760  Biso   1.000  C
  C229     1.0000 0.77650  0.88090  0.68960  Biso   1.000  C
  C230     1.0000 0.83340  0.85520  0.74320  Biso   1.000  C
  C231     1.0000 0.85010  0.40060  0.83270  Biso   1.000  C
  H149     1.0000 0.80180  0.41880  0.78560  Biso   1.000  H
  H150     1.0000 0.87480  0.62930  0.79960  Biso   1.000  H
  C232     1.0000 0.89170  0.51940  0.83950  Biso   1.000  C
  C233     1.0000 0.78580  0.97240  0.69200  Biso   1.000  C
  H151     1.0000 0.75410  0.86010  0.67050  Biso   1.000  H
  H152     1.0000 0.85060  0.81550  0.76170  Biso   1.000  H
  C234     1.0000 0.84070  0.94640  0.74340  Biso   1.000  C
  N78      1.0000 0.88258  0.43650  0.85240  Biso   1.000  N
  H153     1.0000 0.84390  0.34160  0.84150  Biso   1.000  H
  H154     1.0000 0.91560  0.54360  0.85290  Biso   1.000  H
  N79      1.0000 0.81677  0.00540  0.71820  Biso   1.000  N
  H155     1.0000 0.76910  0.01380  0.67380  Biso   1.000  H
  H156     1.0000 0.86320  0.96880  0.76180  Biso   1.000  H
  Zn20     1.0000 0.92254  0.37323  0.90194  Biso   1.000  Zn
  Zn21     1.0000 0.83041  0.14290  0.72406  Biso   1.000  Zn
  I63      1.0000 0.97940  0.34100  0.87110  Biso   1.000  I
  I64      1.0000 0.89260  0.25400  0.94150  Biso   1.000  I
  N80      1.0000 0.93258  0.48500  0.94540  Biso   1.000  N
  N81      1.0000 0.86009  0.15790  0.67530  Biso   1.000  N
  I65      1.0000 0.87921  0.16499  0.79961  Biso   1.000  I
  I66      1.0000 0.77271  0.24140  0.70653  Biso   1.000  I
  C235     1.0000 0.88830  0.10330  0.67410  Biso   1.000  C
  C236     1.0000 0.85300  0.22430  0.64440  Biso   1.000  C
  C237     1.0000 0.91240  0.11580  0.64590  Biso   1.000  C
  H157     1.0000 0.89240  0.05250  0.69370  Biso   1.000  H
  H158     1.0000 0.83160  0.26150  0.64300  Biso   1.000  H
  C238     1.0000 0.87510  0.24080  0.61480  Biso   1.000  C
  H159     1.0000 0.93300  0.07620  0.64730  Biso   1.000  H
  C239     1.0000 0.90590  0.18660  0.61600  Biso   1.000  C
  H160     1.0000 0.86930  0.28900  0.59380  Biso   1.000  H
  C240     1.0000 0.93130  0.20300  0.58550  Biso   1.000  C
  N82      1.0000 0.92490  0.27550  0.55850  Biso   1.000  N
  N83      1.0000 0.95905  0.14320  0.58700  Biso   1.000  N
  C241     1.0000 0.94690  0.28310  0.53020  Biso   1.000  C
  C242     1.0000 0.98006  0.15860  0.55810  Biso   1.000  C
  C243     1.0000 0.94200  0.36360  0.50020  Biso   1.000  C
  N84      1.0000 0.97459  0.22490  0.52730  Biso   1.000  N
  C244     1.0000 0.01271  0.09970  0.56000  Biso   1.000  C
  C245     1.0000 0.96920  0.38800  0.47760  Biso   1.000  C
  C246     1.0000 0.90980  0.41570  0.49440  Biso   1.000  C
  C247     1.0000 0.02890  0.08820  0.52400  Biso   1.000  C
  C248     1.0000 0.02890  0.05560  0.59950  Biso   1.000  C
  H161     1.0000 0.99130  0.35300  0.48070  Biso   1.000  H
  C249     1.0000 0.96340  0.46400  0.45060  Biso   1.000  C
  C250     1.0000 0.90650  0.49140  0.46700  Biso   1.000  C
  H162     1.0000 0.89040  0.39970  0.50900  Biso   1.000  H
  H163     1.0000 0.01920  0.11870  0.49660  Biso   1.000  H
  C251     1.0000 0.05970  0.03140  0.52850  Biso   1.000  C
  H164     1.0000 0.01890  0.06210  0.62530  Biso   1.000  H
  C252     1.0000 0.06000  0.00210  0.60080  Biso   1.000  C
  H165     1.0000 0.98190  0.48080  0.43500  Biso   1.000  H
  H166     1.0000 0.88480  0.52800  0.46350  Biso   1.000  H
  H167     1.0000 0.07020  0.02250  0.50330  Biso   1.000  H
  H168     1.0000 0.07110  0.97290  0.62820  Biso   1.000  H
  I67      1.0000 0.97942  0.35550  0.86937  Biso   1.000  I
  I68      1.0000 0.89028  0.25890  0.94194  Biso   1.000  I
  I69      1.0000 0.37090  0.66040  0.79110  Biso   1.000  I
  I70      1.0000 0.26620  0.73140  0.69650  Biso   1.000  I
  I71      1.0000 0.14018  0.89276  0.50110  Biso   1.000  I
  Zn22     1.0000 0.11903  0.90035  0.57376  Biso   1.000  Zn
  I72      1.0000 0.10043  0.76452  0.61522  Biso   1.000  I
  N85      1.0000 0.16155  0.96850  0.61760  Biso   1.000  N
  N86      1.0000 0.07517  0.98910  0.56610  Biso   1.000  N
  C253     1.0000 0.18360  0.92470  0.65200  Biso   1.000  C
  C254     1.0000 0.16870  0.05440  0.60980  Biso   1.000  C
  H169     1.0000 0.17810  0.86340  0.65790  Biso   1.000  H
  C255     1.0000 0.21390  0.96580  0.67890  Biso   1.000  C
  C256     1.0000 0.19870  0.10160  0.63620  Biso   1.000  C
  H170     1.0000 0.15280  0.08510  0.58560  Biso   1.000  H
  H171     1.0000 0.22930  0.93300  0.70280  Biso   1.000  H
  C257     1.0000 0.22201  0.05620  0.67090  Biso   1.000  C
  H172     1.0000 0.20300  0.16360  0.63020  Biso   1.000  H
  C258     1.0000 0.25490  0.10070  0.69960  Biso   1.000  C
  N87      1.0000 0.27632  0.04870  0.73100  Biso   1.000  N
  N88      1.0000 0.26162  0.18840  0.69152  Biso   1.000  N
  C259     1.0000 0.30750  0.08810  0.75370  Biso   1.000  C
  C260     1.0000 0.29240  0.22180  0.71870  Biso   1.000  C
  C261     1.0000 0.33340  0.03360  0.78760  Biso   1.000  C
  N89      1.0000 0.31673  0.17430  0.74880  Biso   1.000  N
  C262     1.0000 0.30109  0.32040  0.71610  Biso   1.000  C
  C263     1.0000 0.32470  0.94650  0.79970  Biso   1.000  C
  C264     1.0000 0.36790  0.07050  0.80760  Biso   1.000  C
  C265     1.0000 0.27650  0.38090  0.68960  Biso   1.000  C
  C266     1.0000 0.33340  0.35520  0.74320  Biso   1.000  C
  C267     1.0000 0.35010  0.90060  0.83270  Biso   1.000  C
  H173     1.0000 0.30180  0.91880  0.78560  Biso   1.000  H
  H174     1.0000 0.37480  0.12930  0.79960  Biso   1.000  H
  C268     1.0000 0.39170  0.01940  0.83950  Biso   1.000  C
  C269     1.0000 0.28580  0.47240  0.69200  Biso   1.000  C
  H175     1.0000 0.25410  0.36010  0.67050  Biso   1.000  H
  H176     1.0000 0.35060  0.31550  0.76170  Biso   1.000  H
  C270     1.0000 0.34070  0.44640  0.74340  Biso   1.000  C
  N90      1.0000 0.38258  0.93650  0.85240  Biso   1.000  N
  H177     1.0000 0.34390  0.84160  0.84150  Biso   1.000  H
  H178     1.0000 0.41560  0.04360  0.85290  Biso   1.000  H
  N91      1.0000 0.31677  0.50540  0.71820  Biso   1.000  N
  H179     1.0000 0.26910  0.51380  0.67380  Biso   1.000  H
  H180     1.0000 0.36320  0.46880  0.76180  Biso   1.000  H
  Zn23     1.0000 0.42254  0.87323  0.90194  Biso   1.000  Zn
  Zn24     1.0000 0.33041  0.64290  0.72406  Biso   1.000  Zn
  I73      1.0000 0.47940  0.84100  0.87110  Biso   1.000  I
  I74      1.0000 0.39260  0.75400  0.94150  Biso   1.000  I
  N92      1.0000 0.43258  0.98500  0.94540  Biso   1.000  N
  N93      1.0000 0.36009  0.65790  0.67530  Biso   1.000  N
  I75      1.0000 0.37921  0.66499  0.79961  Biso   1.000  I
  I76      1.0000 0.27271  0.74140  0.70653  Biso   1.000  I
  C271     1.0000 0.38830  0.60330  0.67410  Biso   1.000  C
  C272     1.0000 0.35300  0.72430  0.64440  Biso   1.000  C
  C273     1.0000 0.41240  0.61580  0.64590  Biso   1.000  C
  H181     1.0000 0.39240  0.55250  0.69370  Biso   1.000  H
  H182     1.0000 0.33160  0.76150  0.64300  Biso   1.000  H
  C274     1.0000 0.37510  0.74080  0.61480  Biso   1.000  C
  H183     1.0000 0.43300  0.57620  0.64730  Biso   1.000  H
  C275     1.0000 0.40590  0.68660  0.61600  Biso   1.000  C
  H184     1.0000 0.36930  0.78900  0.59380  Biso   1.000  H
  C276     1.0000 0.43130  0.70300  0.58550  Biso   1.000  C
  N94      1.0000 0.42490  0.77550  0.55850  Biso   1.000  N
  N95      1.0000 0.45905  0.64320  0.58700  Biso   1.000  N
  C277     1.0000 0.44690  0.78310  0.53020  Biso   1.000  C
  C278     1.0000 0.48006  0.65860  0.55810  Biso   1.000  C
  C279     1.0000 0.44200  0.86360  0.50020  Biso   1.000  C
  N96      1.0000 0.47459  0.72490  0.52730  Biso   1.000  N
  C280     1.0000 0.51271  0.59970  0.56000  Biso   1.000  C
  C281     1.0000 0.46920  0.88800  0.47760  Biso   1.000  C
  C282     1.0000 0.40980  0.91570  0.49440  Biso   1.000  C
  C283     1.0000 0.52890  0.58820  0.52400  Biso   1.000  C
  C284     1.0000 0.52890  0.55560  0.59950  Biso   1.000  C
  H185     1.0000 0.49130  0.85300  0.48070  Biso   1.000  H
  C285     1.0000 0.46340  0.96400  0.45060  Biso   1.000  C
  C286     1.0000 0.40650  0.99140  0.46700  Biso   1.000  C
  H186     1.0000 0.39040  0.89970  0.50900  Biso   1.000  H
  H187     1.0000 0.51920  0.61870  0.49660  Biso   1.000  H
  C287     1.0000 0.55970  0.53140  0.52850  Biso   1.000  C
  H188     1.0000 0.51890  0.56210  0.62530  Biso   1.000  H
  C288     1.0000 0.56000  0.50210  0.60080  Biso   1.000  C
  H189     1.0000 0.48190  0.98080  0.43500  Biso   1.000  H
  H190     1.0000 0.38480  0.02800  0.46350  Biso   1.000  H
  H191     1.0000 0.57020  0.52250  0.50330  Biso   1.000  H
  H192     1.0000 0.57110  0.47290  0.62820  Biso   1.000  H
  I77      1.0000 0.47942  0.85550  0.86937  Biso   1.000  I
  I78      1.0000 0.39028  0.75890  0.94194  Biso   1.000  I
  I79      1.0000 0.87090  0.16040  0.79110  Biso   1.000  I
  I80      1.0000 0.76620  0.23140  0.69650  Biso   1.000  I
