data_image0
_cell_length_a       34.4746
_cell_length_b       15.0255
_cell_length_c       30.1535
_cell_angle_alpha    90
_cell_angle_beta     99.681
_cell_angle_gamma    90

_symmetry_space_group_name_H-M    "P 1"
_symmetry_int_tables_number       1

loop_
  _symmetry_equiv_pos_as_xyz
  'x, y, z'

loop_
  _atom_site_label
  _atom_site_occupancy
  _atom_site_fract_x
  _atom_site_fract_y
  _atom_site_fract_z
  _atom_site_thermal_displace_type
  _atom_site_B_iso_or_equiv
  _atom_site_type_symbol
  I1       1.0000 0.39600  0.72350  0.39820  Biso   1.000  I
  Zn1      1.0000 0.36863  0.59477  0.44686  Biso   1.000  Zn
  N1       1.0000 0.41390  0.50480  0.45000  Biso   1.000  N
  I2       1.0000 0.34820  0.61240  0.51740  Biso   1.000  I
  N2       1.0000 0.32590  0.53200  0.40160  Biso   1.000  N
  C1       1.0000 0.30450  0.57570  0.36730  Biso   1.000  C
  C2       1.0000 0.31850  0.44650  0.40690  Biso   1.000  C
  C3       1.0000 0.27560  0.53520  0.33710  Biso   1.000  C
  H1       1.0000 0.30940  0.63730  0.36370  Biso   1.000  H
  C4       1.0000 0.29030  0.39940  0.37750  Biso   1.000  C
  H2       1.0000 0.33310  0.41590  0.43180  Biso   1.000  H
  C5       1.0000 0.26840  0.44480  0.34180  Biso   1.000  C
  H3       1.0000 0.26070  0.56850  0.31340  Biso   1.000  H
  H4       1.0000 0.28620  0.33770  0.38190  Biso   1.000  H
  C6       1.0000 0.23760  0.40180  0.30970  Biso   1.000  C
  N3       1.0000 0.23150  0.31230  0.31420  Biso   1.000  N
  N4       1.0000 0.21800  0.45150  0.27660  Biso   1.000  N
  C7       1.0000 0.20340  0.27950  0.28470  Biso   1.000  C
  C8       1.0000 0.18960  0.41010  0.24920  Biso   1.000  C
  C9       1.0000 0.19710  0.18010  0.28320  Biso   1.000  C
  N5       1.0000 0.18070  0.32370  0.25240  Biso   1.000  N
  C10      1.0000 0.16650  0.46170  0.21240  Biso   1.000  C
  C11      1.0000 0.21920  0.12200  0.31230  Biso   1.000  C
  C12      1.0000 0.16860  0.14470  0.25090  Biso   1.000  C
  C13      1.0000 0.17390  0.54930  0.20540  Biso   1.000  C
  C14      1.0000 0.13620  0.42000  0.18370  Biso   1.000  C
  C15      1.0000 0.21150  0.03300  0.30930  Biso   1.000  C
  H5       1.0000 0.23970  0.14390  0.33460  Biso   1.000  H
  C16      1.0000 0.16360  0.05290  0.24920  Biso   1.000  C
  H6       1.0000 0.15260  0.18220  0.22990  Biso   1.000  H
  C17      1.0000 0.15110  0.59350  0.16990  Biso   1.000  C
  H7       1.0000 0.19440  0.57950  0.22460  Biso   1.000  H
  C18      1.0000 0.11360  0.46960  0.15090  Biso   1.000  C
  H8       1.0000 0.13120  0.35830  0.18670  Biso   1.000  H
  N6       1.0000 0.18480  0.99840  0.27740  Biso   1.000  N
  H9       1.0000 0.22600  0.99430  0.33090  Biso   1.000  H
  H10      1.0000 0.14390  0.02850  0.22660  Biso   1.000  H
  N7       1.0000 0.12180  0.55470  0.14270  Biso   1.000  N
  H11      1.0000 0.15680  0.65420  0.16490  Biso   1.000  H
  H12      1.0000 0.09130  0.44260  0.13330  Biso   1.000  H
  Zn2      1.0000 0.17170  0.86050  0.26940  Biso   1.000  Zn
  Zn3      1.0000 0.08275  0.62515  0.09529  Biso   1.000  Zn
  N8       1.0000 0.13750  0.84470  0.31800  Biso   1.000  N
  I3       1.0000 0.12992  0.84010  0.19280  Biso   1.000  I
  I4       1.0000 0.23327  0.76630  0.29380  Biso   1.000  I
  I5       1.0000 0.02413  0.65350  0.13571  Biso   1.000  I
  I6       1.0000 0.11963  0.73530  0.05501  Biso   1.000  I
  N9       1.0000 0.06670  0.52080  0.05080  Biso   1.000  N
  C19      1.0000 0.14090  0.77540  0.34430  Biso   1.000  C
  C20      1.0000 0.11260  0.90450  0.32730  Biso   1.000  C
  C21      1.0000 0.11710  0.75670  0.37490  Biso   1.000  C
  H13      1.0000 0.16160  0.73480  0.34200  Biso   1.000  H
  C22      1.0000 0.08710  0.88800  0.35660  Biso   1.000  C
  H14      1.0000 0.11200  0.96120  0.31330  Biso   1.000  H
  C23      1.0000 0.08880  0.81150  0.37980  Biso   1.000  C
  H15      1.0000 0.12100  0.70410  0.39260  Biso   1.000  H
  H16      1.0000 0.06800  0.93140  0.36060  Biso   1.000  H
  C24      1.0000 0.06310  0.79640  0.41430  Biso   1.000  C
  N10      1.0000 0.07020  0.72220  0.43920  Biso   1.000  N
  N11      1.0000 0.03420  0.85430  0.41670  Biso   1.000  N
  C25      1.0000 0.04670  0.71080  0.47000  Biso   1.000  C
  C26      1.0000 0.01220  0.83460  0.44720  Biso   1.000  C
  C27      1.0000 0.05230  0.63030  0.49800  Biso   1.000  C
  N12      1.0000 0.01730  0.76570  0.47640  Biso   1.000  N
  C28      1.0000 0.97780  0.89380  0.44990  Biso   1.000  C
  C29      1.0000 0.08460  0.57540  0.49490  Biso   1.000  C
  C30      1.0000 0.02780  0.60640  0.52700  Biso   1.000  C
  C31      1.0000 0.95850  0.93270  0.41040  Biso   1.000  C
  C32      1.0000 0.96270  0.90650  0.48770  Biso   1.000  C
  C33      1.0000 0.08970  0.50230  0.52200  Biso   1.000  C
  H17      1.0000 0.10220  0.58860  0.47470  Biso   1.000  H
  H18      1.0000 0.00540  0.64170  0.52950  Biso   1.000  H
  C34      1.0000 0.03560  0.53180  0.55200  Biso   1.000  C
  C35      1.0000 0.92820  0.98860  0.41310  Biso   1.000  C
  H19      1.0000 0.96640  0.92040  0.38230  Biso   1.000  H
  C36      1.0000 0.93080  0.96310  0.48730  Biso   1.000  C
  H20      1.0000 0.97380  0.87680  0.51460  Biso   1.000  H
  H21      1.0000 0.11160  0.46500  0.52000  Biso   1.000  H
  H22      1.0000 0.01790  0.51590  0.57170  Biso   1.000  H
  H23      1.0000 0.91630  0.01820  0.38640  Biso   1.000  H
  H24      1.0000 0.92070  0.97240  0.51440  Biso   1.000  H
  I7       1.0000 0.38490  0.73040  0.41230  Biso   1.000  I
  I8       1.0000 0.34420  0.58350  0.52600  Biso   1.000  I
  Zn4      1.0000 0.67770  0.36720  0.27570  Biso   1.000  Zn
  I9       1.0000 0.73840  0.28510  0.30910  Biso   1.000  I
  I10      1.0000 0.63730  0.33780  0.19730  Biso   1.000  I
  I11      1.0000 0.53020  0.17400  0.12880  Biso   1.000  I
  I12      1.0000 0.63210  0.22050  0.05560  Biso   1.000  I
  I13      1.0000 0.38210  0.74320  0.42100  Biso   1.000  I
  I14      1.0000 0.34260  0.56000  0.52750  Biso   1.000  I
  I15      1.0000 0.89600  0.22350  0.39820  Biso   1.000  I
  Zn5      1.0000 0.86863  0.09477  0.44686  Biso   1.000  Zn
  N13      1.0000 0.91390  0.00480  0.45000  Biso   1.000  N
  I16      1.0000 0.84820  0.11240  0.51740  Biso   1.000  I
  N14      1.0000 0.82590  0.03200  0.40160  Biso   1.000  N
  C37      1.0000 0.80450  0.07570  0.36730  Biso   1.000  C
  C38      1.0000 0.81850  0.94650  0.40690  Biso   1.000  C
  C39      1.0000 0.77560  0.03520  0.33710  Biso   1.000  C
  H25      1.0000 0.80940  0.13730  0.36370  Biso   1.000  H
  C40      1.0000 0.79030  0.89940  0.37750  Biso   1.000  C
  H26      1.0000 0.83310  0.91590  0.43180  Biso   1.000  H
  C41      1.0000 0.76840  0.94480  0.34180  Biso   1.000  C
  H27      1.0000 0.76070  0.06850  0.31340  Biso   1.000  H
  H28      1.0000 0.78620  0.83770  0.38190  Biso   1.000  H
  C42      1.0000 0.73760  0.90180  0.30970  Biso   1.000  C
  N15      1.0000 0.73150  0.81230  0.31420  Biso   1.000  N
  N16      1.0000 0.71800  0.95150  0.27660  Biso   1.000  N
  C43      1.0000 0.70340  0.77950  0.28470  Biso   1.000  C
  C44      1.0000 0.68960  0.91010  0.24920  Biso   1.000  C
  C45      1.0000 0.69710  0.68010  0.28320  Biso   1.000  C
  N17      1.0000 0.68070  0.82370  0.25240  Biso   1.000  N
  C46      1.0000 0.66650  0.96170  0.21240  Biso   1.000  C
  C47      1.0000 0.71920  0.62200  0.31230  Biso   1.000  C
  C48      1.0000 0.66860  0.64470  0.25090  Biso   1.000  C
  C49      1.0000 0.67390  0.04930  0.20540  Biso   1.000  C
  C50      1.0000 0.63620  0.92000  0.18370  Biso   1.000  C
  C51      1.0000 0.71150  0.53300  0.30930  Biso   1.000  C
  H29      1.0000 0.73970  0.64390  0.33460  Biso   1.000  H
  C52      1.0000 0.66360  0.55290  0.24920  Biso   1.000  C
  H30      1.0000 0.65260  0.68220  0.22990  Biso   1.000  H
  C53      1.0000 0.65110  0.09350  0.16990  Biso   1.000  C
  H31      1.0000 0.69440  0.07950  0.22460  Biso   1.000  H
  C54      1.0000 0.61360  0.96960  0.15090  Biso   1.000  C
  H32      1.0000 0.63120  0.85830  0.18670  Biso   1.000  H
  N18      1.0000 0.68480  0.49840  0.27740  Biso   1.000  N
  H33      1.0000 0.72600  0.49430  0.33090  Biso   1.000  H
  H34      1.0000 0.64390  0.52850  0.22660  Biso   1.000  H
  N19      1.0000 0.62180  0.05470  0.14270  Biso   1.000  N
  H35      1.0000 0.65680  0.15420  0.16490  Biso   1.000  H
  H36      1.0000 0.59130  0.94260  0.13330  Biso   1.000  H
  Zn6      1.0000 0.67170  0.36050  0.26940  Biso   1.000  Zn
  Zn7      1.0000 0.58275  0.12515  0.09529  Biso   1.000  Zn
  N20      1.0000 0.63750  0.34470  0.31800  Biso   1.000  N
  I17      1.0000 0.62992  0.34010  0.19280  Biso   1.000  I
  I18      1.0000 0.73327  0.26630  0.29380  Biso   1.000  I
  I19      1.0000 0.52413  0.15350  0.13571  Biso   1.000  I
  I20      1.0000 0.61963  0.23530  0.05501  Biso   1.000  I
  N21      1.0000 0.56670  0.02080  0.05080  Biso   1.000  N
  C55      1.0000 0.64090  0.27540  0.34430  Biso   1.000  C
  C56      1.0000 0.61260  0.40450  0.32730  Biso   1.000  C
  C57      1.0000 0.61710  0.25670  0.37490  Biso   1.000  C
  H37      1.0000 0.66160  0.23480  0.34200  Biso   1.000  H
  C58      1.0000 0.58710  0.38800  0.35660  Biso   1.000  C
  H38      1.0000 0.61200  0.46120  0.31330  Biso   1.000  H
  C59      1.0000 0.58880  0.31150  0.37980  Biso   1.000  C
  H39      1.0000 0.62100  0.20410  0.39260  Biso   1.000  H
  H40      1.0000 0.56800  0.43140  0.36060  Biso   1.000  H
  C60      1.0000 0.56310  0.29640  0.41430  Biso   1.000  C
  N22      1.0000 0.57020  0.22220  0.43920  Biso   1.000  N
  N23      1.0000 0.53420  0.35430  0.41670  Biso   1.000  N
  C61      1.0000 0.54670  0.21080  0.47000  Biso   1.000  C
  C62      1.0000 0.51220  0.33460  0.44720  Biso   1.000  C
  C63      1.0000 0.55230  0.13030  0.49800  Biso   1.000  C
  N24      1.0000 0.51730  0.26570  0.47640  Biso   1.000  N
  C64      1.0000 0.47780  0.39380  0.44990  Biso   1.000  C
  C65      1.0000 0.58460  0.07540  0.49490  Biso   1.000  C
  C66      1.0000 0.52780  0.10640  0.52700  Biso   1.000  C
  C67      1.0000 0.45850  0.43270  0.41040  Biso   1.000  C
  C68      1.0000 0.46270  0.40650  0.48770  Biso   1.000  C
  C69      1.0000 0.58970  0.00230  0.52200  Biso   1.000  C
  H41      1.0000 0.60220  0.08860  0.47470  Biso   1.000  H
  H42      1.0000 0.50540  0.14170  0.52950  Biso   1.000  H
  C70      1.0000 0.53560  0.03180  0.55200  Biso   1.000  C
  C71      1.0000 0.42820  0.48860  0.41310  Biso   1.000  C
  H43      1.0000 0.46640  0.42040  0.38230  Biso   1.000  H
  C72      1.0000 0.43080  0.46310  0.48730  Biso   1.000  C
  H44      1.0000 0.47380  0.37680  0.51460  Biso   1.000  H
  H45      1.0000 0.61160  0.96500  0.52000  Biso   1.000  H
  H46      1.0000 0.51790  0.01590  0.57170  Biso   1.000  H
  H47      1.0000 0.41630  0.51820  0.38640  Biso   1.000  H
  H48      1.0000 0.42070  0.47240  0.51440  Biso   1.000  H
  I21      1.0000 0.88490  0.23040  0.41230  Biso   1.000  I
  I22      1.0000 0.84420  0.08350  0.52600  Biso   1.000  I
  Zn8      1.0000 0.17770  0.86720  0.27570  Biso   1.000  Zn
  I23      1.0000 0.23840  0.78510  0.30910  Biso   1.000  I
  I24      1.0000 0.13730  0.83780  0.19730  Biso   1.000  I
  I25      1.0000 0.03020  0.67400  0.12880  Biso   1.000  I
  I26      1.0000 0.13210  0.72050  0.05560  Biso   1.000  I
  I27      1.0000 0.88210  0.24320  0.42100  Biso   1.000  I
  I28      1.0000 0.84260  0.06000  0.52750  Biso   1.000  I
  I29      1.0000 0.39600  0.27650  0.89820  Biso   1.000  I
  Zn9      1.0000 0.36863  0.40523  0.94686  Biso   1.000  Zn
  N25      1.0000 0.41390  0.49520  0.95000  Biso   1.000  N
  I30      1.0000 0.34820  0.38760  0.01740  Biso   1.000  I
  N26      1.0000 0.32590  0.46800  0.90160  Biso   1.000  N
  C73      1.0000 0.30450  0.42430  0.86730  Biso   1.000  C
  C74      1.0000 0.31850  0.55350  0.90690  Biso   1.000  C
  C75      1.0000 0.27560  0.46480  0.83710  Biso   1.000  C
  H49      1.0000 0.30940  0.36270  0.86370  Biso   1.000  H
  C76      1.0000 0.29030  0.60060  0.87750  Biso   1.000  C
  H50      1.0000 0.33310  0.58410  0.93180  Biso   1.000  H
  C77      1.0000 0.26840  0.55520  0.84180  Biso   1.000  C
  H51      1.0000 0.26070  0.43150  0.81340  Biso   1.000  H
  H52      1.0000 0.28620  0.66230  0.88190  Biso   1.000  H
  C78      1.0000 0.23760  0.59820  0.80970  Biso   1.000  C
  N27      1.0000 0.23150  0.68770  0.81420  Biso   1.000  N
  N28      1.0000 0.21800  0.54850  0.77660  Biso   1.000  N
  C79      1.0000 0.20340  0.72050  0.78470  Biso   1.000  C
  C80      1.0000 0.18960  0.58990  0.74920  Biso   1.000  C
  C81      1.0000 0.19710  0.81990  0.78320  Biso   1.000  C
  N29      1.0000 0.18070  0.67630  0.75240  Biso   1.000  N
  C82      1.0000 0.16650  0.53830  0.71240  Biso   1.000  C
  C83      1.0000 0.21920  0.87800  0.81230  Biso   1.000  C
  C84      1.0000 0.16860  0.85530  0.75090  Biso   1.000  C
  C85      1.0000 0.17390  0.45070  0.70540  Biso   1.000  C
  C86      1.0000 0.13620  0.58000  0.68370  Biso   1.000  C
  C87      1.0000 0.21150  0.96700  0.80930  Biso   1.000  C
  H53      1.0000 0.23970  0.85610  0.83460  Biso   1.000  H
  C88      1.0000 0.16360  0.94710  0.74920  Biso   1.000  C
  H54      1.0000 0.15260  0.81780  0.72990  Biso   1.000  H
  C89      1.0000 0.15110  0.40650  0.66990  Biso   1.000  C
  H55      1.0000 0.19440  0.42050  0.72460  Biso   1.000  H
  C90      1.0000 0.11360  0.53040  0.65090  Biso   1.000  C
  H56      1.0000 0.13120  0.64170  0.68670  Biso   1.000  H
  N30      1.0000 0.18480  0.00160  0.77740  Biso   1.000  N
  H57      1.0000 0.22600  0.00570  0.83090  Biso   1.000  H
  H58      1.0000 0.14390  0.97150  0.72660  Biso   1.000  H
  N31      1.0000 0.12180  0.44530  0.64270  Biso   1.000  N
  H59      1.0000 0.15680  0.34580  0.66490  Biso   1.000  H
  H60      1.0000 0.09130  0.55740  0.63330  Biso   1.000  H
  Zn10     1.0000 0.17170  0.13950  0.76940  Biso   1.000  Zn
  Zn11     1.0000 0.08275  0.37485  0.59529  Biso   1.000  Zn
  N32      1.0000 0.13750  0.15530  0.81800  Biso   1.000  N
  I31      1.0000 0.12992  0.15990  0.69280  Biso   1.000  I
  I32      1.0000 0.23327  0.23370  0.79380  Biso   1.000  I
  I33      1.0000 0.02413  0.34650  0.63571  Biso   1.000  I
  I34      1.0000 0.11963  0.26470  0.55501  Biso   1.000  I
  N33      1.0000 0.06670  0.47920  0.55080  Biso   1.000  N
  C91      1.0000 0.14090  0.22460  0.84430  Biso   1.000  C
  C92      1.0000 0.11260  0.09550  0.82730  Biso   1.000  C
  C93      1.0000 0.11710  0.24330  0.87490  Biso   1.000  C
  H61      1.0000 0.16160  0.26520  0.84200  Biso   1.000  H
  C94      1.0000 0.08710  0.11200  0.85660  Biso   1.000  C
  H62      1.0000 0.11200  0.03880  0.81330  Biso   1.000  H
  C95      1.0000 0.08880  0.18850  0.87980  Biso   1.000  C
  H63      1.0000 0.12100  0.29590  0.89260  Biso   1.000  H
  H64      1.0000 0.06800  0.06860  0.86060  Biso   1.000  H
  C96      1.0000 0.06310  0.20360  0.91430  Biso   1.000  C
  N34      1.0000 0.07020  0.27780  0.93920  Biso   1.000  N
  N35      1.0000 0.03420  0.14570  0.91670  Biso   1.000  N
  C97      1.0000 0.04670  0.28920  0.97000  Biso   1.000  C
  C98      1.0000 0.01220  0.16540  0.94720  Biso   1.000  C
  C99      1.0000 0.05230  0.36970  0.99800  Biso   1.000  C
  N36      1.0000 0.01730  0.23430  0.97640  Biso   1.000  N
  C100     1.0000 0.97780  0.10620  0.94990  Biso   1.000  C
  C101     1.0000 0.08460  0.42460  0.99490  Biso   1.000  C
  C102     1.0000 0.02780  0.39360  0.02700  Biso   1.000  C
  C103     1.0000 0.95850  0.06730  0.91040  Biso   1.000  C
  C104     1.0000 0.96270  0.09350  0.98770  Biso   1.000  C
  C105     1.0000 0.08970  0.49770  0.02200  Biso   1.000  C
  H65      1.0000 0.10220  0.41140  0.97470  Biso   1.000  H
  H66      1.0000 0.00540  0.35830  0.02950  Biso   1.000  H
  C106     1.0000 0.03560  0.46820  0.05200  Biso   1.000  C
  C107     1.0000 0.92820  0.01140  0.91310  Biso   1.000  C
  H67      1.0000 0.96640  0.07960  0.88230  Biso   1.000  H
  C108     1.0000 0.93080  0.03690  0.98730  Biso   1.000  C
  H68      1.0000 0.97380  0.12320  0.01460  Biso   1.000  H
  H69      1.0000 0.11160  0.53500  0.02000  Biso   1.000  H
  H70      1.0000 0.01790  0.48410  0.07170  Biso   1.000  H
  H71      1.0000 0.91630  0.98180  0.88640  Biso   1.000  H
  H72      1.0000 0.92070  0.02760  0.01440  Biso   1.000  H
  I35      1.0000 0.38490  0.26960  0.91230  Biso   1.000  I
  I36      1.0000 0.34420  0.41650  0.02600  Biso   1.000  I
  Zn12     1.0000 0.67770  0.63280  0.77570  Biso   1.000  Zn
  I37      1.0000 0.73840  0.71490  0.80910  Biso   1.000  I
  I38      1.0000 0.63730  0.66220  0.69730  Biso   1.000  I
  I39      1.0000 0.53020  0.82600  0.62880  Biso   1.000  I
  I40      1.0000 0.63210  0.77950  0.55560  Biso   1.000  I
  I41      1.0000 0.38210  0.25680  0.92100  Biso   1.000  I
  I42      1.0000 0.34260  0.44000  0.02750  Biso   1.000  I
  I43      1.0000 0.89600  0.77650  0.89820  Biso   1.000  I
  Zn13     1.0000 0.86863  0.90523  0.94686  Biso   1.000  Zn
  N37      1.0000 0.91390  0.99520  0.95000  Biso   1.000  N
  I44      1.0000 0.84820  0.88760  0.01740  Biso   1.000  I
  N38      1.0000 0.82590  0.96800  0.90160  Biso   1.000  N
  C109     1.0000 0.80450  0.92430  0.86730  Biso   1.000  C
  C110     1.0000 0.81850  0.05350  0.90690  Biso   1.000  C
  C111     1.0000 0.77560  0.96480  0.83710  Biso   1.000  C
  H73      1.0000 0.80940  0.86270  0.86370  Biso   1.000  H
  C112     1.0000 0.79030  0.10060  0.87750  Biso   1.000  C
  H74      1.0000 0.83310  0.08410  0.93180  Biso   1.000  H
  C113     1.0000 0.76840  0.05520  0.84180  Biso   1.000  C
  H75      1.0000 0.76070  0.93150  0.81340  Biso   1.000  H
  H76      1.0000 0.78620  0.16230  0.88190  Biso   1.000  H
  C114     1.0000 0.73760  0.09820  0.80970  Biso   1.000  C
  N39      1.0000 0.73150  0.18770  0.81420  Biso   1.000  N
  N40      1.0000 0.71800  0.04850  0.77660  Biso   1.000  N
  C115     1.0000 0.70340  0.22050  0.78470  Biso   1.000  C
  C116     1.0000 0.68960  0.08990  0.74920  Biso   1.000  C
  C117     1.0000 0.69710  0.31990  0.78320  Biso   1.000  C
  N41      1.0000 0.68070  0.17630  0.75240  Biso   1.000  N
  C118     1.0000 0.66650  0.03830  0.71240  Biso   1.000  C
  C119     1.0000 0.71920  0.37800  0.81230  Biso   1.000  C
  C120     1.0000 0.66860  0.35530  0.75090  Biso   1.000  C
  C121     1.0000 0.67390  0.95070  0.70540  Biso   1.000  C
  C122     1.0000 0.63620  0.08000  0.68370  Biso   1.000  C
  C123     1.0000 0.71150  0.46700  0.80930  Biso   1.000  C
  H77      1.0000 0.73970  0.35610  0.83460  Biso   1.000  H
  C124     1.0000 0.66360  0.44710  0.74920  Biso   1.000  C
  H78      1.0000 0.65260  0.31780  0.72990  Biso   1.000  H
  C125     1.0000 0.65110  0.90650  0.66990  Biso   1.000  C
  H79      1.0000 0.69440  0.92050  0.72460  Biso   1.000  H
  C126     1.0000 0.61360  0.03040  0.65090  Biso   1.000  C
  H80      1.0000 0.63120  0.14170  0.68670  Biso   1.000  H
  N42      1.0000 0.68480  0.50160  0.77740  Biso   1.000  N
  H81      1.0000 0.72600  0.50570  0.83090  Biso   1.000  H
  H82      1.0000 0.64390  0.47150  0.72660  Biso   1.000  H
  N43      1.0000 0.62180  0.94530  0.64270  Biso   1.000  N
  H83      1.0000 0.65680  0.84580  0.66490  Biso   1.000  H
  H84      1.0000 0.59130  0.05740  0.63330  Biso   1.000  H
  Zn14     1.0000 0.67170  0.63950  0.76940  Biso   1.000  Zn
  Zn15     1.0000 0.58275  0.87485  0.59529  Biso   1.000  Zn
  N44      1.0000 0.63750  0.65530  0.81800  Biso   1.000  N
  I45      1.0000 0.62992  0.65990  0.69280  Biso   1.000  I
  I46      1.0000 0.73327  0.73370  0.79380  Biso   1.000  I
  I47      1.0000 0.52413  0.84650  0.63571  Biso   1.000  I
  I48      1.0000 0.61963  0.76470  0.55501  Biso   1.000  I
  N45      1.0000 0.56670  0.97920  0.55080  Biso   1.000  N
  C127     1.0000 0.64090  0.72460  0.84430  Biso   1.000  C
  C128     1.0000 0.61260  0.59550  0.82730  Biso   1.000  C
  C129     1.0000 0.61710  0.74330  0.87490  Biso   1.000  C
  H85      1.0000 0.66160  0.76520  0.84200  Biso   1.000  H
  C130     1.0000 0.58710  0.61200  0.85660  Biso   1.000  C
  H86      1.0000 0.61200  0.53880  0.81330  Biso   1.000  H
  C131     1.0000 0.58880  0.68850  0.87980  Biso   1.000  C
  H87      1.0000 0.62100  0.79590  0.89260  Biso   1.000  H
  H88      1.0000 0.56800  0.56860  0.86060  Biso   1.000  H
  C132     1.0000 0.56310  0.70360  0.91430  Biso   1.000  C
  N46      1.0000 0.57020  0.77780  0.93920  Biso   1.000  N
  N47      1.0000 0.53420  0.64570  0.91670  Biso   1.000  N
  C133     1.0000 0.54670  0.78920  0.97000  Biso   1.000  C
  C134     1.0000 0.51220  0.66540  0.94720  Biso   1.000  C
  C135     1.0000 0.55230  0.86970  0.99800  Biso   1.000  C
  N48      1.0000 0.51730  0.73430  0.97640  Biso   1.000  N
  C136     1.0000 0.47780  0.60620  0.94990  Biso   1.000  C
  C137     1.0000 0.58460  0.92460  0.99490  Biso   1.000  C
  C138     1.0000 0.52780  0.89360  0.02700  Biso   1.000  C
  C139     1.0000 0.45850  0.56730  0.91040  Biso   1.000  C
  C140     1.0000 0.46270  0.59350  0.98770  Biso   1.000  C
  C141     1.0000 0.58970  0.99770  0.02200  Biso   1.000  C
  H89      1.0000 0.60220  0.91140  0.97470  Biso   1.000  H
  H90      1.0000 0.50540  0.85830  0.02950  Biso   1.000  H
  C142     1.0000 0.53560  0.96820  0.05200  Biso   1.000  C
  C143     1.0000 0.42820  0.51140  0.91310  Biso   1.000  C
  H91      1.0000 0.46640  0.57960  0.88230  Biso   1.000  H
  C144     1.0000 0.43080  0.53690  0.98730  Biso   1.000  C
  H92      1.0000 0.47380  0.62320  0.01460  Biso   1.000  H
  H93      1.0000 0.61160  0.03500  0.02000  Biso   1.000  H
  H94      1.0000 0.51790  0.98410  0.07170  Biso   1.000  H
  H95      1.0000 0.41630  0.48180  0.88640  Biso   1.000  H
  H96      1.0000 0.42070  0.52760  0.01440  Biso   1.000  H
  I49      1.0000 0.88490  0.76960  0.91230  Biso   1.000  I
  I50      1.0000 0.84420  0.91650  0.02600  Biso   1.000  I
  Zn16     1.0000 0.17770  0.13280  0.77570  Biso   1.000  Zn
  I51      1.0000 0.23840  0.21490  0.80910  Biso   1.000  I
  I52      1.0000 0.13730  0.16220  0.69730  Biso   1.000  I
  I53      1.0000 0.03020  0.32600  0.62880  Biso   1.000  I
  I54      1.0000 0.13210  0.27950  0.55560  Biso   1.000  I
  I55      1.0000 0.88210  0.75680  0.92100  Biso   1.000  I
  I56      1.0000 0.84260  0.94000  0.02750  Biso   1.000  I
  I57      1.0000 0.60400  0.72350  0.10180  Biso   1.000  I
  Zn17     1.0000 0.63137  0.59477  0.05314  Biso   1.000  Zn
  N49      1.0000 0.58610  0.50480  0.05000  Biso   1.000  N
  I58      1.0000 0.65180  0.61240  0.98260  Biso   1.000  I
  N50      1.0000 0.67410  0.53200  0.09840  Biso   1.000  N
  C145     1.0000 0.69550  0.57570  0.13270  Biso   1.000  C
  C146     1.0000 0.68150  0.44650  0.09310  Biso   1.000  C
  C147     1.0000 0.72440  0.53520  0.16290  Biso   1.000  C
  H97      1.0000 0.69060  0.63730  0.13630  Biso   1.000  H
  C148     1.0000 0.70970  0.39940  0.12250  Biso   1.000  C
  H98      1.0000 0.66690  0.41590  0.06820  Biso   1.000  H
  C149     1.0000 0.73160  0.44480  0.15820  Biso   1.000  C
  H99      1.0000 0.73930  0.56850  0.18660  Biso   1.000  H
  H100     1.0000 0.71380  0.33770  0.11810  Biso   1.000  H
  C150     1.0000 0.76240  0.40180  0.19030  Biso   1.000  C
  N51      1.0000 0.76850  0.31230  0.18580  Biso   1.000  N
  N52      1.0000 0.78200  0.45150  0.22340  Biso   1.000  N
  C151     1.0000 0.79660  0.27950  0.21530  Biso   1.000  C
  C152     1.0000 0.81040  0.41010  0.25080  Biso   1.000  C
  C153     1.0000 0.80290  0.18010  0.21680  Biso   1.000  C
  N53      1.0000 0.81930  0.32370  0.24760  Biso   1.000  N
  C154     1.0000 0.83350  0.46170  0.28760  Biso   1.000  C
  C155     1.0000 0.78080  0.12200  0.18770  Biso   1.000  C
  C156     1.0000 0.83140  0.14470  0.24910  Biso   1.000  C
  C157     1.0000 0.82610  0.54930  0.29460  Biso   1.000  C
  C158     1.0000 0.86380  0.42000  0.31630  Biso   1.000  C
  C159     1.0000 0.78850  0.03300  0.19070  Biso   1.000  C
  H101     1.0000 0.76030  0.14390  0.16540  Biso   1.000  H
  C160     1.0000 0.83640  0.05290  0.25080  Biso   1.000  C
  H102     1.0000 0.84740  0.18220  0.27010  Biso   1.000  H
  C161     1.0000 0.84890  0.59350  0.33010  Biso   1.000  C
  H103     1.0000 0.80560  0.57950  0.27540  Biso   1.000  H
  C162     1.0000 0.88640  0.46960  0.34910  Biso   1.000  C
  H104     1.0000 0.86880  0.35830  0.31330  Biso   1.000  H
  N54      1.0000 0.81520  0.99840  0.22260  Biso   1.000  N
  H105     1.0000 0.77400  0.99430  0.16910  Biso   1.000  H
  H106     1.0000 0.85610  0.02850  0.27340  Biso   1.000  H
  N55      1.0000 0.87820  0.55470  0.35730  Biso   1.000  N
  H107     1.0000 0.84320  0.65420  0.33510  Biso   1.000  H
  H108     1.0000 0.90870  0.44260  0.36670  Biso   1.000  H
  Zn18     1.0000 0.82830  0.86050  0.23060  Biso   1.000  Zn
  Zn19     1.0000 0.91725  0.62515  0.40471  Biso   1.000  Zn
  N56      1.0000 0.86250  0.84470  0.18200  Biso   1.000  N
  I59      1.0000 0.87008  0.84010  0.30720  Biso   1.000  I
  I60      1.0000 0.76673  0.76630  0.20620  Biso   1.000  I
  I61      1.0000 0.97587  0.65350  0.36429  Biso   1.000  I
  I62      1.0000 0.88037  0.73530  0.44499  Biso   1.000  I
  N57      1.0000 0.93330  0.52080  0.44920  Biso   1.000  N
  C163     1.0000 0.85910  0.77540  0.15570  Biso   1.000  C
  C164     1.0000 0.88740  0.90450  0.17270  Biso   1.000  C
  C165     1.0000 0.88290  0.75670  0.12510  Biso   1.000  C
  H109     1.0000 0.83840  0.73480  0.15800  Biso   1.000  H
  C166     1.0000 0.91290  0.88800  0.14340  Biso   1.000  C
  H110     1.0000 0.88800  0.96120  0.18670  Biso   1.000  H
  C167     1.0000 0.91120  0.81150  0.12020  Biso   1.000  C
  H111     1.0000 0.87900  0.70410  0.10740  Biso   1.000  H
  H112     1.0000 0.93200  0.93140  0.13940  Biso   1.000  H
  C168     1.0000 0.93690  0.79640  0.08570  Biso   1.000  C
  N58      1.0000 0.92980  0.72220  0.06080  Biso   1.000  N
  N59      1.0000 0.96580  0.85430  0.08330  Biso   1.000  N
  C169     1.0000 0.95330  0.71080  0.03000  Biso   1.000  C
  C170     1.0000 0.98780  0.83460  0.05280  Biso   1.000  C
  C171     1.0000 0.94770  0.63030  0.00200  Biso   1.000  C
  N60      1.0000 0.98270  0.76570  0.02360  Biso   1.000  N
  C172     1.0000 0.02220  0.89380  0.05010  Biso   1.000  C
  C173     1.0000 0.91540  0.57540  0.00510  Biso   1.000  C
  C174     1.0000 0.97220  0.60640  0.97300  Biso   1.000  C
  C175     1.0000 0.04150  0.93270  0.08960  Biso   1.000  C
  C176     1.0000 0.03730  0.90650  0.01230  Biso   1.000  C
  C177     1.0000 0.91030  0.50230  0.97800  Biso   1.000  C
  H113     1.0000 0.89780  0.58860  0.02530  Biso   1.000  H
  H114     1.0000 0.99460  0.64170  0.97050  Biso   1.000  H
  C178     1.0000 0.96440  0.53180  0.94800  Biso   1.000  C
  C179     1.0000 0.07180  0.98860  0.08690  Biso   1.000  C
  H115     1.0000 0.03360  0.92040  0.11770  Biso   1.000  H
  C180     1.0000 0.06920  0.96310  0.01270  Biso   1.000  C
  H116     1.0000 0.02620  0.87680  0.98540  Biso   1.000  H
  H117     1.0000 0.88840  0.46500  0.98000  Biso   1.000  H
  H118     1.0000 0.98210  0.51590  0.92830  Biso   1.000  H
  H119     1.0000 0.08370  0.01820  0.11360  Biso   1.000  H
  H120     1.0000 0.07930  0.97240  0.98560  Biso   1.000  H
  I63      1.0000 0.61510  0.73040  0.08770  Biso   1.000  I
  I64      1.0000 0.65580  0.58350  0.97400  Biso   1.000  I
  Zn20     1.0000 0.32230  0.36720  0.22430  Biso   1.000  Zn
  I65      1.0000 0.26160  0.28510  0.19090  Biso   1.000  I
  I66      1.0000 0.36270  0.33780  0.30270  Biso   1.000  I
  I67      1.0000 0.46980  0.17400  0.37120  Biso   1.000  I
  I68      1.0000 0.36790  0.22050  0.44440  Biso   1.000  I
  I69      1.0000 0.61790  0.74320  0.07900  Biso   1.000  I
  I70      1.0000 0.65740  0.56000  0.97250  Biso   1.000  I
  I71      1.0000 0.10400  0.22350  0.10180  Biso   1.000  I
  Zn21     1.0000 0.13137  0.09477  0.05314  Biso   1.000  Zn
  N61      1.0000 0.08610  0.00480  0.05000  Biso   1.000  N
  I72      1.0000 0.15180  0.11240  0.98260  Biso   1.000  I
  N62      1.0000 0.17410  0.03200  0.09840  Biso   1.000  N
  C181     1.0000 0.19550  0.07570  0.13270  Biso   1.000  C
  C182     1.0000 0.18150  0.94650  0.09310  Biso   1.000  C
  C183     1.0000 0.22440  0.03520  0.16290  Biso   1.000  C
  H121     1.0000 0.19060  0.13730  0.13630  Biso   1.000  H
  C184     1.0000 0.20970  0.89940  0.12250  Biso   1.000  C
  H122     1.0000 0.16690  0.91590  0.06820  Biso   1.000  H
  C185     1.0000 0.23160  0.94480  0.15820  Biso   1.000  C
  H123     1.0000 0.23930  0.06850  0.18660  Biso   1.000  H
  H124     1.0000 0.21380  0.83770  0.11810  Biso   1.000  H
  C186     1.0000 0.26240  0.90180  0.19030  Biso   1.000  C
  N63      1.0000 0.26850  0.81230  0.18580  Biso   1.000  N
  N64      1.0000 0.28200  0.95150  0.22340  Biso   1.000  N
  C187     1.0000 0.29660  0.77950  0.21530  Biso   1.000  C
  C188     1.0000 0.31040  0.91010  0.25080  Biso   1.000  C
  C189     1.0000 0.30290  0.68010  0.21680  Biso   1.000  C
  N65      1.0000 0.31930  0.82370  0.24760  Biso   1.000  N
  C190     1.0000 0.33350  0.96170  0.28760  Biso   1.000  C
  C191     1.0000 0.28080  0.62200  0.18770  Biso   1.000  C
  C192     1.0000 0.33140  0.64470  0.24910  Biso   1.000  C
  C193     1.0000 0.32610  0.04930  0.29460  Biso   1.000  C
  C194     1.0000 0.36380  0.92000  0.31630  Biso   1.000  C
  C195     1.0000 0.28850  0.53300  0.19070  Biso   1.000  C
  H125     1.0000 0.26030  0.64390  0.16540  Biso   1.000  H
  C196     1.0000 0.33640  0.55290  0.25080  Biso   1.000  C
  H126     1.0000 0.34740  0.68220  0.27010  Biso   1.000  H
  C197     1.0000 0.34890  0.09350  0.33010  Biso   1.000  C
  H127     1.0000 0.30560  0.07950  0.27540  Biso   1.000  H
  C198     1.0000 0.38640  0.96960  0.34910  Biso   1.000  C
  H128     1.0000 0.36880  0.85830  0.31330  Biso   1.000  H
  N66      1.0000 0.31520  0.49840  0.22260  Biso   1.000  N
  H129     1.0000 0.27400  0.49430  0.16910  Biso   1.000  H
  H130     1.0000 0.35610  0.52850  0.27340  Biso   1.000  H
  N67      1.0000 0.37820  0.05470  0.35730  Biso   1.000  N
  H131     1.0000 0.34320  0.15420  0.33510  Biso   1.000  H
  H132     1.0000 0.40870  0.94260  0.36670  Biso   1.000  H
  Zn22     1.0000 0.32830  0.36050  0.23060  Biso   1.000  Zn
  Zn23     1.0000 0.41725  0.12515  0.40471  Biso   1.000  Zn
  N68      1.0000 0.36250  0.34470  0.18200  Biso   1.000  N
  I73      1.0000 0.37008  0.34010  0.30720  Biso   1.000  I
  I74      1.0000 0.26673  0.26630  0.20620  Biso   1.000  I
  I75      1.0000 0.47587  0.15350  0.36429  Biso   1.000  I
  I76      1.0000 0.38037  0.23530  0.44499  Biso   1.000  I
  N69      1.0000 0.43330  0.02080  0.44920  Biso   1.000  N
  C199     1.0000 0.35910  0.27540  0.15570  Biso   1.000  C
  C200     1.0000 0.38740  0.40450  0.17270  Biso   1.000  C
  C201     1.0000 0.38290  0.25670  0.12510  Biso   1.000  C
  H133     1.0000 0.33840  0.23480  0.15800  Biso   1.000  H
  C202     1.0000 0.41290  0.38800  0.14340  Biso   1.000  C
  H134     1.0000 0.38800  0.46120  0.18670  Biso   1.000  H
  C203     1.0000 0.41120  0.31150  0.12020  Biso   1.000  C
  H135     1.0000 0.37900  0.20410  0.10740  Biso   1.000  H
  H136     1.0000 0.43200  0.43140  0.13940  Biso   1.000  H
  C204     1.0000 0.43690  0.29640  0.08570  Biso   1.000  C
  N70      1.0000 0.42980  0.22220  0.06080  Biso   1.000  N
  N71      1.0000 0.46580  0.35430  0.08330  Biso   1.000  N
  C205     1.0000 0.45330  0.21080  0.03000  Biso   1.000  C
  C206     1.0000 0.48780  0.33460  0.05280  Biso   1.000  C
  C207     1.0000 0.44770  0.13030  0.00200  Biso   1.000  C
  N72      1.0000 0.48270  0.26570  0.02360  Biso   1.000  N
  C208     1.0000 0.52220  0.39380  0.05010  Biso   1.000  C
  C209     1.0000 0.41540  0.07540  0.00510  Biso   1.000  C
  C210     1.0000 0.47220  0.10640  0.97300  Biso   1.000  C
  C211     1.0000 0.54150  0.43270  0.08960  Biso   1.000  C
  C212     1.0000 0.53730  0.40650  0.01230  Biso   1.000  C
  C213     1.0000 0.41030  0.00230  0.97800  Biso   1.000  C
  H137     1.0000 0.39780  0.08860  0.02530  Biso   1.000  H
  H138     1.0000 0.49460  0.14170  0.97050  Biso   1.000  H
  C214     1.0000 0.46440  0.03180  0.94800  Biso   1.000  C
  C215     1.0000 0.57180  0.48860  0.08690  Biso   1.000  C
  H139     1.0000 0.53360  0.42040  0.11770  Biso   1.000  H
  C216     1.0000 0.56920  0.46310  0.01270  Biso   1.000  C
  H140     1.0000 0.52620  0.37680  0.98540  Biso   1.000  H
  H141     1.0000 0.38840  0.96500  0.98000  Biso   1.000  H
  H142     1.0000 0.48210  0.01590  0.92830  Biso   1.000  H
  H143     1.0000 0.58370  0.51820  0.11360  Biso   1.000  H
  H144     1.0000 0.57930  0.47240  0.98560  Biso   1.000  H
  I77      1.0000 0.11510  0.23040  0.08770  Biso   1.000  I
  I78      1.0000 0.15580  0.08350  0.97400  Biso   1.000  I
  Zn24     1.0000 0.82230  0.86720  0.22430  Biso   1.000  Zn
  I79      1.0000 0.76160  0.78510  0.19090  Biso   1.000  I
  I80      1.0000 0.86270  0.83780  0.30270  Biso   1.000  I
  I81      1.0000 0.96980  0.67400  0.37120  Biso   1.000  I
  I82      1.0000 0.86790  0.72050  0.44440  Biso   1.000  I
  I83      1.0000 0.11790  0.24320  0.07900  Biso   1.000  I
  I84      1.0000 0.15740  0.06000  0.97250  Biso   1.000  I
  I85      1.0000 0.60400  0.27650  0.60180  Biso   1.000  I
  Zn25     1.0000 0.63137  0.40523  0.55314  Biso   1.000  Zn
  N73      1.0000 0.58610  0.49520  0.55000  Biso   1.000  N
  I86      1.0000 0.65180  0.38760  0.48260  Biso   1.000  I
  N74      1.0000 0.67410  0.46800  0.59840  Biso   1.000  N
  C217     1.0000 0.69550  0.42430  0.63270  Biso   1.000  C
  C218     1.0000 0.68150  0.55350  0.59310  Biso   1.000  C
  C219     1.0000 0.72440  0.46480  0.66290  Biso   1.000  C
  H145     1.0000 0.69060  0.36270  0.63630  Biso   1.000  H
  C220     1.0000 0.70970  0.60060  0.62250  Biso   1.000  C
  H146     1.0000 0.66690  0.58410  0.56820  Biso   1.000  H
  C221     1.0000 0.73160  0.55520  0.65820  Biso   1.000  C
  H147     1.0000 0.73930  0.43150  0.68660  Biso   1.000  H
  H148     1.0000 0.71380  0.66230  0.61810  Biso   1.000  H
  C222     1.0000 0.76240  0.59820  0.69030  Biso   1.000  C
  N75      1.0000 0.76850  0.68770  0.68580  Biso   1.000  N
  N76      1.0000 0.78200  0.54850  0.72340  Biso   1.000  N
  C223     1.0000 0.79660  0.72050  0.71530  Biso   1.000  C
  C224     1.0000 0.81040  0.58990  0.75080  Biso   1.000  C
  C225     1.0000 0.80290  0.81990  0.71680  Biso   1.000  C
  N77      1.0000 0.81930  0.67630  0.74760  Biso   1.000  N
  C226     1.0000 0.83350  0.53830  0.78760  Biso   1.000  C
  C227     1.0000 0.78080  0.87800  0.68770  Biso   1.000  C
  C228     1.0000 0.83140  0.85530  0.74910  Biso   1.000  C
  C229     1.0000 0.82610  0.45070  0.79460  Biso   1.000  C
  C230     1.0000 0.86380  0.58000  0.81630  Biso   1.000  C
  C231     1.0000 0.78850  0.96700  0.69070  Biso   1.000  C
  H149     1.0000 0.76030  0.85610  0.66540  Biso   1.000  H
  C232     1.0000 0.83640  0.94710  0.75080  Biso   1.000  C
  H150     1.0000 0.84740  0.81780  0.77010  Biso   1.000  H
  C233     1.0000 0.84890  0.40650  0.83010  Biso   1.000  C
  H151     1.0000 0.80560  0.42050  0.77540  Biso   1.000  H
  C234     1.0000 0.88640  0.53040  0.84910  Biso   1.000  C
  H152     1.0000 0.86880  0.64170  0.81330  Biso   1.000  H
  N78      1.0000 0.81520  0.00160  0.72260  Biso   1.000  N
  H153     1.0000 0.77400  0.00570  0.66910  Biso   1.000  H
  H154     1.0000 0.85610  0.97150  0.77340  Biso   1.000  H
  N79      1.0000 0.87820  0.44530  0.85730  Biso   1.000  N
  H155     1.0000 0.84320  0.34580  0.83510  Biso   1.000  H
  H156     1.0000 0.90870  0.55740  0.86670  Biso   1.000  H
  Zn26     1.0000 0.82830  0.13950  0.73060  Biso   1.000  Zn
  Zn27     1.0000 0.91725  0.37485  0.90471  Biso   1.000  Zn
  N80      1.0000 0.86250  0.15530  0.68200  Biso   1.000  N
  I87      1.0000 0.87008  0.15990  0.80720  Biso   1.000  I
  I88      1.0000 0.76673  0.23370  0.70620  Biso   1.000  I
  I89      1.0000 0.97587  0.34650  0.86429  Biso   1.000  I
  I90      1.0000 0.88037  0.26470  0.94499  Biso   1.000  I
  N81      1.0000 0.93330  0.47920  0.94920  Biso   1.000  N
  C235     1.0000 0.85910  0.22460  0.65570  Biso   1.000  C
  C236     1.0000 0.88740  0.09550  0.67270  Biso   1.000  C
  C237     1.0000 0.88290  0.24330  0.62510  Biso   1.000  C
  H157     1.0000 0.83840  0.26520  0.65800  Biso   1.000  H
  C238     1.0000 0.91290  0.11200  0.64340  Biso   1.000  C
  H158     1.0000 0.88800  0.03880  0.68670  Biso   1.000  H
  C239     1.0000 0.91120  0.18850  0.62020  Biso   1.000  C
  H159     1.0000 0.87900  0.29590  0.60740  Biso   1.000  H
  H160     1.0000 0.93200  0.06860  0.63940  Biso   1.000  H
  C240     1.0000 0.93690  0.20360  0.58570  Biso   1.000  C
  N82      1.0000 0.92980  0.27780  0.56080  Biso   1.000  N
  N83      1.0000 0.96580  0.14570  0.58330  Biso   1.000  N
  C241     1.0000 0.95330  0.28920  0.53000  Biso   1.000  C
  C242     1.0000 0.98780  0.16540  0.55280  Biso   1.000  C
  C243     1.0000 0.94770  0.36970  0.50200  Biso   1.000  C
  N84      1.0000 0.98270  0.23430  0.52360  Biso   1.000  N
  C244     1.0000 0.02220  0.10620  0.55010  Biso   1.000  C
  C245     1.0000 0.91540  0.42460  0.50510  Biso   1.000  C
  C246     1.0000 0.97220  0.39360  0.47300  Biso   1.000  C
  C247     1.0000 0.04150  0.06730  0.58960  Biso   1.000  C
  C248     1.0000 0.03730  0.09350  0.51230  Biso   1.000  C
  C249     1.0000 0.91030  0.49770  0.47800  Biso   1.000  C
  H161     1.0000 0.89780  0.41140  0.52530  Biso   1.000  H
  H162     1.0000 0.99460  0.35830  0.47050  Biso   1.000  H
  C250     1.0000 0.96440  0.46820  0.44800  Biso   1.000  C
  C251     1.0000 0.07180  0.01140  0.58690  Biso   1.000  C
  H163     1.0000 0.03360  0.07960  0.61770  Biso   1.000  H
  C252     1.0000 0.06920  0.03690  0.51270  Biso   1.000  C
  H164     1.0000 0.02620  0.12320  0.48540  Biso   1.000  H
  H165     1.0000 0.88840  0.53500  0.48000  Biso   1.000  H
  H166     1.0000 0.98210  0.48410  0.42830  Biso   1.000  H
  H167     1.0000 0.08370  0.98180  0.61360  Biso   1.000  H
  H168     1.0000 0.07930  0.02760  0.48560  Biso   1.000  H
  I91      1.0000 0.61510  0.26960  0.58770  Biso   1.000  I
  I92      1.0000 0.65580  0.41650  0.47400  Biso   1.000  I
  Zn28     1.0000 0.32230  0.63280  0.72430  Biso   1.000  Zn
  I93      1.0000 0.26160  0.71490  0.69090  Biso   1.000  I
  I94      1.0000 0.36270  0.66220  0.80270  Biso   1.000  I
  I95      1.0000 0.46980  0.82600  0.87120  Biso   1.000  I
  I96      1.0000 0.36790  0.77950  0.94440  Biso   1.000  I
  I97      1.0000 0.61790  0.25680  0.57900  Biso   1.000  I
  I98      1.0000 0.65740  0.44000  0.47250  Biso   1.000  I
  I99      1.0000 0.10400  0.77650  0.60180  Biso   1.000  I
  Zn29     1.0000 0.13137  0.90523  0.55314  Biso   1.000  Zn
  N85      1.0000 0.08610  0.99520  0.55000  Biso   1.000  N
  I100     1.0000 0.15180  0.88760  0.48260  Biso   1.000  I
  N86      1.0000 0.17410  0.96800  0.59840  Biso   1.000  N
  C253     1.0000 0.19550  0.92430  0.63270  Biso   1.000  C
  C254     1.0000 0.18150  0.05350  0.59310  Biso   1.000  C
  C255     1.0000 0.22440  0.96480  0.66290  Biso   1.000  C
  H169     1.0000 0.19060  0.86270  0.63630  Biso   1.000  H
  C256     1.0000 0.20970  0.10060  0.62250  Biso   1.000  C
  H170     1.0000 0.16690  0.08410  0.56820  Biso   1.000  H
  C257     1.0000 0.23160  0.05520  0.65820  Biso   1.000  C
  H171     1.0000 0.23930  0.93150  0.68660  Biso   1.000  H
  H172     1.0000 0.21380  0.16230  0.61810  Biso   1.000  H
  C258     1.0000 0.26240  0.09820  0.69030  Biso   1.000  C
  N87      1.0000 0.26850  0.18770  0.68580  Biso   1.000  N
  N88      1.0000 0.28200  0.04850  0.72340  Biso   1.000  N
  C259     1.0000 0.29660  0.22050  0.71530  Biso   1.000  C
  C260     1.0000 0.31040  0.08990  0.75080  Biso   1.000  C
  C261     1.0000 0.30290  0.31990  0.71680  Biso   1.000  C
  N89      1.0000 0.31930  0.17630  0.74760  Biso   1.000  N
  C262     1.0000 0.33350  0.03830  0.78760  Biso   1.000  C
  C263     1.0000 0.28080  0.37800  0.68770  Biso   1.000  C
  C264     1.0000 0.33140  0.35530  0.74910  Biso   1.000  C
  C265     1.0000 0.32610  0.95070  0.79460  Biso   1.000  C
  C266     1.0000 0.36380  0.08000  0.81630  Biso   1.000  C
  C267     1.0000 0.28850  0.46700  0.69070  Biso   1.000  C
  H173     1.0000 0.26030  0.35610  0.66540  Biso   1.000  H
  C268     1.0000 0.33640  0.44710  0.75080  Biso   1.000  C
  H174     1.0000 0.34740  0.31780  0.77010  Biso   1.000  H
  C269     1.0000 0.34890  0.90650  0.83010  Biso   1.000  C
  H175     1.0000 0.30560  0.92050  0.77540  Biso   1.000  H
  C270     1.0000 0.38640  0.03040  0.84910  Biso   1.000  C
  H176     1.0000 0.36880  0.14170  0.81330  Biso   1.000  H
  N90      1.0000 0.31520  0.50160  0.72260  Biso   1.000  N
  H177     1.0000 0.27400  0.50570  0.66910  Biso   1.000  H
  H178     1.0000 0.35610  0.47150  0.77340  Biso   1.000  H
  N91      1.0000 0.37820  0.94530  0.85730  Biso   1.000  N
  H179     1.0000 0.34320  0.84580  0.83510  Biso   1.000  H
  H180     1.0000 0.40870  0.05740  0.86670  Biso   1.000  H
  Zn30     1.0000 0.32830  0.63950  0.73060  Biso   1.000  Zn
  Zn31     1.0000 0.41725  0.87485  0.90471  Biso   1.000  Zn
  N92      1.0000 0.36250  0.65530  0.68200  Biso   1.000  N
  I101     1.0000 0.37008  0.65990  0.80720  Biso   1.000  I
  I102     1.0000 0.26673  0.73370  0.70620  Biso   1.000  I
  I103     1.0000 0.47587  0.84650  0.86429  Biso   1.000  I
  I104     1.0000 0.38037  0.76470  0.94499  Biso   1.000  I
  N93      1.0000 0.43330  0.97920  0.94920  Biso   1.000  N
  C271     1.0000 0.35910  0.72460  0.65570  Biso   1.000  C
  C272     1.0000 0.38740  0.59550  0.67270  Biso   1.000  C
  C273     1.0000 0.38290  0.74330  0.62510  Biso   1.000  C
  H181     1.0000 0.33840  0.76520  0.65800  Biso   1.000  H
  C274     1.0000 0.41290  0.61200  0.64340  Biso   1.000  C
  H182     1.0000 0.38800  0.53880  0.68670  Biso   1.000  H
  C275     1.0000 0.41120  0.68850  0.62020  Biso   1.000  C
  H183     1.0000 0.37900  0.79590  0.60740  Biso   1.000  H
  H184     1.0000 0.43200  0.56860  0.63940  Biso   1.000  H
  C276     1.0000 0.43690  0.70360  0.58570  Biso   1.000  C
  N94      1.0000 0.42980  0.77780  0.56080  Biso   1.000  N
  N95      1.0000 0.46580  0.64570  0.58330  Biso   1.000  N
  C277     1.0000 0.45330  0.78920  0.53000  Biso   1.000  C
  C278     1.0000 0.48780  0.66540  0.55280  Biso   1.000  C
  C279     1.0000 0.44770  0.86970  0.50200  Biso   1.000  C
  N96      1.0000 0.48270  0.73430  0.52360  Biso   1.000  N
  C280     1.0000 0.52220  0.60620  0.55010  Biso   1.000  C
  C281     1.0000 0.41540  0.92460  0.50510  Biso   1.000  C
  C282     1.0000 0.47220  0.89360  0.47300  Biso   1.000  C
  C283     1.0000 0.54150  0.56730  0.58960  Biso   1.000  C
  C284     1.0000 0.53730  0.59350  0.51230  Biso   1.000  C
  C285     1.0000 0.41030  0.99770  0.47800  Biso   1.000  C
  H185     1.0000 0.39780  0.91140  0.52530  Biso   1.000  H
  H186     1.0000 0.49460  0.85830  0.47050  Biso   1.000  H
  C286     1.0000 0.46440  0.96820  0.44800  Biso   1.000  C
  C287     1.0000 0.57180  0.51140  0.58690  Biso   1.000  C
  H187     1.0000 0.53360  0.57960  0.61770  Biso   1.000  H
  C288     1.0000 0.56920  0.53690  0.51270  Biso   1.000  C
  H188     1.0000 0.52620  0.62320  0.48540  Biso   1.000  H
  H189     1.0000 0.38840  0.03500  0.48000  Biso   1.000  H
  H190     1.0000 0.48210  0.98410  0.42830  Biso   1.000  H
  H191     1.0000 0.58370  0.48180  0.61360  Biso   1.000  H
  H192     1.0000 0.57930  0.52760  0.48560  Biso   1.000  H
  I105     1.0000 0.11510  0.76960  0.58770  Biso   1.000  I
  I106     1.0000 0.15580  0.91650  0.47400  Biso   1.000  I
  Zn32     1.0000 0.82230  0.13280  0.72430  Biso   1.000  Zn
  I107     1.0000 0.76160  0.21490  0.69090  Biso   1.000  I
  I108     1.0000 0.86270  0.16220  0.80270  Biso   1.000  I
  I109     1.0000 0.96980  0.32600  0.87120  Biso   1.000  I
  I110     1.0000 0.86790  0.27950  0.94440  Biso   1.000  I
  I111     1.0000 0.11790  0.75680  0.57900  Biso   1.000  I
  I112     1.0000 0.15740  0.94000  0.47250  Biso   1.000  I
