data_image0
_cell_length_a       35.1288
_cell_length_b       14.767
_cell_length_c       30.8649
_cell_angle_alpha    90
_cell_angle_beta     101.432
_cell_angle_gamma    90

_symmetry_space_group_name_H-M    "P 1"
_symmetry_int_tables_number       1

loop_
  _symmetry_equiv_pos_as_xyz
  'x, y, z'

loop_
  _atom_site_label
  _atom_site_occupancy
  _atom_site_fract_x
  _atom_site_fract_y
  _atom_site_fract_z
  _atom_site_thermal_displace_type
  _atom_site_B_iso_or_equiv
  _atom_site_type_symbol
  Zn1      1.0000 0.91529  0.62492  0.90519  Biso   1.000  Zn
  Zn2      1.0000 0.82622  0.85392  0.72962  Biso   1.000  Zn
  N1       1.0000 0.87747  0.55690  0.85568  Biso   1.000  N
  C1       1.0000 0.84519  0.59310  0.83268  Biso   1.000  C
  H1       1.0000 0.83750  0.65140  0.84060  Biso   1.000  H
  C2       1.0000 0.82225  0.54830  0.79724  Biso   1.000  C
  H2       1.0000 0.79960  0.57600  0.78070  Biso   1.000  H
  C3       1.0000 0.83333  0.46170  0.78667  Biso   1.000  C
  C4       1.0000 0.86661  0.42440  0.81100  Biso   1.000  C
  H3       1.0000 0.87450  0.36510  0.80470  Biso   1.000  H
  C5       1.0000 0.88824  0.47460  0.84450  Biso   1.000  C
  H4       1.0000 0.91190  0.44980  0.86050  Biso   1.000  H
  N2       1.0000 0.66720  0.53400  0.60619  Biso   1.000  N
  C6       1.0000 0.67796  0.45020  0.59691  Biso   1.000  C
  H5       1.0000 0.66460  0.42190  0.57060  Biso   1.000  H
  C7       1.0000 0.70761  0.40300  0.62384  Biso   1.000  C
  H6       1.0000 0.71430  0.34340  0.61640  Biso   1.000  H
  C8       1.0000 0.72731  0.44480  0.66187  Biso   1.000  C
  C9       1.0000 0.71604  0.53160  0.67136  Biso   1.000  C
  H7       1.0000 0.72910  0.56190  0.69730  Biso   1.000  H
  C10      1.0000 0.68593  0.57370  0.64310  Biso   1.000  C
  H8       1.0000 0.67830  0.63270  0.65010  Biso   1.000  H
  N3       1.0000 0.81542  0.99170  0.72085  Biso   1.000  N
  C11      1.0000 0.78484  0.02560  0.69311  Biso   1.000  C
  H9       1.0000 0.76700  0.98510  0.67580  Biso   1.000  H
  C12      1.0000 0.77810  0.11780  0.68858  Biso   1.000  C
  H10      1.0000 0.75630  0.14000  0.66800  Biso   1.000  H
  C13      1.0000 0.80333  0.17690  0.71422  Biso   1.000  C
  C14      1.0000 0.83572  0.14190  0.74210  Biso   1.000  C
  H11      1.0000 0.85420  0.18100  0.75940  Biso   1.000  H
  C15      1.0000 0.84081  0.04980  0.74450  Biso   1.000  C
  H12      1.0000 0.86320  0.02610  0.76360  Biso   1.000  H
  C16      1.0000 0.80953  0.40910  0.75026  Biso   1.000  C
  N4       1.0000 0.77924  0.45010  0.72487  Biso   1.000  N
  C17      1.0000 0.75977  0.39930  0.69253  Biso   1.000  C
  N5       1.0000 0.76642  0.31100  0.68550  Biso   1.000  N
  C18      1.0000 0.79591  0.27650  0.71446  Biso   1.000  C
  N6       1.0000 0.81971  0.32320  0.74585  Biso   1.000  N
  N7       1.0000 0.57774  0.51090  0.55958  Biso   1.000  N
  C19      1.0000 0.56260  0.49960  0.59500  Biso   1.000  C
  H13      1.0000 0.57360  0.53180  0.62120  Biso   1.000  H
  C20      1.0000 0.53170  0.44370  0.59600  Biso   1.000  C
  H14      1.0000 0.52210  0.43690  0.62240  Biso   1.000  H
  C21      1.0000 0.51468  0.39730  0.55819  Biso   1.000  C
  C22      1.0000 0.53133  0.40470  0.52190  Biso   1.000  C
  H15      1.0000 0.52160  0.37050  0.49600  Biso   1.000  H
  C23      1.0000 0.56279  0.46320  0.52350  Biso   1.000  C
  H16      1.0000 0.57390  0.46930  0.49800  Biso   1.000  H
  N8       1.0000 0.35994  0.33290  0.68324  Biso   1.000  N
  C24      1.0000 0.39350  0.37560  0.68680  Biso   1.000  C
  H17      1.0000 0.40110  0.41570  0.71100  Biso   1.000  H
  C25      1.0000 0.41790  0.36530  0.65750  Biso   1.000  C
  H18      1.0000 0.44140  0.39910  0.66090  Biso   1.000  H
  C26      1.0000 0.40780  0.30490  0.62270  Biso   1.000  C
  C27      1.0000 0.37237  0.26060  0.61863  Biso   1.000  C
  H19      1.0000 0.36410  0.21910  0.59510  Biso   1.000  H
  C28      1.0000 0.34934  0.27730  0.64890  Biso   1.000  C
  H20      1.0000 0.32480  0.24790  0.64530  Biso   1.000  H
  N9       1.0000 0.42801  0.98330  0.44826  Biso   1.000  N
  C29      1.0000 0.40112  0.01040  0.47100  Biso   1.000  C
  H21      1.0000 0.37760  0.97680  0.46770  Biso   1.000  H
  C30      1.0000 0.40588  0.08410  0.49870  Biso   1.000  C
  H22      1.0000 0.38620  0.10130  0.51420  Biso   1.000  H
  C31      1.0000 0.44043  0.13310  0.50349  Biso   1.000  C
  C32      1.0000 0.46786  0.10640  0.47963  Biso   1.000  C
  H23      1.0000 0.49130  0.13960  0.48190  Biso   1.000  H
  C33      1.0000 0.46104  0.03170  0.45263  Biso   1.000  C
  H24      1.0000 0.48020  0.01360  0.43660  Biso   1.000  H
  C34      1.0000 0.48144  0.33590  0.55871  Biso   1.000  C
  N10      1.0000 0.46100  0.35040  0.58979  Biso   1.000  N
  C35      1.0000 0.43236  0.29150  0.58974  Biso   1.000  C
  N11      1.0000 0.42458  0.22000  0.56312  Biso   1.000  N
  C36      1.0000 0.44667  0.21320  0.53315  Biso   1.000  C
  N12      1.0000 0.47502  0.27070  0.52839  Biso   1.000  N
  Zn3      1.0000 0.62234  0.60180  0.56550  Biso   1.000  Zn
  I1       1.0000 0.64360  0.60175  0.49200  Biso   1.000  I
  I2       1.0000 0.60365  0.73957  0.60575  Biso   1.000  I
  I3       1.0000 0.76604  0.76080  0.70590  Biso   1.000  I
  I4       1.0000 0.87093  0.83780  0.80544  Biso   1.000  I
  I5       1.0000 0.87310  0.73010  0.94175  Biso   1.000  I
  I6       1.0000 0.97260  0.65940  0.87234  Biso   1.000  I
  I7       1.0000 0.88129  0.74370  0.94217  Biso   1.000  I
  I8       1.0000 0.97499  0.64860  0.86883  Biso   1.000  I
  Zn4      1.0000 0.62690  0.59140  0.55650  Biso   1.000  Zn
  I9       1.0000 0.64641  0.58040  0.48170  Biso   1.000  I
  I10      1.0000 0.61320  0.74198  0.59150  Biso   1.000  I
  I11      1.0000 0.75950  0.77120  0.70290  Biso   1.000  I
  I12      1.0000 0.86540  0.83540  0.80690  Biso   1.000  I
  Zn5      1.0000 0.41529  0.12492  0.90519  Biso   1.000  Zn
  Zn6      1.0000 0.32622  0.35392  0.72962  Biso   1.000  Zn
  N13      1.0000 0.37747  0.05690  0.85568  Biso   1.000  N
  C37      1.0000 0.34519  0.09310  0.83268  Biso   1.000  C
  H25      1.0000 0.33750  0.15140  0.84060  Biso   1.000  H
  C38      1.0000 0.32225  0.04830  0.79724  Biso   1.000  C
  H26      1.0000 0.29960  0.07600  0.78070  Biso   1.000  H
  C39      1.0000 0.33333  0.96170  0.78667  Biso   1.000  C
  C40      1.0000 0.36661  0.92440  0.81100  Biso   1.000  C
  H27      1.0000 0.37450  0.86510  0.80470  Biso   1.000  H
  C41      1.0000 0.38824  0.97460  0.84450  Biso   1.000  C
  H28      1.0000 0.41190  0.94980  0.86050  Biso   1.000  H
  N14      1.0000 0.16720  0.03400  0.60619  Biso   1.000  N
  C42      1.0000 0.17796  0.95020  0.59691  Biso   1.000  C
  H29      1.0000 0.16460  0.92190  0.57060  Biso   1.000  H
  C43      1.0000 0.20761  0.90300  0.62384  Biso   1.000  C
  H30      1.0000 0.21430  0.84340  0.61640  Biso   1.000  H
  C44      1.0000 0.22731  0.94480  0.66187  Biso   1.000  C
  C45      1.0000 0.21604  0.03160  0.67136  Biso   1.000  C
  H31      1.0000 0.22910  0.06190  0.69730  Biso   1.000  H
  C46      1.0000 0.18593  0.07370  0.64310  Biso   1.000  C
  H32      1.0000 0.17830  0.13270  0.65010  Biso   1.000  H
  N15      1.0000 0.31542  0.49170  0.72085  Biso   1.000  N
  C47      1.0000 0.28484  0.52560  0.69311  Biso   1.000  C
  H33      1.0000 0.26700  0.48510  0.67580  Biso   1.000  H
  C48      1.0000 0.27810  0.61780  0.68858  Biso   1.000  C
  H34      1.0000 0.25630  0.64000  0.66800  Biso   1.000  H
  C49      1.0000 0.30333  0.67690  0.71422  Biso   1.000  C
  C50      1.0000 0.33572  0.64190  0.74210  Biso   1.000  C
  H35      1.0000 0.35420  0.68100  0.75940  Biso   1.000  H
  C51      1.0000 0.34081  0.54980  0.74450  Biso   1.000  C
  H36      1.0000 0.36320  0.52610  0.76360  Biso   1.000  H
  C52      1.0000 0.30953  0.90910  0.75026  Biso   1.000  C
  N16      1.0000 0.27924  0.95010  0.72487  Biso   1.000  N
  C53      1.0000 0.25977  0.89930  0.69253  Biso   1.000  C
  N17      1.0000 0.26642  0.81100  0.68550  Biso   1.000  N
  C54      1.0000 0.29591  0.77650  0.71446  Biso   1.000  C
  N18      1.0000 0.31971  0.82320  0.74585  Biso   1.000  N
  N19      1.0000 0.07774  0.01090  0.55958  Biso   1.000  N
  C55      1.0000 0.06260  0.99960  0.59500  Biso   1.000  C
  H37      1.0000 0.07360  0.03180  0.62120  Biso   1.000  H
  C56      1.0000 0.03170  0.94370  0.59600  Biso   1.000  C
  H38      1.0000 0.02210  0.93690  0.62240  Biso   1.000  H
  C57      1.0000 0.01468  0.89730  0.55819  Biso   1.000  C
  C58      1.0000 0.03133  0.90470  0.52190  Biso   1.000  C
  H39      1.0000 0.02160  0.87050  0.49600  Biso   1.000  H
  C59      1.0000 0.06279  0.96320  0.52350  Biso   1.000  C
  H40      1.0000 0.07390  0.96930  0.49800  Biso   1.000  H
  N20      1.0000 0.85994  0.83290  0.68324  Biso   1.000  N
  C60      1.0000 0.89350  0.87560  0.68680  Biso   1.000  C
  H41      1.0000 0.90110  0.91570  0.71100  Biso   1.000  H
  C61      1.0000 0.91790  0.86530  0.65750  Biso   1.000  C
  H42      1.0000 0.94140  0.89910  0.66090  Biso   1.000  H
  C62      1.0000 0.90780  0.80490  0.62270  Biso   1.000  C
  C63      1.0000 0.87237  0.76060  0.61863  Biso   1.000  C
  H43      1.0000 0.86410  0.71910  0.59510  Biso   1.000  H
  C64      1.0000 0.84934  0.77730  0.64890  Biso   1.000  C
  H44      1.0000 0.82480  0.74790  0.64530  Biso   1.000  H
  N21      1.0000 0.92801  0.48330  0.44826  Biso   1.000  N
  C65      1.0000 0.90112  0.51040  0.47100  Biso   1.000  C
  H45      1.0000 0.87760  0.47680  0.46770  Biso   1.000  H
  C66      1.0000 0.90588  0.58410  0.49870  Biso   1.000  C
  H46      1.0000 0.88620  0.60130  0.51420  Biso   1.000  H
  C67      1.0000 0.94043  0.63310  0.50349  Biso   1.000  C
  C68      1.0000 0.96786  0.60640  0.47963  Biso   1.000  C
  H47      1.0000 0.99130  0.63960  0.48190  Biso   1.000  H
  C69      1.0000 0.96104  0.53170  0.45263  Biso   1.000  C
  H48      1.0000 0.98020  0.51360  0.43660  Biso   1.000  H
  C70      1.0000 0.98144  0.83590  0.55871  Biso   1.000  C
  N22      1.0000 0.96100  0.85040  0.58979  Biso   1.000  N
  C71      1.0000 0.93236  0.79150  0.58974  Biso   1.000  C
  N23      1.0000 0.92458  0.72000  0.56312  Biso   1.000  N
  C72      1.0000 0.94667  0.71320  0.53315  Biso   1.000  C
  N24      1.0000 0.97502  0.77070  0.52839  Biso   1.000  N
  Zn7      1.0000 0.12234  0.10180  0.56550  Biso   1.000  Zn
  I13      1.0000 0.14360  0.10175  0.49200  Biso   1.000  I
  I14      1.0000 0.10365  0.23957  0.60575  Biso   1.000  I
  I15      1.0000 0.26604  0.26080  0.70590  Biso   1.000  I
  I16      1.0000 0.37093  0.33780  0.80544  Biso   1.000  I
  I17      1.0000 0.37310  0.23010  0.94175  Biso   1.000  I
  I18      1.0000 0.47260  0.15940  0.87234  Biso   1.000  I
  I19      1.0000 0.38129  0.24370  0.94217  Biso   1.000  I
  I20      1.0000 0.47499  0.14860  0.86883  Biso   1.000  I
  Zn8      1.0000 0.12690  0.09140  0.55650  Biso   1.000  Zn
  I21      1.0000 0.14641  0.08040  0.48170  Biso   1.000  I
  I22      1.0000 0.11320  0.24198  0.59150  Biso   1.000  I
  I23      1.0000 0.25950  0.27120  0.70290  Biso   1.000  I
  I24      1.0000 0.36540  0.33540  0.80690  Biso   1.000  I
  Zn9      1.0000 0.91529  0.37508  0.40519  Biso   1.000  Zn
  Zn10     1.0000 0.82622  0.14608  0.22962  Biso   1.000  Zn
  N25      1.0000 0.87747  0.44310  0.35568  Biso   1.000  N
  C73      1.0000 0.84519  0.40690  0.33268  Biso   1.000  C
  H49      1.0000 0.83750  0.34860  0.34060  Biso   1.000  H
  C74      1.0000 0.82225  0.45170  0.29724  Biso   1.000  C
  H50      1.0000 0.79960  0.42400  0.28070  Biso   1.000  H
  C75      1.0000 0.83333  0.53830  0.28667  Biso   1.000  C
  C76      1.0000 0.86661  0.57560  0.31100  Biso   1.000  C
  H51      1.0000 0.87450  0.63490  0.30470  Biso   1.000  H
  C77      1.0000 0.88824  0.52540  0.34450  Biso   1.000  C
  H52      1.0000 0.91190  0.55020  0.36050  Biso   1.000  H
  N26      1.0000 0.66720  0.46600  0.10619  Biso   1.000  N
  C78      1.0000 0.67796  0.54980  0.09691  Biso   1.000  C
  H53      1.0000 0.66460  0.57810  0.07060  Biso   1.000  H
  C79      1.0000 0.70761  0.59700  0.12384  Biso   1.000  C
  H54      1.0000 0.71430  0.65660  0.11640  Biso   1.000  H
  C80      1.0000 0.72731  0.55520  0.16187  Biso   1.000  C
  C81      1.0000 0.71604  0.46840  0.17136  Biso   1.000  C
  H55      1.0000 0.72910  0.43810  0.19730  Biso   1.000  H
  C82      1.0000 0.68593  0.42630  0.14310  Biso   1.000  C
  H56      1.0000 0.67830  0.36730  0.15010  Biso   1.000  H
  N27      1.0000 0.81542  0.00830  0.22085  Biso   1.000  N
  C83      1.0000 0.78484  0.97440  0.19311  Biso   1.000  C
  H57      1.0000 0.76700  0.01490  0.17580  Biso   1.000  H
  C84      1.0000 0.77810  0.88220  0.18858  Biso   1.000  C
  H58      1.0000 0.75630  0.86000  0.16800  Biso   1.000  H
  C85      1.0000 0.80333  0.82310  0.21422  Biso   1.000  C
  C86      1.0000 0.83572  0.85810  0.24210  Biso   1.000  C
  H59      1.0000 0.85420  0.81900  0.25940  Biso   1.000  H
  C87      1.0000 0.84081  0.95020  0.24450  Biso   1.000  C
  H60      1.0000 0.86320  0.97390  0.26360  Biso   1.000  H
  C88      1.0000 0.80953  0.59090  0.25026  Biso   1.000  C
  N28      1.0000 0.77924  0.54990  0.22487  Biso   1.000  N
  C89      1.0000 0.75977  0.60070  0.19253  Biso   1.000  C
  N29      1.0000 0.76642  0.68900  0.18550  Biso   1.000  N
  C90      1.0000 0.79591  0.72350  0.21446  Biso   1.000  C
  N30      1.0000 0.81971  0.67680  0.24585  Biso   1.000  N
  N31      1.0000 0.57774  0.48910  0.05958  Biso   1.000  N
  C91      1.0000 0.56260  0.50040  0.09500  Biso   1.000  C
  H61      1.0000 0.57360  0.46820  0.12120  Biso   1.000  H
  C92      1.0000 0.53170  0.55630  0.09600  Biso   1.000  C
  H62      1.0000 0.52210  0.56310  0.12240  Biso   1.000  H
  C93      1.0000 0.51468  0.60270  0.05819  Biso   1.000  C
  C94      1.0000 0.53133  0.59530  0.02190  Biso   1.000  C
  H63      1.0000 0.52160  0.62950  0.99600  Biso   1.000  H
  C95      1.0000 0.56279  0.53680  0.02350  Biso   1.000  C
  H64      1.0000 0.57390  0.53070  0.99800  Biso   1.000  H
  N32      1.0000 0.35994  0.66710  0.18324  Biso   1.000  N
  C96      1.0000 0.39350  0.62440  0.18680  Biso   1.000  C
  H65      1.0000 0.40110  0.58430  0.21100  Biso   1.000  H
  C97      1.0000 0.41790  0.63470  0.15750  Biso   1.000  C
  H66      1.0000 0.44140  0.60090  0.16090  Biso   1.000  H
  C98      1.0000 0.40780  0.69510  0.12270  Biso   1.000  C
  C99      1.0000 0.37237  0.73940  0.11863  Biso   1.000  C
  H67      1.0000 0.36410  0.78090  0.09510  Biso   1.000  H
  C100     1.0000 0.34934  0.72270  0.14890  Biso   1.000  C
  H68      1.0000 0.32480  0.75210  0.14530  Biso   1.000  H
  N33      1.0000 0.42801  0.01670  0.94826  Biso   1.000  N
  C101     1.0000 0.40112  0.98960  0.97100  Biso   1.000  C
  H69      1.0000 0.37760  0.02320  0.96770  Biso   1.000  H
  C102     1.0000 0.40588  0.91590  0.99870  Biso   1.000  C
  H70      1.0000 0.38620  0.89870  0.01420  Biso   1.000  H
  C103     1.0000 0.44043  0.86690  0.00349  Biso   1.000  C
  C104     1.0000 0.46786  0.89360  0.97963  Biso   1.000  C
  H71      1.0000 0.49130  0.86040  0.98190  Biso   1.000  H
  C105     1.0000 0.46104  0.96830  0.95263  Biso   1.000  C
  H72      1.0000 0.48020  0.98640  0.93660  Biso   1.000  H
  C106     1.0000 0.48144  0.66410  0.05871  Biso   1.000  C
  N34      1.0000 0.46100  0.64960  0.08979  Biso   1.000  N
  C107     1.0000 0.43236  0.70850  0.08974  Biso   1.000  C
  N35      1.0000 0.42458  0.78000  0.06312  Biso   1.000  N
  C108     1.0000 0.44667  0.78680  0.03315  Biso   1.000  C
  N36      1.0000 0.47502  0.72930  0.02839  Biso   1.000  N
  Zn11     1.0000 0.62234  0.39820  0.06550  Biso   1.000  Zn
  I25      1.0000 0.64360  0.39825  0.99200  Biso   1.000  I
  I26      1.0000 0.60365  0.26043  0.10575  Biso   1.000  I
  I27      1.0000 0.76604  0.23920  0.20590  Biso   1.000  I
  I28      1.0000 0.87093  0.16220  0.30544  Biso   1.000  I
  I29      1.0000 0.87310  0.26990  0.44175  Biso   1.000  I
  I30      1.0000 0.97260  0.34060  0.37234  Biso   1.000  I
  I31      1.0000 0.88129  0.25630  0.44217  Biso   1.000  I
  I32      1.0000 0.97499  0.35140  0.36883  Biso   1.000  I
  Zn12     1.0000 0.62690  0.40860  0.05650  Biso   1.000  Zn
  I33      1.0000 0.64641  0.41960  0.98170  Biso   1.000  I
  I34      1.0000 0.61320  0.25802  0.09150  Biso   1.000  I
  I35      1.0000 0.75950  0.22880  0.20290  Biso   1.000  I
  I36      1.0000 0.86540  0.16460  0.30690  Biso   1.000  I
  Zn13     1.0000 0.41529  0.87508  0.40519  Biso   1.000  Zn
  Zn14     1.0000 0.32622  0.64608  0.22962  Biso   1.000  Zn
  N37      1.0000 0.37747  0.94310  0.35568  Biso   1.000  N
  C109     1.0000 0.34519  0.90690  0.33268  Biso   1.000  C
  H73      1.0000 0.33750  0.84860  0.34060  Biso   1.000  H
  C110     1.0000 0.32225  0.95170  0.29724  Biso   1.000  C
  H74      1.0000 0.29960  0.92400  0.28070  Biso   1.000  H
  C111     1.0000 0.33333  0.03830  0.28667  Biso   1.000  C
  C112     1.0000 0.36661  0.07560  0.31100  Biso   1.000  C
  H75      1.0000 0.37450  0.13490  0.30470  Biso   1.000  H
  C113     1.0000 0.38824  0.02540  0.34450  Biso   1.000  C
  H76      1.0000 0.41190  0.05020  0.36050  Biso   1.000  H
  N38      1.0000 0.16720  0.96600  0.10619  Biso   1.000  N
  C114     1.0000 0.17796  0.04980  0.09691  Biso   1.000  C
  H77      1.0000 0.16460  0.07810  0.07060  Biso   1.000  H
  C115     1.0000 0.20761  0.09700  0.12384  Biso   1.000  C
  H78      1.0000 0.21430  0.15660  0.11640  Biso   1.000  H
  C116     1.0000 0.22731  0.05520  0.16187  Biso   1.000  C
  C117     1.0000 0.21604  0.96840  0.17136  Biso   1.000  C
  H79      1.0000 0.22910  0.93810  0.19730  Biso   1.000  H
  C118     1.0000 0.18593  0.92630  0.14310  Biso   1.000  C
  H80      1.0000 0.17830  0.86730  0.15010  Biso   1.000  H
  N39      1.0000 0.31542  0.50830  0.22085  Biso   1.000  N
  C119     1.0000 0.28484  0.47440  0.19311  Biso   1.000  C
  H81      1.0000 0.26700  0.51490  0.17580  Biso   1.000  H
  C120     1.0000 0.27810  0.38220  0.18858  Biso   1.000  C
  H82      1.0000 0.25630  0.36000  0.16800  Biso   1.000  H
  C121     1.0000 0.30333  0.32310  0.21422  Biso   1.000  C
  C122     1.0000 0.33572  0.35810  0.24210  Biso   1.000  C
  H83      1.0000 0.35420  0.31900  0.25940  Biso   1.000  H
  C123     1.0000 0.34081  0.45020  0.24450  Biso   1.000  C
  H84      1.0000 0.36320  0.47390  0.26360  Biso   1.000  H
  C124     1.0000 0.30953  0.09090  0.25026  Biso   1.000  C
  N40      1.0000 0.27924  0.04990  0.22487  Biso   1.000  N
  C125     1.0000 0.25977  0.10070  0.19253  Biso   1.000  C
  N41      1.0000 0.26642  0.18900  0.18550  Biso   1.000  N
  C126     1.0000 0.29591  0.22350  0.21446  Biso   1.000  C
  N42      1.0000 0.31971  0.17680  0.24585  Biso   1.000  N
  N43      1.0000 0.07774  0.98910  0.05958  Biso   1.000  N
  C127     1.0000 0.06260  0.00040  0.09500  Biso   1.000  C
  H85      1.0000 0.07360  0.96820  0.12120  Biso   1.000  H
  C128     1.0000 0.03170  0.05630  0.09600  Biso   1.000  C
  H86      1.0000 0.02210  0.06310  0.12240  Biso   1.000  H
  C129     1.0000 0.01468  0.10270  0.05819  Biso   1.000  C
  C130     1.0000 0.03133  0.09530  0.02190  Biso   1.000  C
  H87      1.0000 0.02160  0.12950  0.99600  Biso   1.000  H
  C131     1.0000 0.06279  0.03680  0.02350  Biso   1.000  C
  H88      1.0000 0.07390  0.03070  0.99800  Biso   1.000  H
  N44      1.0000 0.85994  0.16710  0.18324  Biso   1.000  N
  C132     1.0000 0.89350  0.12440  0.18680  Biso   1.000  C
  H89      1.0000 0.90110  0.08430  0.21100  Biso   1.000  H
  C133     1.0000 0.91790  0.13470  0.15750  Biso   1.000  C
  H90      1.0000 0.94140  0.10090  0.16090  Biso   1.000  H
  C134     1.0000 0.90780  0.19510  0.12270  Biso   1.000  C
  C135     1.0000 0.87237  0.23940  0.11863  Biso   1.000  C
  H91      1.0000 0.86410  0.28090  0.09510  Biso   1.000  H
  C136     1.0000 0.84934  0.22270  0.14890  Biso   1.000  C
  H92      1.0000 0.82480  0.25210  0.14530  Biso   1.000  H
  N45      1.0000 0.92801  0.51670  0.94826  Biso   1.000  N
  C137     1.0000 0.90112  0.48960  0.97100  Biso   1.000  C
  H93      1.0000 0.87760  0.52320  0.96770  Biso   1.000  H
  C138     1.0000 0.90588  0.41590  0.99870  Biso   1.000  C
  H94      1.0000 0.88620  0.39870  0.01420  Biso   1.000  H
  C139     1.0000 0.94043  0.36690  0.00349  Biso   1.000  C
  C140     1.0000 0.96786  0.39360  0.97963  Biso   1.000  C
  H95      1.0000 0.99130  0.36040  0.98190  Biso   1.000  H
  C141     1.0000 0.96104  0.46830  0.95263  Biso   1.000  C
  H96      1.0000 0.98020  0.48640  0.93660  Biso   1.000  H
  C142     1.0000 0.98144  0.16410  0.05871  Biso   1.000  C
  N46      1.0000 0.96100  0.14960  0.08979  Biso   1.000  N
  C143     1.0000 0.93236  0.20850  0.08974  Biso   1.000  C
  N47      1.0000 0.92458  0.28000  0.06312  Biso   1.000  N
  C144     1.0000 0.94667  0.28680  0.03315  Biso   1.000  C
  N48      1.0000 0.97502  0.22930  0.02839  Biso   1.000  N
  Zn15     1.0000 0.12234  0.89820  0.06550  Biso   1.000  Zn
  I37      1.0000 0.14360  0.89825  0.99200  Biso   1.000  I
  I38      1.0000 0.10365  0.76043  0.10575  Biso   1.000  I
  I39      1.0000 0.26604  0.73920  0.20590  Biso   1.000  I
  I40      1.0000 0.37093  0.66220  0.30544  Biso   1.000  I
  I41      1.0000 0.37310  0.76990  0.44175  Biso   1.000  I
  I42      1.0000 0.47260  0.84060  0.37234  Biso   1.000  I
  I43      1.0000 0.38129  0.75630  0.44217  Biso   1.000  I
  I44      1.0000 0.47499  0.85140  0.36883  Biso   1.000  I
  Zn16     1.0000 0.12690  0.90860  0.05650  Biso   1.000  Zn
  I45      1.0000 0.14641  0.91960  0.98170  Biso   1.000  I
  I46      1.0000 0.11320  0.75802  0.09150  Biso   1.000  I
  I47      1.0000 0.25950  0.72880  0.20290  Biso   1.000  I
  I48      1.0000 0.36540  0.66460  0.30690  Biso   1.000  I
  Zn17     1.0000 0.08471  0.62492  0.59481  Biso   1.000  Zn
  Zn18     1.0000 0.17378  0.85392  0.77038  Biso   1.000  Zn
  N49      1.0000 0.12253  0.55690  0.64432  Biso   1.000  N
  C145     1.0000 0.15481  0.59310  0.66732  Biso   1.000  C
  H97      1.0000 0.16250  0.65140  0.65940  Biso   1.000  H
  C146     1.0000 0.17775  0.54830  0.70276  Biso   1.000  C
  H98      1.0000 0.20040  0.57600  0.71930  Biso   1.000  H
  C147     1.0000 0.16667  0.46170  0.71333  Biso   1.000  C
  C148     1.0000 0.13339  0.42440  0.68900  Biso   1.000  C
  H99      1.0000 0.12550  0.36510  0.69530  Biso   1.000  H
  C149     1.0000 0.11176  0.47460  0.65550  Biso   1.000  C
  H100     1.0000 0.08810  0.44980  0.63950  Biso   1.000  H
  N50      1.0000 0.33280  0.53400  0.89381  Biso   1.000  N
  C150     1.0000 0.32204  0.45020  0.90309  Biso   1.000  C
  H101     1.0000 0.33540  0.42190  0.92940  Biso   1.000  H
  C151     1.0000 0.29239  0.40300  0.87616  Biso   1.000  C
  H102     1.0000 0.28570  0.34340  0.88360  Biso   1.000  H
  C152     1.0000 0.27269  0.44480  0.83813  Biso   1.000  C
  C153     1.0000 0.28396  0.53160  0.82864  Biso   1.000  C
  H103     1.0000 0.27090  0.56190  0.80270  Biso   1.000  H
  C154     1.0000 0.31407  0.57370  0.85690  Biso   1.000  C
  H104     1.0000 0.32170  0.63270  0.84990  Biso   1.000  H
  N51      1.0000 0.18458  0.99170  0.77915  Biso   1.000  N
  C155     1.0000 0.21516  0.02560  0.80689  Biso   1.000  C
  H105     1.0000 0.23300  0.98510  0.82420  Biso   1.000  H
  C156     1.0000 0.22190  0.11780  0.81142  Biso   1.000  C
  H106     1.0000 0.24370  0.14000  0.83200  Biso   1.000  H
  C157     1.0000 0.19667  0.17690  0.78578  Biso   1.000  C
  C158     1.0000 0.16428  0.14190  0.75790  Biso   1.000  C
  H107     1.0000 0.14580  0.18100  0.74060  Biso   1.000  H
  C159     1.0000 0.15919  0.04980  0.75550  Biso   1.000  C
  H108     1.0000 0.13680  0.02610  0.73640  Biso   1.000  H
  C160     1.0000 0.19047  0.40910  0.74974  Biso   1.000  C
  N52      1.0000 0.22076  0.45010  0.77513  Biso   1.000  N
  C161     1.0000 0.24023  0.39930  0.80747  Biso   1.000  C
  N53      1.0000 0.23358  0.31100  0.81450  Biso   1.000  N
  C162     1.0000 0.20409  0.27650  0.78554  Biso   1.000  C
  N54      1.0000 0.18029  0.32320  0.75415  Biso   1.000  N
  N55      1.0000 0.42226  0.51090  0.94042  Biso   1.000  N
  C163     1.0000 0.43740  0.49960  0.90500  Biso   1.000  C
  H109     1.0000 0.42640  0.53180  0.87880  Biso   1.000  H
  C164     1.0000 0.46830  0.44370  0.90400  Biso   1.000  C
  H110     1.0000 0.47790  0.43690  0.87760  Biso   1.000  H
  C165     1.0000 0.48532  0.39730  0.94181  Biso   1.000  C
  C166     1.0000 0.46867  0.40470  0.97810  Biso   1.000  C
  H111     1.0000 0.47840  0.37050  0.00400  Biso   1.000  H
  C167     1.0000 0.43721  0.46320  0.97650  Biso   1.000  C
  H112     1.0000 0.42610  0.46930  0.00200  Biso   1.000  H
  N56      1.0000 0.64006  0.33290  0.81676  Biso   1.000  N
  C168     1.0000 0.60650  0.37560  0.81320  Biso   1.000  C
  H113     1.0000 0.59890  0.41570  0.78900  Biso   1.000  H
  C169     1.0000 0.58210  0.36530  0.84250  Biso   1.000  C
  H114     1.0000 0.55860  0.39910  0.83910  Biso   1.000  H
  C170     1.0000 0.59220  0.30490  0.87730  Biso   1.000  C
  C171     1.0000 0.62763  0.26060  0.88137  Biso   1.000  C
  H115     1.0000 0.63590  0.21910  0.90490  Biso   1.000  H
  C172     1.0000 0.65066  0.27730  0.85110  Biso   1.000  C
  H116     1.0000 0.67520  0.24790  0.85470  Biso   1.000  H
  N57      1.0000 0.57199  0.98330  0.05174  Biso   1.000  N
  C173     1.0000 0.59888  0.01040  0.02900  Biso   1.000  C
  H117     1.0000 0.62240  0.97680  0.03230  Biso   1.000  H
  C174     1.0000 0.59412  0.08410  0.00130  Biso   1.000  C
  H118     1.0000 0.61380  0.10130  0.98580  Biso   1.000  H
  C175     1.0000 0.55957  0.13310  0.99651  Biso   1.000  C
  C176     1.0000 0.53214  0.10640  0.02037  Biso   1.000  C
  H119     1.0000 0.50870  0.13960  0.01810  Biso   1.000  H
  C177     1.0000 0.53896  0.03170  0.04737  Biso   1.000  C
  H120     1.0000 0.51980  0.01360  0.06340  Biso   1.000  H
  C178     1.0000 0.51856  0.33590  0.94129  Biso   1.000  C
  N58      1.0000 0.53900  0.35040  0.91021  Biso   1.000  N
  C179     1.0000 0.56764  0.29150  0.91026  Biso   1.000  C
  N59      1.0000 0.57542  0.22000  0.93688  Biso   1.000  N
  C180     1.0000 0.55333  0.21320  0.96685  Biso   1.000  C
  N60      1.0000 0.52498  0.27070  0.97161  Biso   1.000  N
  Zn19     1.0000 0.37766  0.60180  0.93450  Biso   1.000  Zn
  I49      1.0000 0.35640  0.60175  0.00800  Biso   1.000  I
  I50      1.0000 0.39635  0.73957  0.89425  Biso   1.000  I
  I51      1.0000 0.23396  0.76080  0.79410  Biso   1.000  I
  I52      1.0000 0.12907  0.83780  0.69456  Biso   1.000  I
  I53      1.0000 0.12690  0.73010  0.55825  Biso   1.000  I
  I54      1.0000 0.02740  0.65940  0.62766  Biso   1.000  I
  I55      1.0000 0.11871  0.74370  0.55783  Biso   1.000  I
  I56      1.0000 0.02501  0.64860  0.63117  Biso   1.000  I
  Zn20     1.0000 0.37310  0.59140  0.94350  Biso   1.000  Zn
  I57      1.0000 0.35359  0.58040  0.01830  Biso   1.000  I
  I58      1.0000 0.38680  0.74198  0.90850  Biso   1.000  I
  I59      1.0000 0.24050  0.77120  0.79710  Biso   1.000  I
  I60      1.0000 0.13460  0.83540  0.69310  Biso   1.000  I
  Zn21     1.0000 0.58471  0.12492  0.59481  Biso   1.000  Zn
  Zn22     1.0000 0.67378  0.35392  0.77038  Biso   1.000  Zn
  N61      1.0000 0.62253  0.05690  0.64432  Biso   1.000  N
  C181     1.0000 0.65481  0.09310  0.66732  Biso   1.000  C
  H121     1.0000 0.66250  0.15140  0.65940  Biso   1.000  H
  C182     1.0000 0.67775  0.04830  0.70276  Biso   1.000  C
  H122     1.0000 0.70040  0.07600  0.71930  Biso   1.000  H
  C183     1.0000 0.66667  0.96170  0.71333  Biso   1.000  C
  C184     1.0000 0.63339  0.92440  0.68900  Biso   1.000  C
  H123     1.0000 0.62550  0.86510  0.69530  Biso   1.000  H
  C185     1.0000 0.61176  0.97460  0.65550  Biso   1.000  C
  H124     1.0000 0.58810  0.94980  0.63950  Biso   1.000  H
  N62      1.0000 0.83280  0.03400  0.89381  Biso   1.000  N
  C186     1.0000 0.82204  0.95020  0.90309  Biso   1.000  C
  H125     1.0000 0.83540  0.92190  0.92940  Biso   1.000  H
  C187     1.0000 0.79239  0.90300  0.87616  Biso   1.000  C
  H126     1.0000 0.78570  0.84340  0.88360  Biso   1.000  H
  C188     1.0000 0.77269  0.94480  0.83813  Biso   1.000  C
  C189     1.0000 0.78396  0.03160  0.82864  Biso   1.000  C
  H127     1.0000 0.77090  0.06190  0.80270  Biso   1.000  H
  C190     1.0000 0.81407  0.07370  0.85690  Biso   1.000  C
  H128     1.0000 0.82170  0.13270  0.84990  Biso   1.000  H
  N63      1.0000 0.68458  0.49170  0.77915  Biso   1.000  N
  C191     1.0000 0.71516  0.52560  0.80689  Biso   1.000  C
  H129     1.0000 0.73300  0.48510  0.82420  Biso   1.000  H
  C192     1.0000 0.72190  0.61780  0.81142  Biso   1.000  C
  H130     1.0000 0.74370  0.64000  0.83200  Biso   1.000  H
  C193     1.0000 0.69667  0.67690  0.78578  Biso   1.000  C
  C194     1.0000 0.66428  0.64190  0.75790  Biso   1.000  C
  H131     1.0000 0.64580  0.68100  0.74060  Biso   1.000  H
  C195     1.0000 0.65919  0.54980  0.75550  Biso   1.000  C
  H132     1.0000 0.63680  0.52610  0.73640  Biso   1.000  H
  C196     1.0000 0.69047  0.90910  0.74974  Biso   1.000  C
  N64      1.0000 0.72076  0.95010  0.77513  Biso   1.000  N
  C197     1.0000 0.74023  0.89930  0.80747  Biso   1.000  C
  N65      1.0000 0.73358  0.81100  0.81450  Biso   1.000  N
  C198     1.0000 0.70409  0.77650  0.78554  Biso   1.000  C
  N66      1.0000 0.68029  0.82320  0.75415  Biso   1.000  N
  N67      1.0000 0.92226  0.01090  0.94042  Biso   1.000  N
  C199     1.0000 0.93740  0.99960  0.90500  Biso   1.000  C
  H133     1.0000 0.92640  0.03180  0.87880  Biso   1.000  H
  C200     1.0000 0.96830  0.94370  0.90400  Biso   1.000  C
  H134     1.0000 0.97790  0.93690  0.87760  Biso   1.000  H
  C201     1.0000 0.98532  0.89730  0.94181  Biso   1.000  C
  C202     1.0000 0.96867  0.90470  0.97810  Biso   1.000  C
  H135     1.0000 0.97840  0.87050  0.00400  Biso   1.000  H
  C203     1.0000 0.93721  0.96320  0.97650  Biso   1.000  C
  H136     1.0000 0.92610  0.96930  0.00200  Biso   1.000  H
  N68      1.0000 0.14006  0.83290  0.81676  Biso   1.000  N
  C204     1.0000 0.10650  0.87560  0.81320  Biso   1.000  C
  H137     1.0000 0.09890  0.91570  0.78900  Biso   1.000  H
  C205     1.0000 0.08210  0.86530  0.84250  Biso   1.000  C
  H138     1.0000 0.05860  0.89910  0.83910  Biso   1.000  H
  C206     1.0000 0.09220  0.80490  0.87730  Biso   1.000  C
  C207     1.0000 0.12763  0.76060  0.88137  Biso   1.000  C
  H139     1.0000 0.13590  0.71910  0.90490  Biso   1.000  H
  C208     1.0000 0.15066  0.77730  0.85110  Biso   1.000  C
  H140     1.0000 0.17520  0.74790  0.85470  Biso   1.000  H
  N69      1.0000 0.07199  0.48330  0.05174  Biso   1.000  N
  C209     1.0000 0.09888  0.51040  0.02900  Biso   1.000  C
  H141     1.0000 0.12240  0.47680  0.03230  Biso   1.000  H
  C210     1.0000 0.09412  0.58410  0.00130  Biso   1.000  C
  H142     1.0000 0.11380  0.60130  0.98580  Biso   1.000  H
  C211     1.0000 0.05957  0.63310  0.99651  Biso   1.000  C
  C212     1.0000 0.03214  0.60640  0.02037  Biso   1.000  C
  H143     1.0000 0.00870  0.63960  0.01810  Biso   1.000  H
  C213     1.0000 0.03896  0.53170  0.04737  Biso   1.000  C
  H144     1.0000 0.01980  0.51360  0.06340  Biso   1.000  H
  C214     1.0000 0.01856  0.83590  0.94129  Biso   1.000  C
  N70      1.0000 0.03900  0.85040  0.91021  Biso   1.000  N
  C215     1.0000 0.06764  0.79150  0.91026  Biso   1.000  C
  N71      1.0000 0.07542  0.72000  0.93688  Biso   1.000  N
  C216     1.0000 0.05333  0.71320  0.96685  Biso   1.000  C
  N72      1.0000 0.02498  0.77070  0.97161  Biso   1.000  N
  Zn23     1.0000 0.87766  0.10180  0.93450  Biso   1.000  Zn
  I61      1.0000 0.85640  0.10175  0.00800  Biso   1.000  I
  I62      1.0000 0.89635  0.23957  0.89425  Biso   1.000  I
  I63      1.0000 0.73396  0.26080  0.79410  Biso   1.000  I
  I64      1.0000 0.62907  0.33780  0.69456  Biso   1.000  I
  I65      1.0000 0.62690  0.23010  0.55825  Biso   1.000  I
  I66      1.0000 0.52740  0.15940  0.62766  Biso   1.000  I
  I67      1.0000 0.61871  0.24370  0.55783  Biso   1.000  I
  I68      1.0000 0.52501  0.14860  0.63117  Biso   1.000  I
  Zn24     1.0000 0.87310  0.09140  0.94350  Biso   1.000  Zn
  I69      1.0000 0.85359  0.08040  0.01830  Biso   1.000  I
  I70      1.0000 0.88680  0.24198  0.90850  Biso   1.000  I
  I71      1.0000 0.74050  0.27120  0.79710  Biso   1.000  I
  I72      1.0000 0.63460  0.33540  0.69310  Biso   1.000  I
  Zn25     1.0000 0.08471  0.37508  0.09481  Biso   1.000  Zn
  Zn26     1.0000 0.17378  0.14608  0.27038  Biso   1.000  Zn
  N73      1.0000 0.12253  0.44310  0.14432  Biso   1.000  N
  C217     1.0000 0.15481  0.40690  0.16732  Biso   1.000  C
  H145     1.0000 0.16250  0.34860  0.15940  Biso   1.000  H
  C218     1.0000 0.17775  0.45170  0.20276  Biso   1.000  C
  H146     1.0000 0.20040  0.42400  0.21930  Biso   1.000  H
  C219     1.0000 0.16667  0.53830  0.21333  Biso   1.000  C
  C220     1.0000 0.13339  0.57560  0.18900  Biso   1.000  C
  H147     1.0000 0.12550  0.63490  0.19530  Biso   1.000  H
  C221     1.0000 0.11176  0.52540  0.15550  Biso   1.000  C
  H148     1.0000 0.08810  0.55020  0.13950  Biso   1.000  H
  N74      1.0000 0.33280  0.46600  0.39381  Biso   1.000  N
  C222     1.0000 0.32204  0.54980  0.40309  Biso   1.000  C
  H149     1.0000 0.33540  0.57810  0.42940  Biso   1.000  H
  C223     1.0000 0.29239  0.59700  0.37616  Biso   1.000  C
  H150     1.0000 0.28570  0.65660  0.38360  Biso   1.000  H
  C224     1.0000 0.27269  0.55520  0.33813  Biso   1.000  C
  C225     1.0000 0.28396  0.46840  0.32864  Biso   1.000  C
  H151     1.0000 0.27090  0.43810  0.30270  Biso   1.000  H
  C226     1.0000 0.31407  0.42630  0.35690  Biso   1.000  C
  H152     1.0000 0.32170  0.36730  0.34990  Biso   1.000  H
  N75      1.0000 0.18458  0.00830  0.27915  Biso   1.000  N
  C227     1.0000 0.21516  0.97440  0.30689  Biso   1.000  C
  H153     1.0000 0.23300  0.01490  0.32420  Biso   1.000  H
  C228     1.0000 0.22190  0.88220  0.31142  Biso   1.000  C
  H154     1.0000 0.24370  0.86000  0.33200  Biso   1.000  H
  C229     1.0000 0.19667  0.82310  0.28578  Biso   1.000  C
  C230     1.0000 0.16428  0.85810  0.25790  Biso   1.000  C
  H155     1.0000 0.14580  0.81900  0.24060  Biso   1.000  H
  C231     1.0000 0.15919  0.95020  0.25550  Biso   1.000  C
  H156     1.0000 0.13680  0.97390  0.23640  Biso   1.000  H
  C232     1.0000 0.19047  0.59090  0.24974  Biso   1.000  C
  N76      1.0000 0.22076  0.54990  0.27513  Biso   1.000  N
  C233     1.0000 0.24023  0.60070  0.30747  Biso   1.000  C
  N77      1.0000 0.23358  0.68900  0.31450  Biso   1.000  N
  C234     1.0000 0.20409  0.72350  0.28554  Biso   1.000  C
  N78      1.0000 0.18029  0.67680  0.25415  Biso   1.000  N
  N79      1.0000 0.42226  0.48910  0.44042  Biso   1.000  N
  C235     1.0000 0.43740  0.50040  0.40500  Biso   1.000  C
  H157     1.0000 0.42640  0.46820  0.37880  Biso   1.000  H
  C236     1.0000 0.46830  0.55630  0.40400  Biso   1.000  C
  H158     1.0000 0.47790  0.56310  0.37760  Biso   1.000  H
  C237     1.0000 0.48532  0.60270  0.44181  Biso   1.000  C
  C238     1.0000 0.46867  0.59530  0.47810  Biso   1.000  C
  H159     1.0000 0.47840  0.62950  0.50400  Biso   1.000  H
  C239     1.0000 0.43721  0.53680  0.47650  Biso   1.000  C
  H160     1.0000 0.42610  0.53070  0.50200  Biso   1.000  H
  N80      1.0000 0.64006  0.66710  0.31676  Biso   1.000  N
  C240     1.0000 0.60650  0.62440  0.31320  Biso   1.000  C
  H161     1.0000 0.59890  0.58430  0.28900  Biso   1.000  H
  C241     1.0000 0.58210  0.63470  0.34250  Biso   1.000  C
  H162     1.0000 0.55860  0.60090  0.33910  Biso   1.000  H
  C242     1.0000 0.59220  0.69510  0.37730  Biso   1.000  C
  C243     1.0000 0.62763  0.73940  0.38137  Biso   1.000  C
  H163     1.0000 0.63590  0.78090  0.40490  Biso   1.000  H
  C244     1.0000 0.65066  0.72270  0.35110  Biso   1.000  C
  H164     1.0000 0.67520  0.75210  0.35470  Biso   1.000  H
  N81      1.0000 0.57199  0.01670  0.55174  Biso   1.000  N
  C245     1.0000 0.59888  0.98960  0.52900  Biso   1.000  C
  H165     1.0000 0.62240  0.02320  0.53230  Biso   1.000  H
  C246     1.0000 0.59412  0.91590  0.50130  Biso   1.000  C
  H166     1.0000 0.61380  0.89870  0.48580  Biso   1.000  H
  C247     1.0000 0.55957  0.86690  0.49651  Biso   1.000  C
  C248     1.0000 0.53214  0.89360  0.52037  Biso   1.000  C
  H167     1.0000 0.50870  0.86040  0.51810  Biso   1.000  H
  C249     1.0000 0.53896  0.96830  0.54737  Biso   1.000  C
  H168     1.0000 0.51980  0.98640  0.56340  Biso   1.000  H
  C250     1.0000 0.51856  0.66410  0.44129  Biso   1.000  C
  N82      1.0000 0.53900  0.64960  0.41021  Biso   1.000  N
  C251     1.0000 0.56764  0.70850  0.41026  Biso   1.000  C
  N83      1.0000 0.57542  0.78000  0.43688  Biso   1.000  N
  C252     1.0000 0.55333  0.78680  0.46685  Biso   1.000  C
  N84      1.0000 0.52498  0.72930  0.47161  Biso   1.000  N
  Zn27     1.0000 0.37766  0.39820  0.43450  Biso   1.000  Zn
  I73      1.0000 0.35640  0.39825  0.50800  Biso   1.000  I
  I74      1.0000 0.39635  0.26043  0.39425  Biso   1.000  I
  I75      1.0000 0.23396  0.23920  0.29410  Biso   1.000  I
  I76      1.0000 0.12907  0.16220  0.19456  Biso   1.000  I
  I77      1.0000 0.12690  0.26990  0.05825  Biso   1.000  I
  I78      1.0000 0.02740  0.34060  0.12766  Biso   1.000  I
  I79      1.0000 0.11871  0.25630  0.05783  Biso   1.000  I
  I80      1.0000 0.02501  0.35140  0.13117  Biso   1.000  I
  Zn28     1.0000 0.37310  0.40860  0.44350  Biso   1.000  Zn
  I81      1.0000 0.35359  0.41960  0.51830  Biso   1.000  I
  I82      1.0000 0.38680  0.25802  0.40850  Biso   1.000  I
  I83      1.0000 0.24050  0.22880  0.29710  Biso   1.000  I
  I84      1.0000 0.13460  0.16460  0.19310  Biso   1.000  I
  Zn29     1.0000 0.58471  0.87508  0.09481  Biso   1.000  Zn
  Zn30     1.0000 0.67378  0.64608  0.27038  Biso   1.000  Zn
  N85      1.0000 0.62253  0.94310  0.14432  Biso   1.000  N
  C253     1.0000 0.65481  0.90690  0.16732  Biso   1.000  C
  H169     1.0000 0.66250  0.84860  0.15940  Biso   1.000  H
  C254     1.0000 0.67775  0.95170  0.20276  Biso   1.000  C
  H170     1.0000 0.70040  0.92400  0.21930  Biso   1.000  H
  C255     1.0000 0.66667  0.03830  0.21333  Biso   1.000  C
  C256     1.0000 0.63339  0.07560  0.18900  Biso   1.000  C
  H171     1.0000 0.62550  0.13490  0.19530  Biso   1.000  H
  C257     1.0000 0.61176  0.02540  0.15550  Biso   1.000  C
  H172     1.0000 0.58810  0.05020  0.13950  Biso   1.000  H
  N86      1.0000 0.83280  0.96600  0.39381  Biso   1.000  N
  C258     1.0000 0.82204  0.04980  0.40309  Biso   1.000  C
  H173     1.0000 0.83540  0.07810  0.42940  Biso   1.000  H
  C259     1.0000 0.79239  0.09700  0.37616  Biso   1.000  C
  H174     1.0000 0.78570  0.15660  0.38360  Biso   1.000  H
  C260     1.0000 0.77269  0.05520  0.33813  Biso   1.000  C
  C261     1.0000 0.78396  0.96840  0.32864  Biso   1.000  C
  H175     1.0000 0.77090  0.93810  0.30270  Biso   1.000  H
  C262     1.0000 0.81407  0.92630  0.35690  Biso   1.000  C
  H176     1.0000 0.82170  0.86730  0.34990  Biso   1.000  H
  N87      1.0000 0.68458  0.50830  0.27915  Biso   1.000  N
  C263     1.0000 0.71516  0.47440  0.30689  Biso   1.000  C
  H177     1.0000 0.73300  0.51490  0.32420  Biso   1.000  H
  C264     1.0000 0.72190  0.38220  0.31142  Biso   1.000  C
  H178     1.0000 0.74370  0.36000  0.33200  Biso   1.000  H
  C265     1.0000 0.69667  0.32310  0.28578  Biso   1.000  C
  C266     1.0000 0.66428  0.35810  0.25790  Biso   1.000  C
  H179     1.0000 0.64580  0.31900  0.24060  Biso   1.000  H
  C267     1.0000 0.65919  0.45020  0.25550  Biso   1.000  C
  H180     1.0000 0.63680  0.47390  0.23640  Biso   1.000  H
  C268     1.0000 0.69047  0.09090  0.24974  Biso   1.000  C
  N88      1.0000 0.72076  0.04990  0.27513  Biso   1.000  N
  C269     1.0000 0.74023  0.10070  0.30747  Biso   1.000  C
  N89      1.0000 0.73358  0.18900  0.31450  Biso   1.000  N
  C270     1.0000 0.70409  0.22350  0.28554  Biso   1.000  C
  N90      1.0000 0.68029  0.17680  0.25415  Biso   1.000  N
  N91      1.0000 0.92226  0.98910  0.44042  Biso   1.000  N
  C271     1.0000 0.93740  0.00040  0.40500  Biso   1.000  C
  H181     1.0000 0.92640  0.96820  0.37880  Biso   1.000  H
  C272     1.0000 0.96830  0.05630  0.40400  Biso   1.000  C
  H182     1.0000 0.97790  0.06310  0.37760  Biso   1.000  H
  C273     1.0000 0.98532  0.10270  0.44181  Biso   1.000  C
  C274     1.0000 0.96867  0.09530  0.47810  Biso   1.000  C
  H183     1.0000 0.97840  0.12950  0.50400  Biso   1.000  H
  C275     1.0000 0.93721  0.03680  0.47650  Biso   1.000  C
  H184     1.0000 0.92610  0.03070  0.50200  Biso   1.000  H
  N92      1.0000 0.14006  0.16710  0.31676  Biso   1.000  N
  C276     1.0000 0.10650  0.12440  0.31320  Biso   1.000  C
  H185     1.0000 0.09890  0.08430  0.28900  Biso   1.000  H
  C277     1.0000 0.08210  0.13470  0.34250  Biso   1.000  C
  H186     1.0000 0.05860  0.10090  0.33910  Biso   1.000  H
  C278     1.0000 0.09220  0.19510  0.37730  Biso   1.000  C
  C279     1.0000 0.12763  0.23940  0.38137  Biso   1.000  C
  H187     1.0000 0.13590  0.28090  0.40490  Biso   1.000  H
  C280     1.0000 0.15066  0.22270  0.35110  Biso   1.000  C
  H188     1.0000 0.17520  0.25210  0.35470  Biso   1.000  H
  N93      1.0000 0.07199  0.51670  0.55174  Biso   1.000  N
  C281     1.0000 0.09888  0.48960  0.52900  Biso   1.000  C
  H189     1.0000 0.12240  0.52320  0.53230  Biso   1.000  H
  C282     1.0000 0.09412  0.41590  0.50130  Biso   1.000  C
  H190     1.0000 0.11380  0.39870  0.48580  Biso   1.000  H
  C283     1.0000 0.05957  0.36690  0.49651  Biso   1.000  C
  C284     1.0000 0.03214  0.39360  0.52037  Biso   1.000  C
  H191     1.0000 0.00870  0.36040  0.51810  Biso   1.000  H
  C285     1.0000 0.03896  0.46830  0.54737  Biso   1.000  C
  H192     1.0000 0.01980  0.48640  0.56340  Biso   1.000  H
  C286     1.0000 0.01856  0.16410  0.44129  Biso   1.000  C
  N94      1.0000 0.03900  0.14960  0.41021  Biso   1.000  N
  C287     1.0000 0.06764  0.20850  0.41026  Biso   1.000  C
  N95      1.0000 0.07542  0.28000  0.43688  Biso   1.000  N
  C288     1.0000 0.05333  0.28680  0.46685  Biso   1.000  C
  N96      1.0000 0.02498  0.22930  0.47161  Biso   1.000  N
  Zn31     1.0000 0.87766  0.89820  0.43450  Biso   1.000  Zn
  I85      1.0000 0.85640  0.89825  0.50800  Biso   1.000  I
  I86      1.0000 0.89635  0.76043  0.39425  Biso   1.000  I
  I87      1.0000 0.73396  0.73920  0.29410  Biso   1.000  I
  I88      1.0000 0.62907  0.66220  0.19456  Biso   1.000  I
  I89      1.0000 0.62690  0.76990  0.05825  Biso   1.000  I
  I90      1.0000 0.52740  0.84060  0.12766  Biso   1.000  I
  I91      1.0000 0.61871  0.75630  0.05783  Biso   1.000  I
  I92      1.0000 0.52501  0.85140  0.13117  Biso   1.000  I
  Zn32     1.0000 0.87310  0.90860  0.44350  Biso   1.000  Zn
  I93      1.0000 0.85359  0.91960  0.51830  Biso   1.000  I
  I94      1.0000 0.88680  0.75802  0.40850  Biso   1.000  I
  I95      1.0000 0.74050  0.72880  0.29710  Biso   1.000  I
  I96      1.0000 0.63460  0.66460  0.19310  Biso   1.000  I
  C289     1.0000 0.45370  0.87000  0.58800  Biso   1.000  C
  H193     1.0000 0.46870  0.89210  0.56610  Biso   1.000  H
  H194     1.0000 0.42800  0.90000  0.58080  Biso   1.000  H
  C290     1.0000 0.47370  0.90500  0.63200  Biso   1.000  C
  H195     1.0000 0.45370  0.92010  0.64950  Biso   1.000  H
  H196     1.0000 0.48740  0.96140  0.62780  Biso   1.000  H
  C291     1.0000 0.50270  0.84000  0.65960  Biso   1.000  C
  H197     1.0000 0.49110  0.81100  0.68280  Biso   1.000  H
  H198     1.0000 0.52630  0.87330  0.67390  Biso   1.000  H
  C292     1.0000 0.51280  0.76900  0.62800  Biso   1.000  C
  H199     1.0000 0.53370  0.72890  0.64360  Biso   1.000  H
  H200     1.0000 0.52250  0.79910  0.60340  Biso   1.000  H
  C293     1.0000 0.47700  0.71200  0.60800  Biso   1.000  C
  H201     1.0000 0.48400  0.66080  0.59090  Biso   1.000  H
  H202     1.0000 0.46530  0.68590  0.63280  Biso   1.000  H
  C294     1.0000 0.44690  0.77000  0.57950  Biso   1.000  C
  H203     1.0000 0.44740  0.75750  0.54820  Biso   1.000  H
  H204     1.0000 0.42070  0.75450  0.58450  Biso   1.000  H
  C295     1.0000 0.38000  0.84700  0.67200  Biso   1.000  C
  H205     1.0000 0.35730  0.80940  0.65930  Biso   1.000  H
  H206     1.0000 0.39790  0.84560  0.65080  Biso   1.000  H
  C296     1.0000 0.40100  0.80000  0.71500  Biso   1.000  C
  H207     1.0000 0.38190  0.78840  0.73360  Biso   1.000  H
  H208     1.0000 0.41100  0.74090  0.70690  Biso   1.000  H
  C297     1.0000 0.43500  0.85500  0.74100  Biso   1.000  C
  H209     1.0000 0.45950  0.82300  0.74130  Biso   1.000  H
  H210     1.0000 0.43130  0.86260  0.77170  Biso   1.000  H
  C298     1.0000 0.43600  0.94900  0.71900  Biso   1.000  C
  H211     1.0000 0.45490  0.98810  0.73860  Biso   1.000  H
  H212     1.0000 0.44490  0.94200  0.69080  Biso   1.000  H
  C299     1.0000 0.39600  0.99800  0.71000  Biso   1.000  C
  H213     1.0000 0.38610  0.00290  0.73750  Biso   1.000  H
  H214     1.0000 0.39900  0.05960  0.69850  Biso   1.000  H
  C300     1.0000 0.36630  0.94500  0.67500  Biso   1.000  C
  H215     1.0000 0.34070  0.94490  0.68400  Biso   1.000  H
  H216     1.0000 0.36340  0.97440  0.64600  Biso   1.000  H
  C301     1.0000 0.39270  0.02640  0.65200  Biso   1.000  C
  C302     1.0000 0.35410  0.03400  0.66220  Biso   1.000  C
  H217     1.0000 0.33130  0.01020  0.64410  Biso   1.000  H
  C303     1.0000 0.35430  0.07530  0.69760  Biso   1.000  C
  H218     1.0000 0.32990  0.08060  0.70620  Biso   1.000  H
  C304     1.0000 0.38260  0.11080  0.72320  Biso   1.000  C
  H219     1.0000 0.37630  0.14060  0.74810  Biso   1.000  H
  C305     1.0000 0.42420  0.11390  0.72100  Biso   1.000  C
  H220     1.0000 0.44430  0.14130  0.74200  Biso   1.000  H
  C306     1.0000 0.42870  0.06640  0.67980  Biso   1.000  C
  H221     1.0000 0.45330  0.06150  0.67150  Biso   1.000  H
  C307     1.0000 0.39890  0.97380  0.61260  Biso   1.000  C
  H222     1.0000 0.37570  0.95020  0.59530  Biso   1.000  H
  C308     1.0000 0.42970  0.95420  0.59750  Biso   1.000  C
  H223     1.0000 0.45430  0.98040  0.60920  Biso   1.000  H
  C309     1.0000 0.42420  0.89000  0.56190  Biso   1.000  C
  H224     1.0000 0.39940  0.86580  0.54950  Biso   1.000  H
  O1       1.0000 0.45490  0.86800  0.54810  Biso   1.000  O
  C310     1.0000 0.57290  0.63800  0.68990  Biso   1.000  C
  H225     1.0000 0.56180  0.63410  0.65790  Biso   1.000  H
  H226     1.0000 0.60130  0.62830  0.69480  Biso   1.000  H
  C311     1.0000 0.55310  0.57100  0.71700  Biso   1.000  C
  H227     1.0000 0.55710  0.50710  0.70870  Biso   1.000  H
  H228     1.0000 0.56260  0.57850  0.74920  Biso   1.000  H
  C312     1.0000 0.51010  0.59900  0.70300  Biso   1.000  C
  H229     1.0000 0.50140  0.63060  0.72770  Biso   1.000  H
  H230     1.0000 0.49350  0.54520  0.69490  Biso   1.000  H
  C313     1.0000 0.50690  0.66400  0.66260  Biso   1.000  C
  H231     1.0000 0.47930  0.67110  0.64830  Biso   1.000  H
  H232     1.0000 0.52080  0.63690  0.64070  Biso   1.000  H
  C314     1.0000 0.52480  0.75800  0.67800  Biso   1.000  C
  H233     1.0000 0.53020  0.79340  0.65240  Biso   1.000  H
  H234     1.0000 0.50750  0.79340  0.69300  Biso   1.000  H
  C315     1.0000 0.56280  0.73100  0.70970  Biso   1.000  C
  H235     1.0000 0.55850  0.72330  0.74030  Biso   1.000  H
  H236     1.0000 0.58350  0.77610  0.70960  Biso   1.000  H
  C316     1.0000 0.41590  0.61800  0.66600  Biso   1.000  C
  H237     1.0000 0.43350  0.60470  0.69450  Biso   1.000  H
  H238     1.0000 0.39580  0.57050  0.65990  Biso   1.000  H
  C317     1.0000 0.43950  0.62300  0.62800  Biso   1.000  C
  H239     1.0000 0.45690  0.57000  0.62830  Biso   1.000  H
  H240     1.0000 0.45500  0.67910  0.62930  Biso   1.000  H
  C318     1.0000 0.40710  0.62200  0.58600  Biso   1.000  C
  H241     1.0000 0.40810  0.67730  0.56820  Biso   1.000  H
  H242     1.0000 0.40970  0.56830  0.56740  Biso   1.000  H
  C319     1.0000 0.36860  0.61800  0.60380  Biso   1.000  C
  H243     1.0000 0.37000  0.56850  0.62600  Biso   1.000  H
  H244     1.0000 0.34630  0.60530  0.57930  Biso   1.000  H
  C320     1.0000 0.36340  0.71000  0.62500  Biso   1.000  C
  H245     1.0000 0.36610  0.76000  0.60470  Biso   1.000  H
  H246     1.0000 0.33760  0.71390  0.63340  Biso   1.000  H
  C321     1.0000 0.39710  0.71200  0.66740  Biso   1.000  C
  H247     1.0000 0.38670  0.72000  0.69470  Biso   1.000  H
  H248     1.0000 0.41580  0.76130  0.66540  Biso   1.000  H
  C322     1.0000 0.48270  0.30000  0.74470  Biso   1.000  C
  H249     1.0000 0.48180  0.23530  0.75350  Biso   1.000  H
  H250     1.0000 0.46070  0.31210  0.72000  Biso   1.000  H
  C323     1.0000 0.52100  0.32200  0.73220  Biso   1.000  C
  H251     1.0000 0.54220  0.30280  0.75650  Biso   1.000  H
  H252     1.0000 0.52330  0.28640  0.70570  Biso   1.000  H
  C324     1.0000 0.52720  0.41900  0.72270  Biso   1.000  C
  H253     1.0000 0.55550  0.43040  0.73070  Biso   1.000  H
  H254     1.0000 0.51970  0.42680  0.69020  Biso   1.000  H
  C325     1.0000 0.50790  0.49200  0.74310  Biso   1.000  C
  H255     1.0000 0.49390  0.53170  0.71940  Biso   1.000  H
  H256     1.0000 0.52800  0.52890  0.76210  Biso   1.000  H
  C326     1.0000 0.47960  0.45900  0.77050  Biso   1.000  C
  H257     1.0000 0.48330  0.49590  0.79780  Biso   1.000  H
  H258     1.0000 0.45300  0.47100  0.75380  Biso   1.000  H
  C327     1.0000 0.48220  0.36200  0.78340  Biso   1.000  C
  H259     1.0000 0.45970  0.34660  0.79690  Biso   1.000  H
  H260     1.0000 0.50610  0.35250  0.80600  Biso   1.000  H
  C328     1.0000 0.54630  0.87000  0.91200  Biso   1.000  C
  H261     1.0000 0.53130  0.89210  0.93390  Biso   1.000  H
  H262     1.0000 0.57200  0.90000  0.91920  Biso   1.000  H
  C329     1.0000 0.52630  0.90500  0.86800  Biso   1.000  C
  H263     1.0000 0.54630  0.92010  0.85050  Biso   1.000  H
  H264     1.0000 0.51260  0.96140  0.87220  Biso   1.000  H
  C330     1.0000 0.49730  0.84000  0.84040  Biso   1.000  C
  H265     1.0000 0.50890  0.81100  0.81720  Biso   1.000  H
  H266     1.0000 0.47370  0.87330  0.82610  Biso   1.000  H
  C331     1.0000 0.48720  0.76900  0.87200  Biso   1.000  C
  H267     1.0000 0.46630  0.72890  0.85640  Biso   1.000  H
  H268     1.0000 0.47750  0.79910  0.89660  Biso   1.000  H
  C332     1.0000 0.52300  0.71200  0.89200  Biso   1.000  C
  H269     1.0000 0.51600  0.66080  0.90910  Biso   1.000  H
  H270     1.0000 0.53470  0.68590  0.86720  Biso   1.000  H
  C333     1.0000 0.55310  0.77000  0.92050  Biso   1.000  C
  H271     1.0000 0.55260  0.75750  0.95180  Biso   1.000  H
  H272     1.0000 0.57930  0.75450  0.91550  Biso   1.000  H
  C334     1.0000 0.62000  0.84700  0.82800  Biso   1.000  C
  H273     1.0000 0.64270  0.80940  0.84070  Biso   1.000  H
  H274     1.0000 0.60210  0.84560  0.84920  Biso   1.000  H
  C335     1.0000 0.59900  0.80000  0.78500  Biso   1.000  C
  H275     1.0000 0.61810  0.78840  0.76640  Biso   1.000  H
  H276     1.0000 0.58900  0.74090  0.79310  Biso   1.000  H
  C336     1.0000 0.56500  0.85500  0.75900  Biso   1.000  C
  H277     1.0000 0.54050  0.82300  0.75870  Biso   1.000  H
  H278     1.0000 0.56870  0.86260  0.72830  Biso   1.000  H
  C337     1.0000 0.56400  0.94900  0.78100  Biso   1.000  C
  H279     1.0000 0.54510  0.98810  0.76140  Biso   1.000  H
  H280     1.0000 0.55510  0.94200  0.80920  Biso   1.000  H
  C338     1.0000 0.60400  0.99800  0.79000  Biso   1.000  C
  H281     1.0000 0.61390  0.00290  0.76250  Biso   1.000  H
  H282     1.0000 0.60100  0.05960  0.80150  Biso   1.000  H
  C339     1.0000 0.63370  0.94500  0.82500  Biso   1.000  C
  H283     1.0000 0.65930  0.94490  0.81600  Biso   1.000  H
  H284     1.0000 0.63660  0.97440  0.85400  Biso   1.000  H
  C340     1.0000 0.60730  0.02640  0.84800  Biso   1.000  C
  C341     1.0000 0.64590  0.03400  0.83780  Biso   1.000  C
  H285     1.0000 0.66870  0.01020  0.85590  Biso   1.000  H
  C342     1.0000 0.64570  0.07530  0.80240  Biso   1.000  C
  H286     1.0000 0.67010  0.08060  0.79380  Biso   1.000  H
  C343     1.0000 0.61740  0.11080  0.77680  Biso   1.000  C
  H287     1.0000 0.62370  0.14060  0.75190  Biso   1.000  H
  C344     1.0000 0.57580  0.11390  0.77900  Biso   1.000  C
  H288     1.0000 0.55570  0.14130  0.75800  Biso   1.000  H
  C345     1.0000 0.57130  0.06640  0.82020  Biso   1.000  C
  H289     1.0000 0.54670  0.06150  0.82850  Biso   1.000  H
  C346     1.0000 0.60110  0.97380  0.88740  Biso   1.000  C
  H290     1.0000 0.62430  0.95020  0.90470  Biso   1.000  H
  C347     1.0000 0.57030  0.95420  0.90250  Biso   1.000  C
  H291     1.0000 0.54570  0.98040  0.89080  Biso   1.000  H
  C348     1.0000 0.57580  0.89000  0.93810  Biso   1.000  C
  H292     1.0000 0.60060  0.86580  0.95050  Biso   1.000  H
  O2       1.0000 0.54510  0.86800  0.95190  Biso   1.000  O
  C349     1.0000 0.42710  0.63800  0.81010  Biso   1.000  C
  H293     1.0000 0.43820  0.63410  0.84210  Biso   1.000  H
  H294     1.0000 0.39870  0.62830  0.80520  Biso   1.000  H
  C350     1.0000 0.44690  0.57100  0.78300  Biso   1.000  C
  H295     1.0000 0.44290  0.50710  0.79130  Biso   1.000  H
  H296     1.0000 0.43740  0.57850  0.75080  Biso   1.000  H
  C351     1.0000 0.48990  0.59900  0.79700  Biso   1.000  C
  H297     1.0000 0.49860  0.63060  0.77230  Biso   1.000  H
  H298     1.0000 0.50650  0.54520  0.80510  Biso   1.000  H
  C352     1.0000 0.49310  0.66400  0.83740  Biso   1.000  C
  H299     1.0000 0.52070  0.67110  0.85170  Biso   1.000  H
  H300     1.0000 0.47920  0.63690  0.85930  Biso   1.000  H
  C353     1.0000 0.47520  0.75800  0.82200  Biso   1.000  C
  H301     1.0000 0.46980  0.79340  0.84760  Biso   1.000  H
  H302     1.0000 0.49250  0.79340  0.80700  Biso   1.000  H
  C354     1.0000 0.43720  0.73100  0.79030  Biso   1.000  C
  H303     1.0000 0.44150  0.72330  0.75970  Biso   1.000  H
  H304     1.0000 0.41650  0.77610  0.79040  Biso   1.000  H
  C355     1.0000 0.58410  0.61800  0.83400  Biso   1.000  C
  H305     1.0000 0.56650  0.60470  0.80550  Biso   1.000  H
  H306     1.0000 0.60420  0.57050  0.84010  Biso   1.000  H
  C356     1.0000 0.56050  0.62300  0.87200  Biso   1.000  C
  H307     1.0000 0.54310  0.57000  0.87170  Biso   1.000  H
  H308     1.0000 0.54500  0.67910  0.87070  Biso   1.000  H
  C357     1.0000 0.59290  0.62200  0.91400  Biso   1.000  C
  H309     1.0000 0.59190  0.67730  0.93180  Biso   1.000  H
  H310     1.0000 0.59030  0.56830  0.93260  Biso   1.000  H
  C358     1.0000 0.63140  0.61800  0.89620  Biso   1.000  C
  H311     1.0000 0.63000  0.56850  0.87400  Biso   1.000  H
  H312     1.0000 0.65370  0.60530  0.92070  Biso   1.000  H
  C359     1.0000 0.63660  0.71000  0.87500  Biso   1.000  C
  H313     1.0000 0.63390  0.76000  0.89530  Biso   1.000  H
  H314     1.0000 0.66240  0.71390  0.86660  Biso   1.000  H
  C360     1.0000 0.60290  0.71200  0.83260  Biso   1.000  C
  H315     1.0000 0.61330  0.72000  0.80530  Biso   1.000  H
  H316     1.0000 0.58420  0.76130  0.83460  Biso   1.000  H
  C361     1.0000 0.51730  0.30000  0.75530  Biso   1.000  C
  H317     1.0000 0.51820  0.23530  0.74650  Biso   1.000  H
  H318     1.0000 0.53930  0.31210  0.78000  Biso   1.000  H
  C362     1.0000 0.47900  0.32200  0.76780  Biso   1.000  C
  H319     1.0000 0.45780  0.30280  0.74350  Biso   1.000  H
  H320     1.0000 0.47670  0.28640  0.79430  Biso   1.000  H
  C363     1.0000 0.47280  0.41900  0.77730  Biso   1.000  C
  H321     1.0000 0.44450  0.43040  0.76930  Biso   1.000  H
  H322     1.0000 0.48030  0.42680  0.80980  Biso   1.000  H
  C364     1.0000 0.49210  0.49200  0.75690  Biso   1.000  C
  H323     1.0000 0.50610  0.53170  0.78060  Biso   1.000  H
  H324     1.0000 0.47200  0.52890  0.73790  Biso   1.000  H
  C365     1.0000 0.52040  0.45900  0.72950  Biso   1.000  C
  H325     1.0000 0.51670  0.49590  0.70220  Biso   1.000  H
  H326     1.0000 0.54700  0.47100  0.74620  Biso   1.000  H
  C366     1.0000 0.51780  0.36200  0.71660  Biso   1.000  C
  H327     1.0000 0.54030  0.34660  0.70310  Biso   1.000  H
  H328     1.0000 0.49390  0.35250  0.69400  Biso   1.000  H
  C367     1.0000 0.95370  0.37000  0.58800  Biso   1.000  C
  H329     1.0000 0.96870  0.39210  0.56610  Biso   1.000  H
  H330     1.0000 0.92800  0.40000  0.58080  Biso   1.000  H
  C368     1.0000 0.97370  0.40500  0.63200  Biso   1.000  C
  H331     1.0000 0.95370  0.42010  0.64950  Biso   1.000  H
  H332     1.0000 0.98740  0.46140  0.62780  Biso   1.000  H
  C369     1.0000 0.00270  0.34000  0.65960  Biso   1.000  C
  H333     1.0000 0.99110  0.31100  0.68280  Biso   1.000  H
  H334     1.0000 0.02630  0.37330  0.67390  Biso   1.000  H
  C370     1.0000 0.01280  0.26900  0.62800  Biso   1.000  C
  H335     1.0000 0.03370  0.22890  0.64360  Biso   1.000  H
  H336     1.0000 0.02250  0.29910  0.60340  Biso   1.000  H
  C371     1.0000 0.97700  0.21200  0.60800  Biso   1.000  C
  H337     1.0000 0.98400  0.16080  0.59090  Biso   1.000  H
  H338     1.0000 0.96530  0.18590  0.63280  Biso   1.000  H
  C372     1.0000 0.94690  0.27000  0.57950  Biso   1.000  C
  H339     1.0000 0.94740  0.25750  0.54820  Biso   1.000  H
  H340     1.0000 0.92070  0.25450  0.58450  Biso   1.000  H
  C373     1.0000 0.88000  0.34700  0.67200  Biso   1.000  C
  H341     1.0000 0.85730  0.30940  0.65930  Biso   1.000  H
  H342     1.0000 0.89790  0.34560  0.65080  Biso   1.000  H
  C374     1.0000 0.90100  0.30000  0.71500  Biso   1.000  C
  H343     1.0000 0.88190  0.28840  0.73360  Biso   1.000  H
  H344     1.0000 0.91100  0.24090  0.70690  Biso   1.000  H
  C375     1.0000 0.93500  0.35500  0.74100  Biso   1.000  C
  H345     1.0000 0.95950  0.32300  0.74130  Biso   1.000  H
  H346     1.0000 0.93130  0.36260  0.77170  Biso   1.000  H
  C376     1.0000 0.93600  0.44900  0.71900  Biso   1.000  C
  H347     1.0000 0.95490  0.48810  0.73860  Biso   1.000  H
  H348     1.0000 0.94490  0.44200  0.69080  Biso   1.000  H
  C377     1.0000 0.89600  0.49800  0.71000  Biso   1.000  C
  H349     1.0000 0.88610  0.50290  0.73750  Biso   1.000  H
  H350     1.0000 0.89900  0.55960  0.69850  Biso   1.000  H
  C378     1.0000 0.86630  0.44500  0.67500  Biso   1.000  C
  H351     1.0000 0.84070  0.44490  0.68400  Biso   1.000  H
  H352     1.0000 0.86340  0.47440  0.64600  Biso   1.000  H
  C379     1.0000 0.89270  0.52640  0.65200  Biso   1.000  C
  C380     1.0000 0.85410  0.53400  0.66220  Biso   1.000  C
  H353     1.0000 0.83130  0.51020  0.64410  Biso   1.000  H
  C381     1.0000 0.85430  0.57530  0.69760  Biso   1.000  C
  H354     1.0000 0.82990  0.58060  0.70620  Biso   1.000  H
  C382     1.0000 0.88260  0.61080  0.72320  Biso   1.000  C
  H355     1.0000 0.87630  0.64060  0.74810  Biso   1.000  H
  C383     1.0000 0.92420  0.61390  0.72100  Biso   1.000  C
  H356     1.0000 0.94430  0.64130  0.74200  Biso   1.000  H
  C384     1.0000 0.92870  0.56640  0.67980  Biso   1.000  C
  H357     1.0000 0.95330  0.56150  0.67150  Biso   1.000  H
  C385     1.0000 0.89890  0.47380  0.61260  Biso   1.000  C
  H358     1.0000 0.87570  0.45020  0.59530  Biso   1.000  H
  C386     1.0000 0.92970  0.45420  0.59750  Biso   1.000  C
  H359     1.0000 0.95430  0.48040  0.60920  Biso   1.000  H
  C387     1.0000 0.92420  0.39000  0.56190  Biso   1.000  C
  H360     1.0000 0.89940  0.36580  0.54950  Biso   1.000  H
  O3       1.0000 0.95490  0.36800  0.54810  Biso   1.000  O
  C388     1.0000 0.07290  0.13800  0.68990  Biso   1.000  C
  H361     1.0000 0.06180  0.13410  0.65790  Biso   1.000  H
  H362     1.0000 0.10130  0.12830  0.69480  Biso   1.000  H
  C389     1.0000 0.05310  0.07100  0.71700  Biso   1.000  C
  H363     1.0000 0.05710  0.00710  0.70870  Biso   1.000  H
  H364     1.0000 0.06260  0.07850  0.74920  Biso   1.000  H
  C390     1.0000 0.01010  0.09900  0.70300  Biso   1.000  C
  H365     1.0000 0.00140  0.13060  0.72770  Biso   1.000  H
  H366     1.0000 0.99350  0.04520  0.69490  Biso   1.000  H
  C391     1.0000 0.00690  0.16400  0.66260  Biso   1.000  C
  H367     1.0000 0.97930  0.17110  0.64830  Biso   1.000  H
  H368     1.0000 0.02080  0.13690  0.64070  Biso   1.000  H
  C392     1.0000 0.02480  0.25800  0.67800  Biso   1.000  C
  H369     1.0000 0.03020  0.29340  0.65240  Biso   1.000  H
  H370     1.0000 0.00750  0.29340  0.69300  Biso   1.000  H
  C393     1.0000 0.06280  0.23100  0.70970  Biso   1.000  C
  H371     1.0000 0.05850  0.22330  0.74030  Biso   1.000  H
  H372     1.0000 0.08350  0.27610  0.70960  Biso   1.000  H
  C394     1.0000 0.91590  0.11800  0.66600  Biso   1.000  C
  H373     1.0000 0.93350  0.10470  0.69450  Biso   1.000  H
  H374     1.0000 0.89580  0.07050  0.65990  Biso   1.000  H
  C395     1.0000 0.93950  0.12300  0.62800  Biso   1.000  C
  H375     1.0000 0.95690  0.07000  0.62830  Biso   1.000  H
  H376     1.0000 0.95500  0.17910  0.62930  Biso   1.000  H
  C396     1.0000 0.90710  0.12200  0.58600  Biso   1.000  C
  H377     1.0000 0.90810  0.17730  0.56820  Biso   1.000  H
  H378     1.0000 0.90970  0.06830  0.56740  Biso   1.000  H
  C397     1.0000 0.86860  0.11800  0.60380  Biso   1.000  C
  H379     1.0000 0.87000  0.06850  0.62600  Biso   1.000  H
  H380     1.0000 0.84630  0.10530  0.57930  Biso   1.000  H
  C398     1.0000 0.86340  0.21000  0.62500  Biso   1.000  C
  H381     1.0000 0.86610  0.26000  0.60470  Biso   1.000  H
  H382     1.0000 0.83760  0.21390  0.63340  Biso   1.000  H
  C399     1.0000 0.89710  0.21200  0.66740  Biso   1.000  C
  H383     1.0000 0.88670  0.22000  0.69470  Biso   1.000  H
  H384     1.0000 0.91580  0.26130  0.66540  Biso   1.000  H
  C400     1.0000 0.98270  0.80000  0.74470  Biso   1.000  C
  H385     1.0000 0.98180  0.73530  0.75350  Biso   1.000  H
  H386     1.0000 0.96070  0.81210  0.72000  Biso   1.000  H
  C401     1.0000 0.02100  0.82200  0.73220  Biso   1.000  C
  H387     1.0000 0.04220  0.80280  0.75650  Biso   1.000  H
  H388     1.0000 0.02330  0.78640  0.70570  Biso   1.000  H
  C402     1.0000 0.02720  0.91900  0.72270  Biso   1.000  C
  H389     1.0000 0.05550  0.93040  0.73070  Biso   1.000  H
  H390     1.0000 0.01970  0.92680  0.69020  Biso   1.000  H
  C403     1.0000 0.00790  0.99200  0.74310  Biso   1.000  C
  H391     1.0000 0.99390  0.03170  0.71940  Biso   1.000  H
  H392     1.0000 0.02800  0.02890  0.76210  Biso   1.000  H
  C404     1.0000 0.97960  0.95900  0.77050  Biso   1.000  C
  H393     1.0000 0.98330  0.99590  0.79780  Biso   1.000  H
  H394     1.0000 0.95300  0.97100  0.75380  Biso   1.000  H
  C405     1.0000 0.98220  0.86200  0.78340  Biso   1.000  C
  H395     1.0000 0.95970  0.84660  0.79690  Biso   1.000  H
  H396     1.0000 0.00610  0.85250  0.80600  Biso   1.000  H
  C406     1.0000 0.04630  0.37000  0.91200  Biso   1.000  C
  H397     1.0000 0.03130  0.39210  0.93390  Biso   1.000  H
  H398     1.0000 0.07200  0.40000  0.91920  Biso   1.000  H
  C407     1.0000 0.02630  0.40500  0.86800  Biso   1.000  C
  H399     1.0000 0.04630  0.42010  0.85050  Biso   1.000  H
  H400     1.0000 0.01260  0.46140  0.87220  Biso   1.000  H
  C408     1.0000 0.99730  0.34000  0.84040  Biso   1.000  C
  H401     1.0000 0.00890  0.31100  0.81720  Biso   1.000  H
  H402     1.0000 0.97370  0.37330  0.82610  Biso   1.000  H
  C409     1.0000 0.98720  0.26900  0.87200  Biso   1.000  C
  H403     1.0000 0.96630  0.22890  0.85640  Biso   1.000  H
  H404     1.0000 0.97750  0.29910  0.89660  Biso   1.000  H
  C410     1.0000 0.02300  0.21200  0.89200  Biso   1.000  C
  H405     1.0000 0.01600  0.16080  0.90910  Biso   1.000  H
  H406     1.0000 0.03470  0.18590  0.86720  Biso   1.000  H
  C411     1.0000 0.05310  0.27000  0.92050  Biso   1.000  C
  H407     1.0000 0.05260  0.25750  0.95180  Biso   1.000  H
  H408     1.0000 0.07930  0.25450  0.91550  Biso   1.000  H
  C412     1.0000 0.12000  0.34700  0.82800  Biso   1.000  C
  H409     1.0000 0.14270  0.30940  0.84070  Biso   1.000  H
  H410     1.0000 0.10210  0.34560  0.84920  Biso   1.000  H
  C413     1.0000 0.09900  0.30000  0.78500  Biso   1.000  C
  H411     1.0000 0.11810  0.28840  0.76640  Biso   1.000  H
  H412     1.0000 0.08900  0.24090  0.79310  Biso   1.000  H
  C414     1.0000 0.06500  0.35500  0.75900  Biso   1.000  C
  H413     1.0000 0.04050  0.32300  0.75870  Biso   1.000  H
  H414     1.0000 0.06870  0.36260  0.72830  Biso   1.000  H
  C415     1.0000 0.06400  0.44900  0.78100  Biso   1.000  C
  H415     1.0000 0.04510  0.48810  0.76140  Biso   1.000  H
  H416     1.0000 0.05510  0.44200  0.80920  Biso   1.000  H
  C416     1.0000 0.10400  0.49800  0.79000  Biso   1.000  C
  H417     1.0000 0.11390  0.50290  0.76250  Biso   1.000  H
  H418     1.0000 0.10100  0.55960  0.80150  Biso   1.000  H
  C417     1.0000 0.13370  0.44500  0.82500  Biso   1.000  C
  H419     1.0000 0.15930  0.44490  0.81600  Biso   1.000  H
  H420     1.0000 0.13660  0.47440  0.85400  Biso   1.000  H
  C418     1.0000 0.10730  0.52640  0.84800  Biso   1.000  C
  C419     1.0000 0.14590  0.53400  0.83780  Biso   1.000  C
  H421     1.0000 0.16870  0.51020  0.85590  Biso   1.000  H
  C420     1.0000 0.14570  0.57530  0.80240  Biso   1.000  C
  H422     1.0000 0.17010  0.58060  0.79380  Biso   1.000  H
  C421     1.0000 0.11740  0.61080  0.77680  Biso   1.000  C
  H423     1.0000 0.12370  0.64060  0.75190  Biso   1.000  H
  C422     1.0000 0.07580  0.61390  0.77900  Biso   1.000  C
  H424     1.0000 0.05570  0.64130  0.75800  Biso   1.000  H
  C423     1.0000 0.07130  0.56640  0.82020  Biso   1.000  C
  H425     1.0000 0.04670  0.56150  0.82850  Biso   1.000  H
  C424     1.0000 0.10110  0.47380  0.88740  Biso   1.000  C
  H426     1.0000 0.12430  0.45020  0.90470  Biso   1.000  H
  C425     1.0000 0.07030  0.45420  0.90250  Biso   1.000  C
  H427     1.0000 0.04570  0.48040  0.89080  Biso   1.000  H
  C426     1.0000 0.07580  0.39000  0.93810  Biso   1.000  C
  H428     1.0000 0.10060  0.36580  0.95050  Biso   1.000  H
  O4       1.0000 0.04510  0.36800  0.95190  Biso   1.000  O
  C427     1.0000 0.92710  0.13800  0.81010  Biso   1.000  C
  H429     1.0000 0.93820  0.13410  0.84210  Biso   1.000  H
  H430     1.0000 0.89870  0.12830  0.80520  Biso   1.000  H
  C428     1.0000 0.94690  0.07100  0.78300  Biso   1.000  C
  H431     1.0000 0.94290  0.00710  0.79130  Biso   1.000  H
  H432     1.0000 0.93740  0.07850  0.75080  Biso   1.000  H
  C429     1.0000 0.98990  0.09900  0.79700  Biso   1.000  C
  H433     1.0000 0.99860  0.13060  0.77230  Biso   1.000  H
  H434     1.0000 0.00650  0.04520  0.80510  Biso   1.000  H
  C430     1.0000 0.99310  0.16400  0.83740  Biso   1.000  C
  H435     1.0000 0.02070  0.17110  0.85170  Biso   1.000  H
  H436     1.0000 0.97920  0.13690  0.85930  Biso   1.000  H
  C431     1.0000 0.97520  0.25800  0.82200  Biso   1.000  C
  H437     1.0000 0.96980  0.29340  0.84760  Biso   1.000  H
  H438     1.0000 0.99250  0.29340  0.80700  Biso   1.000  H
  C432     1.0000 0.93720  0.23100  0.79030  Biso   1.000  C
  H439     1.0000 0.94150  0.22330  0.75970  Biso   1.000  H
  H440     1.0000 0.91650  0.27610  0.79040  Biso   1.000  H
  C433     1.0000 0.08410  0.11800  0.83400  Biso   1.000  C
  H441     1.0000 0.06650  0.10470  0.80550  Biso   1.000  H
  H442     1.0000 0.10420  0.07050  0.84010  Biso   1.000  H
  C434     1.0000 0.06050  0.12300  0.87200  Biso   1.000  C
  H443     1.0000 0.04310  0.07000  0.87170  Biso   1.000  H
  H444     1.0000 0.04500  0.17910  0.87070  Biso   1.000  H
  C435     1.0000 0.09290  0.12200  0.91400  Biso   1.000  C
  H445     1.0000 0.09190  0.17730  0.93180  Biso   1.000  H
  H446     1.0000 0.09030  0.06830  0.93260  Biso   1.000  H
  C436     1.0000 0.13140  0.11800  0.89620  Biso   1.000  C
  H447     1.0000 0.13000  0.06850  0.87400  Biso   1.000  H
  H448     1.0000 0.15370  0.10530  0.92070  Biso   1.000  H
  C437     1.0000 0.13660  0.21000  0.87500  Biso   1.000  C
  H449     1.0000 0.13390  0.26000  0.89530  Biso   1.000  H
  H450     1.0000 0.16240  0.21390  0.86660  Biso   1.000  H
  C438     1.0000 0.10290  0.21200  0.83260  Biso   1.000  C
  H451     1.0000 0.11330  0.22000  0.80530  Biso   1.000  H
  H452     1.0000 0.08420  0.26130  0.83460  Biso   1.000  H
  C439     1.0000 0.01730  0.80000  0.75530  Biso   1.000  C
  H453     1.0000 0.01820  0.73530  0.74650  Biso   1.000  H
  H454     1.0000 0.03930  0.81210  0.78000  Biso   1.000  H
  C440     1.0000 0.97900  0.82200  0.76780  Biso   1.000  C
  H455     1.0000 0.95780  0.80280  0.74350  Biso   1.000  H
  H456     1.0000 0.97670  0.78640  0.79430  Biso   1.000  H
  C441     1.0000 0.97280  0.91900  0.77730  Biso   1.000  C
  H457     1.0000 0.94450  0.93040  0.76930  Biso   1.000  H
  H458     1.0000 0.98030  0.92680  0.80980  Biso   1.000  H
  C442     1.0000 0.99210  0.99200  0.75690  Biso   1.000  C
  H459     1.0000 0.00610  0.03170  0.78060  Biso   1.000  H
  H460     1.0000 0.97200  0.02890  0.73790  Biso   1.000  H
  C443     1.0000 0.02040  0.95900  0.72950  Biso   1.000  C
  H461     1.0000 0.01670  0.99590  0.70220  Biso   1.000  H
  H462     1.0000 0.04700  0.97100  0.74620  Biso   1.000  H
  C444     1.0000 0.01780  0.86200  0.71660  Biso   1.000  C
  H463     1.0000 0.04030  0.84660  0.70310  Biso   1.000  H
  H464     1.0000 0.99390  0.85250  0.69400  Biso   1.000  H
  C445     1.0000 0.54630  0.13000  0.41200  Biso   1.000  C
  H465     1.0000 0.53130  0.10790  0.43390  Biso   1.000  H
  H466     1.0000 0.57200  0.10000  0.41920  Biso   1.000  H
  C446     1.0000 0.52630  0.09500  0.36800  Biso   1.000  C
  H467     1.0000 0.54630  0.07990  0.35050  Biso   1.000  H
  H468     1.0000 0.51260  0.03860  0.37220  Biso   1.000  H
  C447     1.0000 0.49730  0.16000  0.34040  Biso   1.000  C
  H469     1.0000 0.50890  0.18900  0.31720  Biso   1.000  H
  H470     1.0000 0.47370  0.12670  0.32610  Biso   1.000  H
  C448     1.0000 0.48720  0.23100  0.37200  Biso   1.000  C
  H471     1.0000 0.46630  0.27110  0.35640  Biso   1.000  H
  H472     1.0000 0.47750  0.20090  0.39660  Biso   1.000  H
  C449     1.0000 0.52300  0.28800  0.39200  Biso   1.000  C
  H473     1.0000 0.51600  0.33920  0.40910  Biso   1.000  H
  H474     1.0000 0.53470  0.31410  0.36720  Biso   1.000  H
  C450     1.0000 0.55310  0.23000  0.42050  Biso   1.000  C
  H475     1.0000 0.55260  0.24250  0.45180  Biso   1.000  H
  H476     1.0000 0.57930  0.24550  0.41550  Biso   1.000  H
  C451     1.0000 0.62000  0.15300  0.32800  Biso   1.000  C
  H477     1.0000 0.64270  0.19060  0.34070  Biso   1.000  H
  H478     1.0000 0.60210  0.15440  0.34920  Biso   1.000  H
  C452     1.0000 0.59900  0.20000  0.28500  Biso   1.000  C
  H479     1.0000 0.61810  0.21160  0.26640  Biso   1.000  H
  H480     1.0000 0.58900  0.25910  0.29310  Biso   1.000  H
  C453     1.0000 0.56500  0.14500  0.25900  Biso   1.000  C
  H481     1.0000 0.54050  0.17700  0.25870  Biso   1.000  H
  H482     1.0000 0.56870  0.13740  0.22830  Biso   1.000  H
  C454     1.0000 0.56400  0.05100  0.28100  Biso   1.000  C
  H483     1.0000 0.54510  0.01190  0.26140  Biso   1.000  H
  H484     1.0000 0.55510  0.05800  0.30920  Biso   1.000  H
  C455     1.0000 0.60400  0.00200  0.29000  Biso   1.000  C
  H485     1.0000 0.61390  0.99710  0.26250  Biso   1.000  H
  H486     1.0000 0.60100  0.94040  0.30150  Biso   1.000  H
  C456     1.0000 0.63370  0.05500  0.32500  Biso   1.000  C
  H487     1.0000 0.65930  0.05510  0.31600  Biso   1.000  H
  H488     1.0000 0.63660  0.02560  0.35400  Biso   1.000  H
  C457     1.0000 0.60730  0.97360  0.34800  Biso   1.000  C
  C458     1.0000 0.64590  0.96600  0.33780  Biso   1.000  C
  H489     1.0000 0.66870  0.98980  0.35590  Biso   1.000  H
  C459     1.0000 0.64570  0.92470  0.30240  Biso   1.000  C
  H490     1.0000 0.67010  0.91940  0.29380  Biso   1.000  H
  C460     1.0000 0.61740  0.88920  0.27680  Biso   1.000  C
  H491     1.0000 0.62370  0.85940  0.25190  Biso   1.000  H
  C461     1.0000 0.57580  0.88610  0.27900  Biso   1.000  C
  H492     1.0000 0.55570  0.85870  0.25800  Biso   1.000  H
  C462     1.0000 0.57130  0.93360  0.32020  Biso   1.000  C
  H493     1.0000 0.54670  0.93850  0.32850  Biso   1.000  H
  C463     1.0000 0.60110  0.02620  0.38740  Biso   1.000  C
  H494     1.0000 0.62430  0.04980  0.40470  Biso   1.000  H
  C464     1.0000 0.57030  0.04580  0.40250  Biso   1.000  C
  H495     1.0000 0.54570  0.01960  0.39080  Biso   1.000  H
  C465     1.0000 0.57580  0.11000  0.43810  Biso   1.000  C
  H496     1.0000 0.60060  0.13420  0.45050  Biso   1.000  H
  O5       1.0000 0.54510  0.13200  0.45190  Biso   1.000  O
  C466     1.0000 0.42710  0.36200  0.31010  Biso   1.000  C
  H497     1.0000 0.43820  0.36590  0.34210  Biso   1.000  H
  H498     1.0000 0.39870  0.37170  0.30520  Biso   1.000  H
  C467     1.0000 0.44690  0.42900  0.28300  Biso   1.000  C
  H499     1.0000 0.44290  0.49290  0.29130  Biso   1.000  H
  H500     1.0000 0.43740  0.42150  0.25080  Biso   1.000  H
  C468     1.0000 0.48990  0.40100  0.29700  Biso   1.000  C
  H501     1.0000 0.49860  0.36940  0.27230  Biso   1.000  H
  H502     1.0000 0.50650  0.45480  0.30510  Biso   1.000  H
  C469     1.0000 0.49310  0.33600  0.33740  Biso   1.000  C
  H503     1.0000 0.52070  0.32890  0.35170  Biso   1.000  H
  H504     1.0000 0.47920  0.36310  0.35930  Biso   1.000  H
  C470     1.0000 0.47520  0.24200  0.32200  Biso   1.000  C
  H505     1.0000 0.46980  0.20660  0.34760  Biso   1.000  H
  H506     1.0000 0.49250  0.20660  0.30700  Biso   1.000  H
  C471     1.0000 0.43720  0.26900  0.29030  Biso   1.000  C
  H507     1.0000 0.44150  0.27670  0.25970  Biso   1.000  H
  H508     1.0000 0.41650  0.22390  0.29040  Biso   1.000  H
  C472     1.0000 0.58410  0.38200  0.33400  Biso   1.000  C
  H509     1.0000 0.56650  0.39530  0.30550  Biso   1.000  H
  H510     1.0000 0.60420  0.42950  0.34010  Biso   1.000  H
  C473     1.0000 0.56050  0.37700  0.37200  Biso   1.000  C
  H511     1.0000 0.54310  0.43000  0.37170  Biso   1.000  H
  H512     1.0000 0.54500  0.32090  0.37070  Biso   1.000  H
  C474     1.0000 0.59290  0.37800  0.41400  Biso   1.000  C
  H513     1.0000 0.59190  0.32270  0.43180  Biso   1.000  H
  H514     1.0000 0.59030  0.43170  0.43260  Biso   1.000  H
  C475     1.0000 0.63140  0.38200  0.39620  Biso   1.000  C
  H515     1.0000 0.63000  0.43150  0.37400  Biso   1.000  H
  H516     1.0000 0.65370  0.39470  0.42070  Biso   1.000  H
  C476     1.0000 0.63660  0.29000  0.37500  Biso   1.000  C
  H517     1.0000 0.63390  0.24000  0.39530  Biso   1.000  H
  H518     1.0000 0.66240  0.28610  0.36660  Biso   1.000  H
  C477     1.0000 0.60290  0.28800  0.33260  Biso   1.000  C
  H519     1.0000 0.61330  0.28000  0.30530  Biso   1.000  H
  H520     1.0000 0.58420  0.23870  0.33460  Biso   1.000  H
  C478     1.0000 0.51730  0.70000  0.25530  Biso   1.000  C
  H521     1.0000 0.51820  0.76470  0.24650  Biso   1.000  H
  H522     1.0000 0.53930  0.68790  0.28000  Biso   1.000  H
  C479     1.0000 0.47900  0.67800  0.26780  Biso   1.000  C
  H523     1.0000 0.45780  0.69720  0.24350  Biso   1.000  H
  H524     1.0000 0.47670  0.71360  0.29430  Biso   1.000  H
  C480     1.0000 0.47280  0.58100  0.27730  Biso   1.000  C
  H525     1.0000 0.44450  0.56960  0.26930  Biso   1.000  H
  H526     1.0000 0.48030  0.57320  0.30980  Biso   1.000  H
  C481     1.0000 0.49210  0.50800  0.25690  Biso   1.000  C
  H527     1.0000 0.50610  0.46830  0.28060  Biso   1.000  H
  H528     1.0000 0.47200  0.47110  0.23790  Biso   1.000  H
  C482     1.0000 0.52040  0.54100  0.22950  Biso   1.000  C
  H529     1.0000 0.51670  0.50410  0.20220  Biso   1.000  H
  H530     1.0000 0.54700  0.52900  0.24620  Biso   1.000  H
  C483     1.0000 0.51780  0.63800  0.21660  Biso   1.000  C
  H531     1.0000 0.54030  0.65340  0.20310  Biso   1.000  H
  H532     1.0000 0.49390  0.64750  0.19400  Biso   1.000  H
  C484     1.0000 0.45370  0.13000  0.08800  Biso   1.000  C
  H533     1.0000 0.46870  0.10790  0.06610  Biso   1.000  H
  H534     1.0000 0.42800  0.10000  0.08080  Biso   1.000  H
  C485     1.0000 0.47370  0.09500  0.13200  Biso   1.000  C
  H535     1.0000 0.45370  0.07990  0.14950  Biso   1.000  H
  H536     1.0000 0.48740  0.03860  0.12780  Biso   1.000  H
  C486     1.0000 0.50270  0.16000  0.15960  Biso   1.000  C
  H537     1.0000 0.49110  0.18900  0.18280  Biso   1.000  H
  H538     1.0000 0.52630  0.12670  0.17390  Biso   1.000  H
  C487     1.0000 0.51280  0.23100  0.12800  Biso   1.000  C
  H539     1.0000 0.53370  0.27110  0.14360  Biso   1.000  H
  H540     1.0000 0.52250  0.20090  0.10340  Biso   1.000  H
  C488     1.0000 0.47700  0.28800  0.10800  Biso   1.000  C
  H541     1.0000 0.48400  0.33920  0.09090  Biso   1.000  H
  H542     1.0000 0.46530  0.31410  0.13280  Biso   1.000  H
  C489     1.0000 0.44690  0.23000  0.07950  Biso   1.000  C
  H543     1.0000 0.44740  0.24250  0.04820  Biso   1.000  H
  H544     1.0000 0.42070  0.24550  0.08450  Biso   1.000  H
  C490     1.0000 0.38000  0.15300  0.17200  Biso   1.000  C
  H545     1.0000 0.35730  0.19060  0.15930  Biso   1.000  H
  H546     1.0000 0.39790  0.15440  0.15080  Biso   1.000  H
  C491     1.0000 0.40100  0.20000  0.21500  Biso   1.000  C
  H547     1.0000 0.38190  0.21160  0.23360  Biso   1.000  H
  H548     1.0000 0.41100  0.25910  0.20690  Biso   1.000  H
  C492     1.0000 0.43500  0.14500  0.24100  Biso   1.000  C
  H549     1.0000 0.45950  0.17700  0.24130  Biso   1.000  H
  H550     1.0000 0.43130  0.13740  0.27170  Biso   1.000  H
  C493     1.0000 0.43600  0.05100  0.21900  Biso   1.000  C
  H551     1.0000 0.45490  0.01190  0.23860  Biso   1.000  H
  H552     1.0000 0.44490  0.05800  0.19080  Biso   1.000  H
  C494     1.0000 0.39600  0.00200  0.21000  Biso   1.000  C
  H553     1.0000 0.38610  0.99710  0.23750  Biso   1.000  H
  H554     1.0000 0.39900  0.94040  0.19850  Biso   1.000  H
  C495     1.0000 0.36630  0.05500  0.17500  Biso   1.000  C
  H555     1.0000 0.34070  0.05510  0.18400  Biso   1.000  H
  H556     1.0000 0.36340  0.02560  0.14600  Biso   1.000  H
  C496     1.0000 0.39270  0.97360  0.15200  Biso   1.000  C
  C497     1.0000 0.35410  0.96600  0.16220  Biso   1.000  C
  H557     1.0000 0.33130  0.98980  0.14410  Biso   1.000  H
  C498     1.0000 0.35430  0.92470  0.19760  Biso   1.000  C
  H558     1.0000 0.32990  0.91940  0.20620  Biso   1.000  H
  C499     1.0000 0.38260  0.88920  0.22320  Biso   1.000  C
  H559     1.0000 0.37630  0.85940  0.24810  Biso   1.000  H
  C500     1.0000 0.42420  0.88610  0.22100  Biso   1.000  C
  H560     1.0000 0.44430  0.85870  0.24200  Biso   1.000  H
  C501     1.0000 0.42870  0.93360  0.17980  Biso   1.000  C
  H561     1.0000 0.45330  0.93850  0.17150  Biso   1.000  H
  C502     1.0000 0.39890  0.02620  0.11260  Biso   1.000  C
  H562     1.0000 0.37570  0.04980  0.09530  Biso   1.000  H
  C503     1.0000 0.42970  0.04580  0.09750  Biso   1.000  C
  H563     1.0000 0.45430  0.01960  0.10920  Biso   1.000  H
  C504     1.0000 0.42420  0.11000  0.06190  Biso   1.000  C
  H564     1.0000 0.39940  0.13420  0.04950  Biso   1.000  H
  O6       1.0000 0.45490  0.13200  0.04810  Biso   1.000  O
  C505     1.0000 0.57290  0.36200  0.18990  Biso   1.000  C
  H565     1.0000 0.56180  0.36590  0.15790  Biso   1.000  H
  H566     1.0000 0.60130  0.37170  0.19480  Biso   1.000  H
  C506     1.0000 0.55310  0.42900  0.21700  Biso   1.000  C
  H567     1.0000 0.55710  0.49290  0.20870  Biso   1.000  H
  H568     1.0000 0.56260  0.42150  0.24920  Biso   1.000  H
  C507     1.0000 0.51010  0.40100  0.20300  Biso   1.000  C
  H569     1.0000 0.50140  0.36940  0.22770  Biso   1.000  H
  H570     1.0000 0.49350  0.45480  0.19490  Biso   1.000  H
  C508     1.0000 0.50690  0.33600  0.16260  Biso   1.000  C
  H571     1.0000 0.47930  0.32890  0.14830  Biso   1.000  H
  H572     1.0000 0.52080  0.36310  0.14070  Biso   1.000  H
  C509     1.0000 0.52480  0.24200  0.17800  Biso   1.000  C
  H573     1.0000 0.53020  0.20660  0.15240  Biso   1.000  H
  H574     1.0000 0.50750  0.20660  0.19300  Biso   1.000  H
  C510     1.0000 0.56280  0.26900  0.20970  Biso   1.000  C
  H575     1.0000 0.55850  0.27670  0.24030  Biso   1.000  H
  H576     1.0000 0.58350  0.22390  0.20960  Biso   1.000  H
  C511     1.0000 0.41590  0.38200  0.16600  Biso   1.000  C
  H577     1.0000 0.43350  0.39530  0.19450  Biso   1.000  H
  H578     1.0000 0.39580  0.42950  0.15990  Biso   1.000  H
  C512     1.0000 0.43950  0.37700  0.12800  Biso   1.000  C
  H579     1.0000 0.45690  0.43000  0.12830  Biso   1.000  H
  H580     1.0000 0.45500  0.32090  0.12930  Biso   1.000  H
  C513     1.0000 0.40710  0.37800  0.08600  Biso   1.000  C
  H581     1.0000 0.40810  0.32270  0.06820  Biso   1.000  H
  H582     1.0000 0.40970  0.43170  0.06740  Biso   1.000  H
  C514     1.0000 0.36860  0.38200  0.10380  Biso   1.000  C
  H583     1.0000 0.37000  0.43150  0.12600  Biso   1.000  H
  H584     1.0000 0.34630  0.39470  0.07930  Biso   1.000  H
  C515     1.0000 0.36340  0.29000  0.12500  Biso   1.000  C
  H585     1.0000 0.36610  0.24000  0.10470  Biso   1.000  H
  H586     1.0000 0.33760  0.28610  0.13340  Biso   1.000  H
  C516     1.0000 0.39710  0.28800  0.16740  Biso   1.000  C
  H587     1.0000 0.38670  0.28000  0.19470  Biso   1.000  H
  H588     1.0000 0.41580  0.23870  0.16540  Biso   1.000  H
  C517     1.0000 0.48270  0.70000  0.24470  Biso   1.000  C
  H589     1.0000 0.48180  0.76470  0.25350  Biso   1.000  H
  H590     1.0000 0.46070  0.68790  0.22000  Biso   1.000  H
  C518     1.0000 0.52100  0.67800  0.23220  Biso   1.000  C
  H591     1.0000 0.54220  0.69720  0.25650  Biso   1.000  H
  H592     1.0000 0.52330  0.71360  0.20570  Biso   1.000  H
  C519     1.0000 0.52720  0.58100  0.22270  Biso   1.000  C
  H593     1.0000 0.55550  0.56960  0.23070  Biso   1.000  H
  H594     1.0000 0.51970  0.57320  0.19020  Biso   1.000  H
  C520     1.0000 0.50790  0.50800  0.24310  Biso   1.000  C
  H595     1.0000 0.49390  0.46830  0.21940  Biso   1.000  H
  H596     1.0000 0.52800  0.47110  0.26210  Biso   1.000  H
  C521     1.0000 0.47960  0.54100  0.27050  Biso   1.000  C
  H597     1.0000 0.48330  0.50410  0.29780  Biso   1.000  H
  H598     1.0000 0.45300  0.52900  0.25380  Biso   1.000  H
  C522     1.0000 0.48220  0.63800  0.28340  Biso   1.000  C
  H599     1.0000 0.45970  0.65340  0.29690  Biso   1.000  H
  H600     1.0000 0.50610  0.64750  0.30600  Biso   1.000  H
  C523     1.0000 0.04630  0.63000  0.41200  Biso   1.000  C
  H601     1.0000 0.03130  0.60790  0.43390  Biso   1.000  H
  H602     1.0000 0.07200  0.60000  0.41920  Biso   1.000  H
  C524     1.0000 0.02630  0.59500  0.36800  Biso   1.000  C
  H603     1.0000 0.04630  0.57990  0.35050  Biso   1.000  H
  H604     1.0000 0.01260  0.53860  0.37220  Biso   1.000  H
  C525     1.0000 0.99730  0.66000  0.34040  Biso   1.000  C
  H605     1.0000 0.00890  0.68900  0.31720  Biso   1.000  H
  H606     1.0000 0.97370  0.62670  0.32610  Biso   1.000  H
  C526     1.0000 0.98720  0.73100  0.37200  Biso   1.000  C
  H607     1.0000 0.96630  0.77110  0.35640  Biso   1.000  H
  H608     1.0000 0.97750  0.70090  0.39660  Biso   1.000  H
  C527     1.0000 0.02300  0.78800  0.39200  Biso   1.000  C
  H609     1.0000 0.01600  0.83920  0.40910  Biso   1.000  H
  H610     1.0000 0.03470  0.81410  0.36720  Biso   1.000  H
  C528     1.0000 0.05310  0.73000  0.42050  Biso   1.000  C
  H611     1.0000 0.05260  0.74250  0.45180  Biso   1.000  H
  H612     1.0000 0.07930  0.74550  0.41550  Biso   1.000  H
  C529     1.0000 0.12000  0.65300  0.32800  Biso   1.000  C
  H613     1.0000 0.14270  0.69060  0.34070  Biso   1.000  H
  H614     1.0000 0.10210  0.65440  0.34920  Biso   1.000  H
  C530     1.0000 0.09900  0.70000  0.28500  Biso   1.000  C
  H615     1.0000 0.11810  0.71160  0.26640  Biso   1.000  H
  H616     1.0000 0.08900  0.75910  0.29310  Biso   1.000  H
  C531     1.0000 0.06500  0.64500  0.25900  Biso   1.000  C
  H617     1.0000 0.04050  0.67700  0.25870  Biso   1.000  H
  H618     1.0000 0.06870  0.63740  0.22830  Biso   1.000  H
  C532     1.0000 0.06400  0.55100  0.28100  Biso   1.000  C
  H619     1.0000 0.04510  0.51190  0.26140  Biso   1.000  H
  H620     1.0000 0.05510  0.55800  0.30920  Biso   1.000  H
  C533     1.0000 0.10400  0.50200  0.29000  Biso   1.000  C
  H621     1.0000 0.11390  0.49710  0.26250  Biso   1.000  H
  H622     1.0000 0.10100  0.44040  0.30150  Biso   1.000  H
  C534     1.0000 0.13370  0.55500  0.32500  Biso   1.000  C
  H623     1.0000 0.15930  0.55510  0.31600  Biso   1.000  H
  H624     1.0000 0.13660  0.52560  0.35400  Biso   1.000  H
  C535     1.0000 0.10730  0.47360  0.34800  Biso   1.000  C
  C536     1.0000 0.14590  0.46600  0.33780  Biso   1.000  C
  H625     1.0000 0.16870  0.48980  0.35590  Biso   1.000  H
  C537     1.0000 0.14570  0.42470  0.30240  Biso   1.000  C
  H626     1.0000 0.17010  0.41940  0.29380  Biso   1.000  H
  C538     1.0000 0.11740  0.38920  0.27680  Biso   1.000  C
  H627     1.0000 0.12370  0.35940  0.25190  Biso   1.000  H
  C539     1.0000 0.07580  0.38610  0.27900  Biso   1.000  C
  H628     1.0000 0.05570  0.35870  0.25800  Biso   1.000  H
  C540     1.0000 0.07130  0.43360  0.32020  Biso   1.000  C
  H629     1.0000 0.04670  0.43850  0.32850  Biso   1.000  H
  C541     1.0000 0.10110  0.52620  0.38740  Biso   1.000  C
  H630     1.0000 0.12430  0.54980  0.40470  Biso   1.000  H
  C542     1.0000 0.07030  0.54580  0.40250  Biso   1.000  C
  H631     1.0000 0.04570  0.51960  0.39080  Biso   1.000  H
  C543     1.0000 0.07580  0.61000  0.43810  Biso   1.000  C
  H632     1.0000 0.10060  0.63420  0.45050  Biso   1.000  H
  O7       1.0000 0.04510  0.63200  0.45190  Biso   1.000  O
  C544     1.0000 0.92710  0.86200  0.31010  Biso   1.000  C
  H633     1.0000 0.93820  0.86590  0.34210  Biso   1.000  H
  H634     1.0000 0.89870  0.87170  0.30520  Biso   1.000  H
  C545     1.0000 0.94690  0.92900  0.28300  Biso   1.000  C
  H635     1.0000 0.94290  0.99290  0.29130  Biso   1.000  H
  H636     1.0000 0.93740  0.92150  0.25080  Biso   1.000  H
  C546     1.0000 0.98990  0.90100  0.29700  Biso   1.000  C
  H637     1.0000 0.99860  0.86940  0.27230  Biso   1.000  H
  H638     1.0000 0.00650  0.95480  0.30510  Biso   1.000  H
  C547     1.0000 0.99310  0.83600  0.33740  Biso   1.000  C
  H639     1.0000 0.02070  0.82890  0.35170  Biso   1.000  H
  H640     1.0000 0.97920  0.86310  0.35930  Biso   1.000  H
  C548     1.0000 0.97520  0.74200  0.32200  Biso   1.000  C
  H641     1.0000 0.96980  0.70660  0.34760  Biso   1.000  H
  H642     1.0000 0.99250  0.70660  0.30700  Biso   1.000  H
  C549     1.0000 0.93720  0.76900  0.29030  Biso   1.000  C
  H643     1.0000 0.94150  0.77670  0.25970  Biso   1.000  H
  H644     1.0000 0.91650  0.72390  0.29040  Biso   1.000  H
  C550     1.0000 0.08410  0.88200  0.33400  Biso   1.000  C
  H645     1.0000 0.06650  0.89530  0.30550  Biso   1.000  H
  H646     1.0000 0.10420  0.92950  0.34010  Biso   1.000  H
  C551     1.0000 0.06050  0.87700  0.37200  Biso   1.000  C
  H647     1.0000 0.04310  0.93000  0.37170  Biso   1.000  H
  H648     1.0000 0.04500  0.82090  0.37070  Biso   1.000  H
  C552     1.0000 0.09290  0.87800  0.41400  Biso   1.000  C
  H649     1.0000 0.09190  0.82270  0.43180  Biso   1.000  H
  H650     1.0000 0.09030  0.93170  0.43260  Biso   1.000  H
  C553     1.0000 0.13140  0.88200  0.39620  Biso   1.000  C
  H651     1.0000 0.13000  0.93150  0.37400  Biso   1.000  H
  H652     1.0000 0.15370  0.89470  0.42070  Biso   1.000  H
  C554     1.0000 0.13660  0.79000  0.37500  Biso   1.000  C
  H653     1.0000 0.13390  0.74000  0.39530  Biso   1.000  H
  H654     1.0000 0.16240  0.78610  0.36660  Biso   1.000  H
  C555     1.0000 0.10290  0.78800  0.33260  Biso   1.000  C
  H655     1.0000 0.11330  0.78000  0.30530  Biso   1.000  H
  H656     1.0000 0.08420  0.73870  0.33460  Biso   1.000  H
  C556     1.0000 0.01730  0.20000  0.25530  Biso   1.000  C
  H657     1.0000 0.01820  0.26470  0.24650  Biso   1.000  H
  H658     1.0000 0.03930  0.18790  0.28000  Biso   1.000  H
  C557     1.0000 0.97900  0.17800  0.26780  Biso   1.000  C
  H659     1.0000 0.95780  0.19720  0.24350  Biso   1.000  H
  H660     1.0000 0.97670  0.21360  0.29430  Biso   1.000  H
  C558     1.0000 0.97280  0.08100  0.27730  Biso   1.000  C
  H661     1.0000 0.94450  0.06960  0.26930  Biso   1.000  H
  H662     1.0000 0.98030  0.07320  0.30980  Biso   1.000  H
  C559     1.0000 0.99210  0.00800  0.25690  Biso   1.000  C
  H663     1.0000 0.00610  0.96830  0.28060  Biso   1.000  H
  H664     1.0000 0.97200  0.97110  0.23790  Biso   1.000  H
  C560     1.0000 0.02040  0.04100  0.22950  Biso   1.000  C
  H665     1.0000 0.01670  0.00410  0.20220  Biso   1.000  H
  H666     1.0000 0.04700  0.02900  0.24620  Biso   1.000  H
  C561     1.0000 0.01780  0.13800  0.21660  Biso   1.000  C
  H667     1.0000 0.04030  0.15340  0.20310  Biso   1.000  H
  H668     1.0000 0.99390  0.14750  0.19400  Biso   1.000  H
  C562     1.0000 0.95370  0.63000  0.08800  Biso   1.000  C
  H669     1.0000 0.96870  0.60790  0.06610  Biso   1.000  H
  H670     1.0000 0.92800  0.60000  0.08080  Biso   1.000  H
  C563     1.0000 0.97370  0.59500  0.13200  Biso   1.000  C
  H671     1.0000 0.95370  0.57990  0.14950  Biso   1.000  H
  H672     1.0000 0.98740  0.53860  0.12780  Biso   1.000  H
  C564     1.0000 0.00270  0.66000  0.15960  Biso   1.000  C
  H673     1.0000 0.99110  0.68900  0.18280  Biso   1.000  H
  H674     1.0000 0.02630  0.62670  0.17390  Biso   1.000  H
  C565     1.0000 0.01280  0.73100  0.12800  Biso   1.000  C
  H675     1.0000 0.03370  0.77110  0.14360  Biso   1.000  H
  H676     1.0000 0.02250  0.70090  0.10340  Biso   1.000  H
  C566     1.0000 0.97700  0.78800  0.10800  Biso   1.000  C
  H677     1.0000 0.98400  0.83920  0.09090  Biso   1.000  H
  H678     1.0000 0.96530  0.81410  0.13280  Biso   1.000  H
  C567     1.0000 0.94690  0.73000  0.07950  Biso   1.000  C
  H679     1.0000 0.94740  0.74250  0.04820  Biso   1.000  H
  H680     1.0000 0.92070  0.74550  0.08450  Biso   1.000  H
  C568     1.0000 0.88000  0.65300  0.17200  Biso   1.000  C
  H681     1.0000 0.85730  0.69060  0.15930  Biso   1.000  H
  H682     1.0000 0.89790  0.65440  0.15080  Biso   1.000  H
  C569     1.0000 0.90100  0.70000  0.21500  Biso   1.000  C
  H683     1.0000 0.88190  0.71160  0.23360  Biso   1.000  H
  H684     1.0000 0.91100  0.75910  0.20690  Biso   1.000  H
  C570     1.0000 0.93500  0.64500  0.24100  Biso   1.000  C
  H685     1.0000 0.95950  0.67700  0.24130  Biso   1.000  H
  H686     1.0000 0.93130  0.63740  0.27170  Biso   1.000  H
  C571     1.0000 0.93600  0.55100  0.21900  Biso   1.000  C
  H687     1.0000 0.95490  0.51190  0.23860  Biso   1.000  H
  H688     1.0000 0.94490  0.55800  0.19080  Biso   1.000  H
  C572     1.0000 0.89600  0.50200  0.21000  Biso   1.000  C
  H689     1.0000 0.88610  0.49710  0.23750  Biso   1.000  H
  H690     1.0000 0.89900  0.44040  0.19850  Biso   1.000  H
  C573     1.0000 0.86630  0.55500  0.17500  Biso   1.000  C
  H691     1.0000 0.84070  0.55510  0.18400  Biso   1.000  H
  H692     1.0000 0.86340  0.52560  0.14600  Biso   1.000  H
  C574     1.0000 0.89270  0.47360  0.15200  Biso   1.000  C
  C575     1.0000 0.85410  0.46600  0.16220  Biso   1.000  C
  H693     1.0000 0.83130  0.48980  0.14410  Biso   1.000  H
  C576     1.0000 0.85430  0.42470  0.19760  Biso   1.000  C
  H694     1.0000 0.82990  0.41940  0.20620  Biso   1.000  H
  C577     1.0000 0.88260  0.38920  0.22320  Biso   1.000  C
  H695     1.0000 0.87630  0.35940  0.24810  Biso   1.000  H
  C578     1.0000 0.92420  0.38610  0.22100  Biso   1.000  C
  H696     1.0000 0.94430  0.35870  0.24200  Biso   1.000  H
  C579     1.0000 0.92870  0.43360  0.17980  Biso   1.000  C
  H697     1.0000 0.95330  0.43850  0.17150  Biso   1.000  H
  C580     1.0000 0.89890  0.52620  0.11260  Biso   1.000  C
  H698     1.0000 0.87570  0.54980  0.09530  Biso   1.000  H
  C581     1.0000 0.92970  0.54580  0.09750  Biso   1.000  C
  H699     1.0000 0.95430  0.51960  0.10920  Biso   1.000  H
  C582     1.0000 0.92420  0.61000  0.06190  Biso   1.000  C
  H700     1.0000 0.89940  0.63420  0.04950  Biso   1.000  H
  O8       1.0000 0.95490  0.63200  0.04810  Biso   1.000  O
  C583     1.0000 0.07290  0.86200  0.18990  Biso   1.000  C
  H701     1.0000 0.06180  0.86590  0.15790  Biso   1.000  H
  H702     1.0000 0.10130  0.87170  0.19480  Biso   1.000  H
  C584     1.0000 0.05310  0.92900  0.21700  Biso   1.000  C
  H703     1.0000 0.05710  0.99290  0.20870  Biso   1.000  H
  H704     1.0000 0.06260  0.92150  0.24920  Biso   1.000  H
  C585     1.0000 0.01010  0.90100  0.20300  Biso   1.000  C
  H705     1.0000 0.00140  0.86940  0.22770  Biso   1.000  H
  H706     1.0000 0.99350  0.95480  0.19490  Biso   1.000  H
  C586     1.0000 0.00690  0.83600  0.16260  Biso   1.000  C
  H707     1.0000 0.97930  0.82890  0.14830  Biso   1.000  H
  H708     1.0000 0.02080  0.86310  0.14070  Biso   1.000  H
  C587     1.0000 0.02480  0.74200  0.17800  Biso   1.000  C
  H709     1.0000 0.03020  0.70660  0.15240  Biso   1.000  H
  H710     1.0000 0.00750  0.70660  0.19300  Biso   1.000  H
  C588     1.0000 0.06280  0.76900  0.20970  Biso   1.000  C
  H711     1.0000 0.05850  0.77670  0.24030  Biso   1.000  H
  H712     1.0000 0.08350  0.72390  0.20960  Biso   1.000  H
  C589     1.0000 0.91590  0.88200  0.16600  Biso   1.000  C
  H713     1.0000 0.93350  0.89530  0.19450  Biso   1.000  H
  H714     1.0000 0.89580  0.92950  0.15990  Biso   1.000  H
  C590     1.0000 0.93950  0.87700  0.12800  Biso   1.000  C
  H715     1.0000 0.95690  0.93000  0.12830  Biso   1.000  H
  H716     1.0000 0.95500  0.82090  0.12930  Biso   1.000  H
  C591     1.0000 0.90710  0.87800  0.08600  Biso   1.000  C
  H717     1.0000 0.90810  0.82270  0.06820  Biso   1.000  H
  H718     1.0000 0.90970  0.93170  0.06740  Biso   1.000  H
  C592     1.0000 0.86860  0.88200  0.10380  Biso   1.000  C
  H719     1.0000 0.87000  0.93150  0.12600  Biso   1.000  H
  H720     1.0000 0.84630  0.89470  0.07930  Biso   1.000  H
  C593     1.0000 0.86340  0.79000  0.12500  Biso   1.000  C
  H721     1.0000 0.86610  0.74000  0.10470  Biso   1.000  H
  H722     1.0000 0.83760  0.78610  0.13340  Biso   1.000  H
  C594     1.0000 0.89710  0.78800  0.16740  Biso   1.000  C
  H723     1.0000 0.88670  0.78000  0.19470  Biso   1.000  H
  H724     1.0000 0.91580  0.73870  0.16540  Biso   1.000  H
  C595     1.0000 0.98270  0.20000  0.24470  Biso   1.000  C
  H725     1.0000 0.98180  0.26470  0.25350  Biso   1.000  H
  H726     1.0000 0.96070  0.18790  0.22000  Biso   1.000  H
  C596     1.0000 0.02100  0.17800  0.23220  Biso   1.000  C
  H727     1.0000 0.04220  0.19720  0.25650  Biso   1.000  H
  H728     1.0000 0.02330  0.21360  0.20570  Biso   1.000  H
  C597     1.0000 0.02720  0.08100  0.22270  Biso   1.000  C
  H729     1.0000 0.05550  0.06960  0.23070  Biso   1.000  H
  H730     1.0000 0.01970  0.07320  0.19020  Biso   1.000  H
  C598     1.0000 0.00790  0.00800  0.24310  Biso   1.000  C
  H731     1.0000 0.99390  0.96830  0.21940  Biso   1.000  H
  H732     1.0000 0.02800  0.97110  0.26210  Biso   1.000  H
  C599     1.0000 0.97960  0.04100  0.27050  Biso   1.000  C
  H733     1.0000 0.98330  0.00410  0.29780  Biso   1.000  H
  H734     1.0000 0.95300  0.02900  0.25380  Biso   1.000  H
  C600     1.0000 0.98220  0.13800  0.28340  Biso   1.000  C
  H735     1.0000 0.95970  0.15340  0.29690  Biso   1.000  H
  H736     1.0000 0.00610  0.14750  0.30600  Biso   1.000  H
