data_image0
_cell_length_a       34.0465
_cell_length_b       14.9235
_cell_length_c       30.8377
_cell_angle_alpha    90
_cell_angle_beta     100.629
_cell_angle_gamma    90

_symmetry_space_group_name_H-M    "P 1"
_symmetry_int_tables_number       1

loop_
  _symmetry_equiv_pos_as_xyz
  'x, y, z'

loop_
  _atom_site_label
  _atom_site_occupancy
  _atom_site_fract_x
  _atom_site_fract_y
  _atom_site_fract_z
  _atom_site_thermal_displace_type
  _atom_site_B_iso_or_equiv
  _atom_site_type_symbol
  I1       1.0000 0.61844  0.32330  0.20124  Biso   1.000  I
  Zn1      1.0000 0.66895  0.35080  0.27250  Biso   1.000  Zn
  I2       1.0000 0.73171  0.26100  0.29551  Biso   1.000  I
  N1       1.0000 0.63880  0.33720  0.32480  Biso   1.000  N
  N2       1.0000 0.68390  0.48790  0.27730  Biso   1.000  N
  C1       1.0000 0.66040  0.54310  0.25090  Biso   1.000  C
  C2       1.0000 0.71410  0.52380  0.30540  Biso   1.000  C
  C3       1.0000 0.66580  0.63330  0.25060  Biso   1.000  C
  H1       1.0000 0.63840  0.51840  0.23100  Biso   1.000  H
  C4       1.0000 0.72240  0.61380  0.30660  Biso   1.000  C
  H2       1.0000 0.73060  0.48540  0.32550  Biso   1.000  H
  C5       1.0000 0.69740  0.67040  0.27970  Biso   1.000  C
  H3       1.0000 0.64820  0.67020  0.23070  Biso   1.000  H
  H4       1.0000 0.74520  0.63650  0.32600  Biso   1.000  H
  C6       1.0000 0.70430  0.76970  0.27960  Biso   1.000  C
  N3       1.0000 0.67937  0.81480  0.24900  Biso   1.000  N
  N4       1.0000 0.73410  0.80460  0.30820  Biso   1.000  N
  C7       1.0000 0.68780  0.90060  0.24630  Biso   1.000  C
  C8       1.0000 0.73950  0.89320  0.30380  Biso   1.000  C
  C9       1.0000 0.66210  0.95480  0.21160  Biso   1.000  C
  N5       1.0000 0.71766  0.94430  0.27250  Biso   1.000  N
  C10      1.0000 0.77080  0.94010  0.33500  Biso   1.000  C
  C11      1.0000 0.62840  0.91620  0.18770  Biso   1.000  C
  C12      1.0000 0.67150  0.04150  0.20270  Biso   1.000  C
  C13      1.0000 0.77480  0.03070  0.33270  Biso   1.000  C
  C14      1.0000 0.79710  0.89490  0.36740  Biso   1.000  C
  C15      1.0000 0.60420  0.96620  0.15580  Biso   1.000  C
  H5       1.0000 0.62180  0.85590  0.19310  Biso   1.000  H
  C16      1.0000 0.64620  0.08660  0.16910  Biso   1.000  C
  H6       1.0000 0.69450  0.06990  0.21900  Biso   1.000  H
  H7       1.0000 0.75790  0.06370  0.31030  Biso   1.000  H
  C17      1.0000 0.80310  0.07410  0.36270  Biso   1.000  C
  C18      1.0000 0.82430  0.94290  0.39630  Biso   1.000  C
  H8       1.0000 0.79620  0.83140  0.36940  Biso   1.000  H
  N6       1.0000 0.61330  0.05020  0.14610  Biso   1.000  N
  H9       1.0000 0.58030  0.94000  0.14020  Biso   1.000  H
  H10      1.0000 0.65280  0.14620  0.16230  Biso   1.000  H
  N7       1.0000 0.82770  0.03050  0.39460  Biso   1.000  N
  H11      1.0000 0.80530  0.13740  0.36080  Biso   1.000  H
  H12      1.0000 0.84160  0.91140  0.41890  Biso   1.000  H
  Zn2      1.0000 0.57189  0.12000  0.10100  Biso   1.000  Zn
  Zn3      1.0000 0.86669  0.10780  0.43670  Biso   1.000  Zn
  I3       1.0000 0.61032  0.23711  0.06434  Biso   1.000  I
  N8       1.0000 0.55840  0.01800  0.05470  Biso   1.000  N
  I4       1.0000 0.51207  0.14930  0.13747  Biso   1.000  I
  N9       1.0000 0.91650  0.01970  0.44760  Biso   1.000  N
  I5       1.0000 0.88279  0.24910  0.39779  Biso   1.000  I
  I6       1.0000 0.84414  0.10890  0.50962  Biso   1.000  I
  C19      1.0000 0.93530  0.01490  0.41460  Biso   1.000  C
  C20      1.0000 0.92880  0.96920  0.48350  Biso   1.000  C
  C21      1.0000 0.96740  0.95950  0.41450  Biso   1.000  C
  H13      1.0000 0.92650  0.05140  0.38940  Biso   1.000  H
  C22      1.0000 0.96160  0.91150  0.48520  Biso   1.000  C
  H14      1.0000 0.91530  0.97240  0.50780  Biso   1.000  H
  H15      1.0000 0.98030  0.95730  0.38970  Biso   1.000  H
  C23      1.0000 0.98090  0.90680  0.45110  Biso   1.000  C
  H16      1.0000 0.97030  0.87570  0.51070  Biso   1.000  H
  C24      1.0000 0.01350  0.84320  0.45120  Biso   1.000  C
  N10      1.0000 0.03680  0.85920  0.42180  Biso   1.000  N
  N11      1.0000 0.01678  0.77300  0.47860  Biso   1.000  N
  C25      1.0000 0.06520  0.79740  0.42070  Biso   1.000  C
  C26      1.0000 0.04560  0.71670  0.47420  Biso   1.000  C
  N12      1.0000 0.07110  0.72570  0.44630  Biso   1.000  N
  C27      1.0000 0.09120  0.81030  0.38730  Biso   1.000  C
  C28      1.0000 0.04950  0.63400  0.50240  Biso   1.000  C
  C29      1.0000 0.12470  0.75910  0.38800  Biso   1.000  C
  C30      1.0000 0.08180  0.87690  0.35530  Biso   1.000  C
  C31      1.0000 0.08040  0.57590  0.50130  Biso   1.000  C
  C32      1.0000 0.02240  0.61310  0.52830  Biso   1.000  C
  C33      1.0000 0.14730  0.77420  0.35710  Biso   1.000  C
  H17      1.0000 0.13190  0.71390  0.40980  Biso   1.000  H
  C34      1.0000 0.10700  0.88620  0.32520  Biso   1.000  C
  H18      1.0000 0.05910  0.91430  0.35430  Biso   1.000  H
  H19      1.0000 0.09890  0.58710  0.48230  Biso   1.000  H
  C35      1.0000 0.08450  0.50010  0.52830  Biso   1.000  C
  C36      1.0000 0.02780  0.53580  0.55400  Biso   1.000  C
  H20      1.0000 0.00000  0.65090  0.52880  Biso   1.000  H
  H21      1.0000 0.17060  0.73860  0.35800  Biso   1.000  H
  H22      1.0000 0.10080  0.93130  0.30320  Biso   1.000  H
  H23      1.0000 0.10630  0.46050  0.52800  Biso   1.000  H
  H24      1.0000 0.00860  0.52150  0.57180  Biso   1.000  H
  Zn4      1.0000 0.68040  0.35150  0.28610  Biso   1.000  Zn
  I7       1.0000 0.63750  0.30920  0.21130  Biso   1.000  I
  I8       1.0000 0.74600  0.27860  0.31680  Biso   1.000  I
  Zn5      1.0000 0.36700  0.59480  0.44650  Biso   1.000  Zn
  I9       1.0000 0.33560  0.58140  0.51590  Biso   1.000  I
  I10      1.0000 0.38358  0.74210  0.41230  Biso   1.000  I
  Zn6      1.0000 0.07710  0.62350  0.09700  Biso   1.000  Zn
  I11      1.0000 0.01940  0.66140  0.13510  Biso   1.000  I
  I12      1.0000 0.11570  0.73610  0.06500  Biso   1.000  I
  I13      1.0000 0.11844  0.82330  0.20124  Biso   1.000  I
  Zn7      1.0000 0.16895  0.85080  0.27250  Biso   1.000  Zn
  I14      1.0000 0.23171  0.76100  0.29551  Biso   1.000  I
  N13      1.0000 0.13880  0.83720  0.32480  Biso   1.000  N
  N14      1.0000 0.18390  0.98790  0.27730  Biso   1.000  N
  C37      1.0000 0.16040  0.04310  0.25090  Biso   1.000  C
  C38      1.0000 0.21410  0.02380  0.30540  Biso   1.000  C
  C39      1.0000 0.16580  0.13330  0.25060  Biso   1.000  C
  H25      1.0000 0.13840  0.01840  0.23100  Biso   1.000  H
  C40      1.0000 0.22240  0.11380  0.30660  Biso   1.000  C
  H26      1.0000 0.23060  0.98540  0.32550  Biso   1.000  H
  C41      1.0000 0.19740  0.17040  0.27970  Biso   1.000  C
  H27      1.0000 0.14820  0.17020  0.23070  Biso   1.000  H
  H28      1.0000 0.24520  0.13650  0.32600  Biso   1.000  H
  C42      1.0000 0.20430  0.26970  0.27960  Biso   1.000  C
  N15      1.0000 0.17937  0.31480  0.24900  Biso   1.000  N
  N16      1.0000 0.23410  0.30460  0.30820  Biso   1.000  N
  C43      1.0000 0.18780  0.40060  0.24630  Biso   1.000  C
  C44      1.0000 0.23950  0.39320  0.30380  Biso   1.000  C
  C45      1.0000 0.16210  0.45480  0.21160  Biso   1.000  C
  N17      1.0000 0.21766  0.44430  0.27250  Biso   1.000  N
  C46      1.0000 0.27080  0.44010  0.33500  Biso   1.000  C
  C47      1.0000 0.12840  0.41620  0.18770  Biso   1.000  C
  C48      1.0000 0.17150  0.54150  0.20270  Biso   1.000  C
  C49      1.0000 0.27480  0.53070  0.33270  Biso   1.000  C
  C50      1.0000 0.29710  0.39490  0.36740  Biso   1.000  C
  C51      1.0000 0.10420  0.46620  0.15580  Biso   1.000  C
  H29      1.0000 0.12180  0.35590  0.19310  Biso   1.000  H
  C52      1.0000 0.14620  0.58660  0.16910  Biso   1.000  C
  H30      1.0000 0.19450  0.56990  0.21900  Biso   1.000  H
  H31      1.0000 0.25790  0.56370  0.31030  Biso   1.000  H
  C53      1.0000 0.30310  0.57410  0.36270  Biso   1.000  C
  C54      1.0000 0.32430  0.44290  0.39630  Biso   1.000  C
  H32      1.0000 0.29620  0.33140  0.36940  Biso   1.000  H
  N18      1.0000 0.11330  0.55020  0.14610  Biso   1.000  N
  H33      1.0000 0.08030  0.44000  0.14020  Biso   1.000  H
  H34      1.0000 0.15280  0.64620  0.16230  Biso   1.000  H
  N19      1.0000 0.32770  0.53050  0.39460  Biso   1.000  N
  H35      1.0000 0.30530  0.63740  0.36080  Biso   1.000  H
  H36      1.0000 0.34160  0.41140  0.41890  Biso   1.000  H
  Zn8      1.0000 0.07189  0.62000  0.10100  Biso   1.000  Zn
  Zn9      1.0000 0.36669  0.60780  0.43670  Biso   1.000  Zn
  I15      1.0000 0.11032  0.73711  0.06434  Biso   1.000  I
  N20      1.0000 0.05840  0.51800  0.05470  Biso   1.000  N
  I16      1.0000 0.01207  0.64930  0.13747  Biso   1.000  I
  N21      1.0000 0.41650  0.51970  0.44760  Biso   1.000  N
  I17      1.0000 0.38279  0.74910  0.39779  Biso   1.000  I
  I18      1.0000 0.34414  0.60890  0.50962  Biso   1.000  I
  C55      1.0000 0.43530  0.51490  0.41460  Biso   1.000  C
  C56      1.0000 0.42880  0.46920  0.48350  Biso   1.000  C
  C57      1.0000 0.46740  0.45950  0.41450  Biso   1.000  C
  H37      1.0000 0.42650  0.55140  0.38940  Biso   1.000  H
  C58      1.0000 0.46160  0.41150  0.48520  Biso   1.000  C
  H38      1.0000 0.41530  0.47240  0.50780  Biso   1.000  H
  H39      1.0000 0.48030  0.45730  0.38970  Biso   1.000  H
  C59      1.0000 0.48090  0.40680  0.45110  Biso   1.000  C
  H40      1.0000 0.47030  0.37570  0.51070  Biso   1.000  H
  C60      1.0000 0.51350  0.34320  0.45120  Biso   1.000  C
  N22      1.0000 0.53680  0.35920  0.42180  Biso   1.000  N
  N23      1.0000 0.51678  0.27300  0.47860  Biso   1.000  N
  C61      1.0000 0.56520  0.29740  0.42070  Biso   1.000  C
  C62      1.0000 0.54560  0.21670  0.47420  Biso   1.000  C
  N24      1.0000 0.57110  0.22570  0.44630  Biso   1.000  N
  C63      1.0000 0.59120  0.31030  0.38730  Biso   1.000  C
  C64      1.0000 0.54950  0.13400  0.50240  Biso   1.000  C
  C65      1.0000 0.62470  0.25910  0.38800  Biso   1.000  C
  C66      1.0000 0.58180  0.37690  0.35530  Biso   1.000  C
  C67      1.0000 0.58040  0.07590  0.50130  Biso   1.000  C
  C68      1.0000 0.52240  0.11310  0.52830  Biso   1.000  C
  C69      1.0000 0.64730  0.27420  0.35710  Biso   1.000  C
  H41      1.0000 0.63190  0.21390  0.40980  Biso   1.000  H
  C70      1.0000 0.60700  0.38620  0.32520  Biso   1.000  C
  H42      1.0000 0.55910  0.41430  0.35430  Biso   1.000  H
  H43      1.0000 0.59890  0.08710  0.48230  Biso   1.000  H
  C71      1.0000 0.58450  0.00010  0.52830  Biso   1.000  C
  C72      1.0000 0.52780  0.03580  0.55400  Biso   1.000  C
  H44      1.0000 0.50000  0.15090  0.52880  Biso   1.000  H
  H45      1.0000 0.67060  0.23860  0.35800  Biso   1.000  H
  H46      1.0000 0.60080  0.43130  0.30320  Biso   1.000  H
  H47      1.0000 0.60630  0.96050  0.52800  Biso   1.000  H
  H48      1.0000 0.50860  0.02150  0.57180  Biso   1.000  H
  Zn10     1.0000 0.18040  0.85150  0.28610  Biso   1.000  Zn
  I19      1.0000 0.13750  0.80920  0.21130  Biso   1.000  I
  I20      1.0000 0.24600  0.77860  0.31680  Biso   1.000  I
  Zn11     1.0000 0.86700  0.09480  0.44650  Biso   1.000  Zn
  I21      1.0000 0.83560  0.08140  0.51590  Biso   1.000  I
  I22      1.0000 0.88358  0.24210  0.41230  Biso   1.000  I
  Zn12     1.0000 0.57710  0.12350  0.09700  Biso   1.000  Zn
  I23      1.0000 0.51940  0.16140  0.13510  Biso   1.000  I
  I24      1.0000 0.61570  0.23610  0.06500  Biso   1.000  I
  I25      1.0000 0.61844  0.67670  0.70124  Biso   1.000  I
  Zn13     1.0000 0.66895  0.64920  0.77250  Biso   1.000  Zn
  I26      1.0000 0.73171  0.73900  0.79551  Biso   1.000  I
  N25      1.0000 0.63880  0.66280  0.82480  Biso   1.000  N
  N26      1.0000 0.68390  0.51210  0.77730  Biso   1.000  N
  C73      1.0000 0.66040  0.45690  0.75090  Biso   1.000  C
  C74      1.0000 0.71410  0.47620  0.80540  Biso   1.000  C
  C75      1.0000 0.66580  0.36670  0.75060  Biso   1.000  C
  H49      1.0000 0.63840  0.48160  0.73100  Biso   1.000  H
  C76      1.0000 0.72240  0.38620  0.80660  Biso   1.000  C
  H50      1.0000 0.73060  0.51460  0.82550  Biso   1.000  H
  C77      1.0000 0.69740  0.32960  0.77970  Biso   1.000  C
  H51      1.0000 0.64820  0.32980  0.73070  Biso   1.000  H
  H52      1.0000 0.74520  0.36350  0.82600  Biso   1.000  H
  C78      1.0000 0.70430  0.23030  0.77960  Biso   1.000  C
  N27      1.0000 0.67937  0.18520  0.74900  Biso   1.000  N
  N28      1.0000 0.73410  0.19540  0.80820  Biso   1.000  N
  C79      1.0000 0.68780  0.09940  0.74630  Biso   1.000  C
  C80      1.0000 0.73950  0.10680  0.80380  Biso   1.000  C
  C81      1.0000 0.66210  0.04520  0.71160  Biso   1.000  C
  N29      1.0000 0.71766  0.05570  0.77250  Biso   1.000  N
  C82      1.0000 0.77080  0.05990  0.83500  Biso   1.000  C
  C83      1.0000 0.62840  0.08380  0.68770  Biso   1.000  C
  C84      1.0000 0.67150  0.95850  0.70270  Biso   1.000  C
  C85      1.0000 0.77480  0.96930  0.83270  Biso   1.000  C
  C86      1.0000 0.79710  0.10510  0.86740  Biso   1.000  C
  C87      1.0000 0.60420  0.03380  0.65580  Biso   1.000  C
  H53      1.0000 0.62180  0.14410  0.69310  Biso   1.000  H
  C88      1.0000 0.64620  0.91340  0.66910  Biso   1.000  C
  H54      1.0000 0.69450  0.93010  0.71900  Biso   1.000  H
  H55      1.0000 0.75790  0.93630  0.81030  Biso   1.000  H
  C89      1.0000 0.80310  0.92590  0.86270  Biso   1.000  C
  C90      1.0000 0.82430  0.05710  0.89630  Biso   1.000  C
  H56      1.0000 0.79620  0.16860  0.86940  Biso   1.000  H
  N30      1.0000 0.61330  0.94980  0.64610  Biso   1.000  N
  H57      1.0000 0.58030  0.06000  0.64020  Biso   1.000  H
  H58      1.0000 0.65280  0.85380  0.66230  Biso   1.000  H
  N31      1.0000 0.82770  0.96950  0.89460  Biso   1.000  N
  H59      1.0000 0.80530  0.86260  0.86080  Biso   1.000  H
  H60      1.0000 0.84160  0.08860  0.91890  Biso   1.000  H
  Zn14     1.0000 0.57189  0.88000  0.60100  Biso   1.000  Zn
  Zn15     1.0000 0.86669  0.89220  0.93670  Biso   1.000  Zn
  I27      1.0000 0.61032  0.76289  0.56434  Biso   1.000  I
  N32      1.0000 0.55840  0.98200  0.55470  Biso   1.000  N
  I28      1.0000 0.51207  0.85070  0.63747  Biso   1.000  I
  N33      1.0000 0.91650  0.98030  0.94760  Biso   1.000  N
  I29      1.0000 0.88279  0.75090  0.89779  Biso   1.000  I
  I30      1.0000 0.84414  0.89110  0.00962  Biso   1.000  I
  C91      1.0000 0.93530  0.98510  0.91460  Biso   1.000  C
  C92      1.0000 0.92880  0.03080  0.98350  Biso   1.000  C
  C93      1.0000 0.96740  0.04050  0.91450  Biso   1.000  C
  H61      1.0000 0.92650  0.94860  0.88940  Biso   1.000  H
  C94      1.0000 0.96160  0.08850  0.98520  Biso   1.000  C
  H62      1.0000 0.91530  0.02760  0.00780  Biso   1.000  H
  H63      1.0000 0.98030  0.04270  0.88970  Biso   1.000  H
  C95      1.0000 0.98090  0.09320  0.95110  Biso   1.000  C
  H64      1.0000 0.97030  0.12430  0.01070  Biso   1.000  H
  C96      1.0000 0.01350  0.15680  0.95120  Biso   1.000  C
  N34      1.0000 0.03680  0.14080  0.92180  Biso   1.000  N
  N35      1.0000 0.01678  0.22700  0.97860  Biso   1.000  N
  C97      1.0000 0.06520  0.20260  0.92070  Biso   1.000  C
  C98      1.0000 0.04560  0.28330  0.97420  Biso   1.000  C
  N36      1.0000 0.07110  0.27430  0.94630  Biso   1.000  N
  C99      1.0000 0.09120  0.18970  0.88730  Biso   1.000  C
  C100     1.0000 0.04950  0.36600  0.00240  Biso   1.000  C
  C101     1.0000 0.12470  0.24090  0.88800  Biso   1.000  C
  C102     1.0000 0.08180  0.12310  0.85530  Biso   1.000  C
  C103     1.0000 0.08040  0.42410  0.00130  Biso   1.000  C
  C104     1.0000 0.02240  0.38690  0.02830  Biso   1.000  C
  C105     1.0000 0.14730  0.22580  0.85710  Biso   1.000  C
  H65      1.0000 0.13190  0.28610  0.90980  Biso   1.000  H
  C106     1.0000 0.10700  0.11380  0.82520  Biso   1.000  C
  H66      1.0000 0.05910  0.08570  0.85430  Biso   1.000  H
  H67      1.0000 0.09890  0.41290  0.98230  Biso   1.000  H
  C107     1.0000 0.08450  0.49990  0.02830  Biso   1.000  C
  C108     1.0000 0.02780  0.46420  0.05400  Biso   1.000  C
  H68      1.0000 0.00000  0.34910  0.02880  Biso   1.000  H
  H69      1.0000 0.17060  0.26140  0.85800  Biso   1.000  H
  H70      1.0000 0.10080  0.06870  0.80320  Biso   1.000  H
  H71      1.0000 0.10630  0.53950  0.02800  Biso   1.000  H
  H72      1.0000 0.00860  0.47850  0.07180  Biso   1.000  H
  Zn16     1.0000 0.68040  0.64850  0.78610  Biso   1.000  Zn
  I31      1.0000 0.63750  0.69080  0.71130  Biso   1.000  I
  I32      1.0000 0.74600  0.72140  0.81680  Biso   1.000  I
  Zn17     1.0000 0.36700  0.40520  0.94650  Biso   1.000  Zn
  I33      1.0000 0.33560  0.41860  0.01590  Biso   1.000  I
  I34      1.0000 0.38358  0.25790  0.91230  Biso   1.000  I
  Zn18     1.0000 0.07710  0.37650  0.59700  Biso   1.000  Zn
  I35      1.0000 0.01940  0.33860  0.63510  Biso   1.000  I
  I36      1.0000 0.11570  0.26390  0.56500  Biso   1.000  I
  I37      1.0000 0.11844  0.17670  0.70124  Biso   1.000  I
  Zn19     1.0000 0.16895  0.14920  0.77250  Biso   1.000  Zn
  I38      1.0000 0.23171  0.23900  0.79551  Biso   1.000  I
  N37      1.0000 0.13880  0.16280  0.82480  Biso   1.000  N
  N38      1.0000 0.18390  0.01210  0.77730  Biso   1.000  N
  C109     1.0000 0.16040  0.95690  0.75090  Biso   1.000  C
  C110     1.0000 0.21410  0.97620  0.80540  Biso   1.000  C
  C111     1.0000 0.16580  0.86670  0.75060  Biso   1.000  C
  H73      1.0000 0.13840  0.98160  0.73100  Biso   1.000  H
  C112     1.0000 0.22240  0.88620  0.80660  Biso   1.000  C
  H74      1.0000 0.23060  0.01460  0.82550  Biso   1.000  H
  C113     1.0000 0.19740  0.82960  0.77970  Biso   1.000  C
  H75      1.0000 0.14820  0.82980  0.73070  Biso   1.000  H
  H76      1.0000 0.24520  0.86350  0.82600  Biso   1.000  H
  C114     1.0000 0.20430  0.73030  0.77960  Biso   1.000  C
  N39      1.0000 0.17937  0.68520  0.74900  Biso   1.000  N
  N40      1.0000 0.23410  0.69540  0.80820  Biso   1.000  N
  C115     1.0000 0.18780  0.59940  0.74630  Biso   1.000  C
  C116     1.0000 0.23950  0.60680  0.80380  Biso   1.000  C
  C117     1.0000 0.16210  0.54520  0.71160  Biso   1.000  C
  N41      1.0000 0.21766  0.55570  0.77250  Biso   1.000  N
  C118     1.0000 0.27080  0.55990  0.83500  Biso   1.000  C
  C119     1.0000 0.12840  0.58380  0.68770  Biso   1.000  C
  C120     1.0000 0.17150  0.45850  0.70270  Biso   1.000  C
  C121     1.0000 0.27480  0.46930  0.83270  Biso   1.000  C
  C122     1.0000 0.29710  0.60510  0.86740  Biso   1.000  C
  C123     1.0000 0.10420  0.53380  0.65580  Biso   1.000  C
  H77      1.0000 0.12180  0.64410  0.69310  Biso   1.000  H
  C124     1.0000 0.14620  0.41340  0.66910  Biso   1.000  C
  H78      1.0000 0.19450  0.43010  0.71900  Biso   1.000  H
  H79      1.0000 0.25790  0.43630  0.81030  Biso   1.000  H
  C125     1.0000 0.30310  0.42590  0.86270  Biso   1.000  C
  C126     1.0000 0.32430  0.55710  0.89630  Biso   1.000  C
  H80      1.0000 0.29620  0.66860  0.86940  Biso   1.000  H
  N42      1.0000 0.11330  0.44980  0.64610  Biso   1.000  N
  H81      1.0000 0.08030  0.56000  0.64020  Biso   1.000  H
  H82      1.0000 0.15280  0.35380  0.66230  Biso   1.000  H
  N43      1.0000 0.32770  0.46950  0.89460  Biso   1.000  N
  H83      1.0000 0.30530  0.36260  0.86080  Biso   1.000  H
  H84      1.0000 0.34160  0.58860  0.91890  Biso   1.000  H
  Zn20     1.0000 0.07189  0.38000  0.60100  Biso   1.000  Zn
  Zn21     1.0000 0.36669  0.39220  0.93670  Biso   1.000  Zn
  I39      1.0000 0.11032  0.26289  0.56434  Biso   1.000  I
  N44      1.0000 0.05840  0.48200  0.55470  Biso   1.000  N
  I40      1.0000 0.01207  0.35070  0.63747  Biso   1.000  I
  N45      1.0000 0.41650  0.48030  0.94760  Biso   1.000  N
  I41      1.0000 0.38279  0.25090  0.89779  Biso   1.000  I
  I42      1.0000 0.34414  0.39110  0.00962  Biso   1.000  I
  C127     1.0000 0.43530  0.48510  0.91460  Biso   1.000  C
  C128     1.0000 0.42880  0.53080  0.98350  Biso   1.000  C
  C129     1.0000 0.46740  0.54050  0.91450  Biso   1.000  C
  H85      1.0000 0.42650  0.44860  0.88940  Biso   1.000  H
  C130     1.0000 0.46160  0.58850  0.98520  Biso   1.000  C
  H86      1.0000 0.41530  0.52760  0.00780  Biso   1.000  H
  H87      1.0000 0.48030  0.54270  0.88970  Biso   1.000  H
  C131     1.0000 0.48090  0.59320  0.95110  Biso   1.000  C
  H88      1.0000 0.47030  0.62430  0.01070  Biso   1.000  H
  C132     1.0000 0.51350  0.65680  0.95120  Biso   1.000  C
  N46      1.0000 0.53680  0.64080  0.92180  Biso   1.000  N
  N47      1.0000 0.51678  0.72700  0.97860  Biso   1.000  N
  C133     1.0000 0.56520  0.70260  0.92070  Biso   1.000  C
  C134     1.0000 0.54560  0.78330  0.97420  Biso   1.000  C
  N48      1.0000 0.57110  0.77430  0.94630  Biso   1.000  N
  C135     1.0000 0.59120  0.68970  0.88730  Biso   1.000  C
  C136     1.0000 0.54950  0.86600  0.00240  Biso   1.000  C
  C137     1.0000 0.62470  0.74090  0.88800  Biso   1.000  C
  C138     1.0000 0.58180  0.62310  0.85530  Biso   1.000  C
  C139     1.0000 0.58040  0.92410  0.00130  Biso   1.000  C
  C140     1.0000 0.52240  0.88690  0.02830  Biso   1.000  C
  C141     1.0000 0.64730  0.72580  0.85710  Biso   1.000  C
  H89      1.0000 0.63190  0.78610  0.90980  Biso   1.000  H
  C142     1.0000 0.60700  0.61380  0.82520  Biso   1.000  C
  H90      1.0000 0.55910  0.58570  0.85430  Biso   1.000  H
  H91      1.0000 0.59890  0.91290  0.98230  Biso   1.000  H
  C143     1.0000 0.58450  0.99990  0.02830  Biso   1.000  C
  C144     1.0000 0.52780  0.96420  0.05400  Biso   1.000  C
  H92      1.0000 0.50000  0.84910  0.02880  Biso   1.000  H
  H93      1.0000 0.67060  0.76140  0.85800  Biso   1.000  H
  H94      1.0000 0.60080  0.56870  0.80320  Biso   1.000  H
  H95      1.0000 0.60630  0.03950  0.02800  Biso   1.000  H
  H96      1.0000 0.50860  0.97850  0.07180  Biso   1.000  H
  Zn22     1.0000 0.18040  0.14850  0.78610  Biso   1.000  Zn
  I43      1.0000 0.13750  0.19080  0.71130  Biso   1.000  I
  I44      1.0000 0.24600  0.22140  0.81680  Biso   1.000  I
  Zn23     1.0000 0.86700  0.90520  0.94650  Biso   1.000  Zn
  I45      1.0000 0.83560  0.91860  0.01590  Biso   1.000  I
  I46      1.0000 0.88358  0.75790  0.91230  Biso   1.000  I
  Zn24     1.0000 0.57710  0.87650  0.59700  Biso   1.000  Zn
  I47      1.0000 0.51940  0.83860  0.63510  Biso   1.000  I
  I48      1.0000 0.61570  0.76390  0.56500  Biso   1.000  I
  I49      1.0000 0.38156  0.32330  0.29876  Biso   1.000  I
  Zn25     1.0000 0.33105  0.35080  0.22750  Biso   1.000  Zn
  I50      1.0000 0.26829  0.26100  0.20449  Biso   1.000  I
  N49      1.0000 0.36120  0.33720  0.17520  Biso   1.000  N
  N50      1.0000 0.31610  0.48790  0.22270  Biso   1.000  N
  C145     1.0000 0.33960  0.54310  0.24910  Biso   1.000  C
  C146     1.0000 0.28590  0.52380  0.19460  Biso   1.000  C
  C147     1.0000 0.33420  0.63330  0.24940  Biso   1.000  C
  H97      1.0000 0.36160  0.51840  0.26900  Biso   1.000  H
  C148     1.0000 0.27760  0.61380  0.19340  Biso   1.000  C
  H98      1.0000 0.26940  0.48540  0.17450  Biso   1.000  H
  C149     1.0000 0.30260  0.67040  0.22030  Biso   1.000  C
  H99      1.0000 0.35180  0.67020  0.26930  Biso   1.000  H
  H100     1.0000 0.25480  0.63650  0.17400  Biso   1.000  H
  C150     1.0000 0.29570  0.76970  0.22040  Biso   1.000  C
  N51      1.0000 0.32063  0.81480  0.25100  Biso   1.000  N
  N52      1.0000 0.26590  0.80460  0.19180  Biso   1.000  N
  C151     1.0000 0.31220  0.90060  0.25370  Biso   1.000  C
  C152     1.0000 0.26050  0.89320  0.19620  Biso   1.000  C
  C153     1.0000 0.33790  0.95480  0.28840  Biso   1.000  C
  N53      1.0000 0.28234  0.94430  0.22750  Biso   1.000  N
  C154     1.0000 0.22920  0.94010  0.16500  Biso   1.000  C
  C155     1.0000 0.37160  0.91620  0.31230  Biso   1.000  C
  C156     1.0000 0.32850  0.04150  0.29730  Biso   1.000  C
  C157     1.0000 0.22520  0.03070  0.16730  Biso   1.000  C
  C158     1.0000 0.20290  0.89490  0.13260  Biso   1.000  C
  C159     1.0000 0.39580  0.96620  0.34420  Biso   1.000  C
  H101     1.0000 0.37820  0.85590  0.30690  Biso   1.000  H
  C160     1.0000 0.35380  0.08660  0.33090  Biso   1.000  C
  H102     1.0000 0.30550  0.06990  0.28100  Biso   1.000  H
  H103     1.0000 0.24210  0.06370  0.18970  Biso   1.000  H
  C161     1.0000 0.19690  0.07410  0.13730  Biso   1.000  C
  C162     1.0000 0.17570  0.94290  0.10370  Biso   1.000  C
  H104     1.0000 0.20380  0.83140  0.13060  Biso   1.000  H
  N54      1.0000 0.38670  0.05020  0.35390  Biso   1.000  N
  H105     1.0000 0.41970  0.94000  0.35980  Biso   1.000  H
  H106     1.0000 0.34720  0.14620  0.33770  Biso   1.000  H
  N55      1.0000 0.17230  0.03050  0.10540  Biso   1.000  N
  H107     1.0000 0.19470  0.13740  0.13920  Biso   1.000  H
  H108     1.0000 0.15840  0.91140  0.08110  Biso   1.000  H
  Zn26     1.0000 0.42811  0.12000  0.39900  Biso   1.000  Zn
  Zn27     1.0000 0.13331  0.10780  0.06330  Biso   1.000  Zn
  I51      1.0000 0.38968  0.23711  0.43566  Biso   1.000  I
  N56      1.0000 0.44160  0.01800  0.44530  Biso   1.000  N
  I52      1.0000 0.48793  0.14930  0.36253  Biso   1.000  I
  N57      1.0000 0.08350  0.01970  0.05240  Biso   1.000  N
  I53      1.0000 0.11721  0.24910  0.10221  Biso   1.000  I
  I54      1.0000 0.15586  0.10890  0.99038  Biso   1.000  I
  C163     1.0000 0.06470  0.01490  0.08540  Biso   1.000  C
  C164     1.0000 0.07120  0.96920  0.01650  Biso   1.000  C
  C165     1.0000 0.03260  0.95950  0.08550  Biso   1.000  C
  H109     1.0000 0.07350  0.05140  0.11060  Biso   1.000  H
  C166     1.0000 0.03840  0.91150  0.01480  Biso   1.000  C
  H110     1.0000 0.08470  0.97240  0.99220  Biso   1.000  H
  H111     1.0000 0.01970  0.95730  0.11030  Biso   1.000  H
  C167     1.0000 0.01910  0.90680  0.04890  Biso   1.000  C
  H112     1.0000 0.02970  0.87570  0.98930  Biso   1.000  H
  C168     1.0000 0.98650  0.84320  0.04880  Biso   1.000  C
  N58      1.0000 0.96320  0.85920  0.07820  Biso   1.000  N
  N59      1.0000 0.98322  0.77300  0.02140  Biso   1.000  N
  C169     1.0000 0.93480  0.79740  0.07930  Biso   1.000  C
  C170     1.0000 0.95440  0.71670  0.02580  Biso   1.000  C
  N60      1.0000 0.92890  0.72570  0.05370  Biso   1.000  N
  C171     1.0000 0.90880  0.81030  0.11270  Biso   1.000  C
  C172     1.0000 0.95050  0.63400  0.99760  Biso   1.000  C
  C173     1.0000 0.87530  0.75910  0.11200  Biso   1.000  C
  C174     1.0000 0.91820  0.87690  0.14470  Biso   1.000  C
  C175     1.0000 0.91960  0.57590  0.99870  Biso   1.000  C
  C176     1.0000 0.97760  0.61310  0.97170  Biso   1.000  C
  C177     1.0000 0.85270  0.77420  0.14290  Biso   1.000  C
  H113     1.0000 0.86810  0.71390  0.09020  Biso   1.000  H
  C178     1.0000 0.89300  0.88620  0.17480  Biso   1.000  C
  H114     1.0000 0.94090  0.91430  0.14570  Biso   1.000  H
  H115     1.0000 0.90110  0.58710  0.01770  Biso   1.000  H
  C179     1.0000 0.91550  0.50010  0.97170  Biso   1.000  C
  C180     1.0000 0.97220  0.53580  0.94600  Biso   1.000  C
  H116     1.0000 0.00000  0.65090  0.97120  Biso   1.000  H
  H117     1.0000 0.82940  0.73860  0.14200  Biso   1.000  H
  H118     1.0000 0.89920  0.93130  0.19680  Biso   1.000  H
  H119     1.0000 0.89370  0.46050  0.97200  Biso   1.000  H
  H120     1.0000 0.99140  0.52150  0.92820  Biso   1.000  H
  Zn28     1.0000 0.31960  0.35150  0.21390  Biso   1.000  Zn
  I55      1.0000 0.36250  0.30920  0.28870  Biso   1.000  I
  I56      1.0000 0.25400  0.27860  0.18320  Biso   1.000  I
  Zn29     1.0000 0.63300  0.59480  0.05350  Biso   1.000  Zn
  I57      1.0000 0.66440  0.58140  0.98410  Biso   1.000  I
  I58      1.0000 0.61642  0.74210  0.08770  Biso   1.000  I
  Zn30     1.0000 0.92290  0.62350  0.40300  Biso   1.000  Zn
  I59      1.0000 0.98060  0.66140  0.36490  Biso   1.000  I
  I60      1.0000 0.88430  0.73610  0.43500  Biso   1.000  I
  I61      1.0000 0.88156  0.82330  0.29876  Biso   1.000  I
  Zn31     1.0000 0.83105  0.85080  0.22750  Biso   1.000  Zn
  I62      1.0000 0.76829  0.76100  0.20449  Biso   1.000  I
  N61      1.0000 0.86120  0.83720  0.17520  Biso   1.000  N
  N62      1.0000 0.81610  0.98790  0.22270  Biso   1.000  N
  C181     1.0000 0.83960  0.04310  0.24910  Biso   1.000  C
  C182     1.0000 0.78590  0.02380  0.19460  Biso   1.000  C
  C183     1.0000 0.83420  0.13330  0.24940  Biso   1.000  C
  H121     1.0000 0.86160  0.01840  0.26900  Biso   1.000  H
  C184     1.0000 0.77760  0.11380  0.19340  Biso   1.000  C
  H122     1.0000 0.76940  0.98540  0.17450  Biso   1.000  H
  C185     1.0000 0.80260  0.17040  0.22030  Biso   1.000  C
  H123     1.0000 0.85180  0.17020  0.26930  Biso   1.000  H
  H124     1.0000 0.75480  0.13650  0.17400  Biso   1.000  H
  C186     1.0000 0.79570  0.26970  0.22040  Biso   1.000  C
  N63      1.0000 0.82063  0.31480  0.25100  Biso   1.000  N
  N64      1.0000 0.76590  0.30460  0.19180  Biso   1.000  N
  C187     1.0000 0.81220  0.40060  0.25370  Biso   1.000  C
  C188     1.0000 0.76050  0.39320  0.19620  Biso   1.000  C
  C189     1.0000 0.83790  0.45480  0.28840  Biso   1.000  C
  N65      1.0000 0.78234  0.44430  0.22750  Biso   1.000  N
  C190     1.0000 0.72920  0.44010  0.16500  Biso   1.000  C
  C191     1.0000 0.87160  0.41620  0.31230  Biso   1.000  C
  C192     1.0000 0.82850  0.54150  0.29730  Biso   1.000  C
  C193     1.0000 0.72520  0.53070  0.16730  Biso   1.000  C
  C194     1.0000 0.70290  0.39490  0.13260  Biso   1.000  C
  C195     1.0000 0.89580  0.46620  0.34420  Biso   1.000  C
  H125     1.0000 0.87820  0.35590  0.30690  Biso   1.000  H
  C196     1.0000 0.85380  0.58660  0.33090  Biso   1.000  C
  H126     1.0000 0.80550  0.56990  0.28100  Biso   1.000  H
  H127     1.0000 0.74210  0.56370  0.18970  Biso   1.000  H
  C197     1.0000 0.69690  0.57410  0.13730  Biso   1.000  C
  C198     1.0000 0.67570  0.44290  0.10370  Biso   1.000  C
  H128     1.0000 0.70380  0.33140  0.13060  Biso   1.000  H
  N66      1.0000 0.88670  0.55020  0.35390  Biso   1.000  N
  H129     1.0000 0.91970  0.44000  0.35980  Biso   1.000  H
  H130     1.0000 0.84720  0.64620  0.33770  Biso   1.000  H
  N67      1.0000 0.67230  0.53050  0.10540  Biso   1.000  N
  H131     1.0000 0.69470  0.63740  0.13920  Biso   1.000  H
  H132     1.0000 0.65840  0.41140  0.08110  Biso   1.000  H
  Zn32     1.0000 0.92811  0.62000  0.39900  Biso   1.000  Zn
  Zn33     1.0000 0.63331  0.60780  0.06330  Biso   1.000  Zn
  I63      1.0000 0.88968  0.73711  0.43566  Biso   1.000  I
  N68      1.0000 0.94160  0.51800  0.44530  Biso   1.000  N
  I64      1.0000 0.98793  0.64930  0.36253  Biso   1.000  I
  N69      1.0000 0.58350  0.51970  0.05240  Biso   1.000  N
  I65      1.0000 0.61721  0.74910  0.10221  Biso   1.000  I
  I66      1.0000 0.65586  0.60890  0.99038  Biso   1.000  I
  C199     1.0000 0.56470  0.51490  0.08540  Biso   1.000  C
  C200     1.0000 0.57120  0.46920  0.01650  Biso   1.000  C
  C201     1.0000 0.53260  0.45950  0.08550  Biso   1.000  C
  H133     1.0000 0.57350  0.55140  0.11060  Biso   1.000  H
  C202     1.0000 0.53840  0.41150  0.01480  Biso   1.000  C
  H134     1.0000 0.58470  0.47240  0.99220  Biso   1.000  H
  H135     1.0000 0.51970  0.45730  0.11030  Biso   1.000  H
  C203     1.0000 0.51910  0.40680  0.04890  Biso   1.000  C
  H136     1.0000 0.52970  0.37570  0.98930  Biso   1.000  H
  C204     1.0000 0.48650  0.34320  0.04880  Biso   1.000  C
  N70      1.0000 0.46320  0.35920  0.07820  Biso   1.000  N
  N71      1.0000 0.48322  0.27300  0.02140  Biso   1.000  N
  C205     1.0000 0.43480  0.29740  0.07930  Biso   1.000  C
  C206     1.0000 0.45440  0.21670  0.02580  Biso   1.000  C
  N72      1.0000 0.42890  0.22570  0.05370  Biso   1.000  N
  C207     1.0000 0.40880  0.31030  0.11270  Biso   1.000  C
  C208     1.0000 0.45050  0.13400  0.99760  Biso   1.000  C
  C209     1.0000 0.37530  0.25910  0.11200  Biso   1.000  C
  C210     1.0000 0.41820  0.37690  0.14470  Biso   1.000  C
  C211     1.0000 0.41960  0.07590  0.99870  Biso   1.000  C
  C212     1.0000 0.47760  0.11310  0.97170  Biso   1.000  C
  C213     1.0000 0.35270  0.27420  0.14290  Biso   1.000  C
  H137     1.0000 0.36810  0.21390  0.09020  Biso   1.000  H
  C214     1.0000 0.39300  0.38620  0.17480  Biso   1.000  C
  H138     1.0000 0.44090  0.41430  0.14570  Biso   1.000  H
  H139     1.0000 0.40110  0.08710  0.01770  Biso   1.000  H
  C215     1.0000 0.41550  0.00010  0.97170  Biso   1.000  C
  C216     1.0000 0.47220  0.03580  0.94600  Biso   1.000  C
  H140     1.0000 0.50000  0.15090  0.97120  Biso   1.000  H
  H141     1.0000 0.32940  0.23860  0.14200  Biso   1.000  H
  H142     1.0000 0.39920  0.43130  0.19680  Biso   1.000  H
  H143     1.0000 0.39370  0.96050  0.97200  Biso   1.000  H
  H144     1.0000 0.49140  0.02150  0.92820  Biso   1.000  H
  Zn34     1.0000 0.81960  0.85150  0.21390  Biso   1.000  Zn
  I67      1.0000 0.86250  0.80920  0.28870  Biso   1.000  I
  I68      1.0000 0.75400  0.77860  0.18320  Biso   1.000  I
  Zn35     1.0000 0.13300  0.09480  0.05350  Biso   1.000  Zn
  I69      1.0000 0.16440  0.08140  0.98410  Biso   1.000  I
  I70      1.0000 0.11642  0.24210  0.08770  Biso   1.000  I
  Zn36     1.0000 0.42290  0.12350  0.40300  Biso   1.000  Zn
  I71      1.0000 0.48060  0.16140  0.36490  Biso   1.000  I
  I72      1.0000 0.38430  0.23610  0.43500  Biso   1.000  I
  I73      1.0000 0.38156  0.67670  0.79876  Biso   1.000  I
  Zn37     1.0000 0.33105  0.64920  0.72750  Biso   1.000  Zn
  I74      1.0000 0.26829  0.73900  0.70449  Biso   1.000  I
  N73      1.0000 0.36120  0.66280  0.67520  Biso   1.000  N
  N74      1.0000 0.31610  0.51210  0.72270  Biso   1.000  N
  C217     1.0000 0.33960  0.45690  0.74910  Biso   1.000  C
  C218     1.0000 0.28590  0.47620  0.69460  Biso   1.000  C
  C219     1.0000 0.33420  0.36670  0.74940  Biso   1.000  C
  H145     1.0000 0.36160  0.48160  0.76900  Biso   1.000  H
  C220     1.0000 0.27760  0.38620  0.69340  Biso   1.000  C
  H146     1.0000 0.26940  0.51460  0.67450  Biso   1.000  H
  C221     1.0000 0.30260  0.32960  0.72030  Biso   1.000  C
  H147     1.0000 0.35180  0.32980  0.76930  Biso   1.000  H
  H148     1.0000 0.25480  0.36350  0.67400  Biso   1.000  H
  C222     1.0000 0.29570  0.23030  0.72040  Biso   1.000  C
  N75      1.0000 0.32063  0.18520  0.75100  Biso   1.000  N
  N76      1.0000 0.26590  0.19540  0.69180  Biso   1.000  N
  C223     1.0000 0.31220  0.09940  0.75370  Biso   1.000  C
  C224     1.0000 0.26050  0.10680  0.69620  Biso   1.000  C
  C225     1.0000 0.33790  0.04520  0.78840  Biso   1.000  C
  N77      1.0000 0.28234  0.05570  0.72750  Biso   1.000  N
  C226     1.0000 0.22920  0.05990  0.66500  Biso   1.000  C
  C227     1.0000 0.37160  0.08380  0.81230  Biso   1.000  C
  C228     1.0000 0.32850  0.95850  0.79730  Biso   1.000  C
  C229     1.0000 0.22520  0.96930  0.66730  Biso   1.000  C
  C230     1.0000 0.20290  0.10510  0.63260  Biso   1.000  C
  C231     1.0000 0.39580  0.03380  0.84420  Biso   1.000  C
  H149     1.0000 0.37820  0.14410  0.80690  Biso   1.000  H
  C232     1.0000 0.35380  0.91340  0.83090  Biso   1.000  C
  H150     1.0000 0.30550  0.93010  0.78100  Biso   1.000  H
  H151     1.0000 0.24210  0.93630  0.68970  Biso   1.000  H
  C233     1.0000 0.19690  0.92590  0.63730  Biso   1.000  C
  C234     1.0000 0.17570  0.05710  0.60370  Biso   1.000  C
  H152     1.0000 0.20380  0.16860  0.63060  Biso   1.000  H
  N78      1.0000 0.38670  0.94980  0.85390  Biso   1.000  N
  H153     1.0000 0.41970  0.06000  0.85980  Biso   1.000  H
  H154     1.0000 0.34720  0.85380  0.83770  Biso   1.000  H
  N79      1.0000 0.17230  0.96950  0.60540  Biso   1.000  N
  H155     1.0000 0.19470  0.86260  0.63920  Biso   1.000  H
  H156     1.0000 0.15840  0.08860  0.58110  Biso   1.000  H
  Zn38     1.0000 0.42811  0.88000  0.89900  Biso   1.000  Zn
  Zn39     1.0000 0.13331  0.89220  0.56330  Biso   1.000  Zn
  I75      1.0000 0.38968  0.76289  0.93566  Biso   1.000  I
  N80      1.0000 0.44160  0.98200  0.94530  Biso   1.000  N
  I76      1.0000 0.48793  0.85070  0.86253  Biso   1.000  I
  N81      1.0000 0.08350  0.98030  0.55240  Biso   1.000  N
  I77      1.0000 0.11721  0.75090  0.60221  Biso   1.000  I
  I78      1.0000 0.15586  0.89110  0.49038  Biso   1.000  I
  C235     1.0000 0.06470  0.98510  0.58540  Biso   1.000  C
  C236     1.0000 0.07120  0.03080  0.51650  Biso   1.000  C
  C237     1.0000 0.03260  0.04050  0.58550  Biso   1.000  C
  H157     1.0000 0.07350  0.94860  0.61060  Biso   1.000  H
  C238     1.0000 0.03840  0.08850  0.51480  Biso   1.000  C
  H158     1.0000 0.08470  0.02760  0.49220  Biso   1.000  H
  H159     1.0000 0.01970  0.04270  0.61030  Biso   1.000  H
  C239     1.0000 0.01910  0.09320  0.54890  Biso   1.000  C
  H160     1.0000 0.02970  0.12430  0.48930  Biso   1.000  H
  C240     1.0000 0.98650  0.15680  0.54880  Biso   1.000  C
  N82      1.0000 0.96320  0.14080  0.57820  Biso   1.000  N
  N83      1.0000 0.98322  0.22700  0.52140  Biso   1.000  N
  C241     1.0000 0.93480  0.20260  0.57930  Biso   1.000  C
  C242     1.0000 0.95440  0.28330  0.52580  Biso   1.000  C
  N84      1.0000 0.92890  0.27430  0.55370  Biso   1.000  N
  C243     1.0000 0.90880  0.18970  0.61270  Biso   1.000  C
  C244     1.0000 0.95050  0.36600  0.49760  Biso   1.000  C
  C245     1.0000 0.87530  0.24090  0.61200  Biso   1.000  C
  C246     1.0000 0.91820  0.12310  0.64470  Biso   1.000  C
  C247     1.0000 0.91960  0.42410  0.49870  Biso   1.000  C
  C248     1.0000 0.97760  0.38690  0.47170  Biso   1.000  C
  C249     1.0000 0.85270  0.22580  0.64290  Biso   1.000  C
  H161     1.0000 0.86810  0.28610  0.59020  Biso   1.000  H
  C250     1.0000 0.89300  0.11380  0.67480  Biso   1.000  C
  H162     1.0000 0.94090  0.08570  0.64570  Biso   1.000  H
  H163     1.0000 0.90110  0.41290  0.51770  Biso   1.000  H
  C251     1.0000 0.91550  0.49990  0.47170  Biso   1.000  C
  C252     1.0000 0.97220  0.46420  0.44600  Biso   1.000  C
  H164     1.0000 0.00000  0.34910  0.47120  Biso   1.000  H
  H165     1.0000 0.82940  0.26140  0.64200  Biso   1.000  H
  H166     1.0000 0.89920  0.06870  0.69680  Biso   1.000  H
  H167     1.0000 0.89370  0.53950  0.47200  Biso   1.000  H
  H168     1.0000 0.99140  0.47850  0.42820  Biso   1.000  H
  Zn40     1.0000 0.31960  0.64850  0.71390  Biso   1.000  Zn
  I79      1.0000 0.36250  0.69080  0.78870  Biso   1.000  I
  I80      1.0000 0.25400  0.72140  0.68320  Biso   1.000  I
  Zn41     1.0000 0.63300  0.40520  0.55350  Biso   1.000  Zn
  I81      1.0000 0.66440  0.41860  0.48410  Biso   1.000  I
  I82      1.0000 0.61642  0.25790  0.58770  Biso   1.000  I
  Zn42     1.0000 0.92290  0.37650  0.90300  Biso   1.000  Zn
  I83      1.0000 0.98060  0.33860  0.86490  Biso   1.000  I
  I84      1.0000 0.88430  0.26390  0.93500  Biso   1.000  I
  I85      1.0000 0.88156  0.17670  0.79876  Biso   1.000  I
  Zn43     1.0000 0.83105  0.14920  0.72750  Biso   1.000  Zn
  I86      1.0000 0.76829  0.23900  0.70449  Biso   1.000  I
  N85      1.0000 0.86120  0.16280  0.67520  Biso   1.000  N
  N86      1.0000 0.81610  0.01210  0.72270  Biso   1.000  N
  C253     1.0000 0.83960  0.95690  0.74910  Biso   1.000  C
  C254     1.0000 0.78590  0.97620  0.69460  Biso   1.000  C
  C255     1.0000 0.83420  0.86670  0.74940  Biso   1.000  C
  H169     1.0000 0.86160  0.98160  0.76900  Biso   1.000  H
  C256     1.0000 0.77760  0.88620  0.69340  Biso   1.000  C
  H170     1.0000 0.76940  0.01460  0.67450  Biso   1.000  H
  C257     1.0000 0.80260  0.82960  0.72030  Biso   1.000  C
  H171     1.0000 0.85180  0.82980  0.76930  Biso   1.000  H
  H172     1.0000 0.75480  0.86350  0.67400  Biso   1.000  H
  C258     1.0000 0.79570  0.73030  0.72040  Biso   1.000  C
  N87      1.0000 0.82063  0.68520  0.75100  Biso   1.000  N
  N88      1.0000 0.76590  0.69540  0.69180  Biso   1.000  N
  C259     1.0000 0.81220  0.59940  0.75370  Biso   1.000  C
  C260     1.0000 0.76050  0.60680  0.69620  Biso   1.000  C
  C261     1.0000 0.83790  0.54520  0.78840  Biso   1.000  C
  N89      1.0000 0.78234  0.55570  0.72750  Biso   1.000  N
  C262     1.0000 0.72920  0.55990  0.66500  Biso   1.000  C
  C263     1.0000 0.87160  0.58380  0.81230  Biso   1.000  C
  C264     1.0000 0.82850  0.45850  0.79730  Biso   1.000  C
  C265     1.0000 0.72520  0.46930  0.66730  Biso   1.000  C
  C266     1.0000 0.70290  0.60510  0.63260  Biso   1.000  C
  C267     1.0000 0.89580  0.53380  0.84420  Biso   1.000  C
  H173     1.0000 0.87820  0.64410  0.80690  Biso   1.000  H
  C268     1.0000 0.85380  0.41340  0.83090  Biso   1.000  C
  H174     1.0000 0.80550  0.43010  0.78100  Biso   1.000  H
  H175     1.0000 0.74210  0.43630  0.68970  Biso   1.000  H
  C269     1.0000 0.69690  0.42590  0.63730  Biso   1.000  C
  C270     1.0000 0.67570  0.55710  0.60370  Biso   1.000  C
  H176     1.0000 0.70380  0.66860  0.63060  Biso   1.000  H
  N90      1.0000 0.88670  0.44980  0.85390  Biso   1.000  N
  H177     1.0000 0.91970  0.56000  0.85980  Biso   1.000  H
  H178     1.0000 0.84720  0.35380  0.83770  Biso   1.000  H
  N91      1.0000 0.67230  0.46950  0.60540  Biso   1.000  N
  H179     1.0000 0.69470  0.36260  0.63920  Biso   1.000  H
  H180     1.0000 0.65840  0.58860  0.58110  Biso   1.000  H
  Zn44     1.0000 0.92811  0.38000  0.89900  Biso   1.000  Zn
  Zn45     1.0000 0.63331  0.39220  0.56330  Biso   1.000  Zn
  I87      1.0000 0.88968  0.26289  0.93566  Biso   1.000  I
  N92      1.0000 0.94160  0.48200  0.94530  Biso   1.000  N
  I88      1.0000 0.98793  0.35070  0.86253  Biso   1.000  I
  N93      1.0000 0.58350  0.48030  0.55240  Biso   1.000  N
  I89      1.0000 0.61721  0.25090  0.60221  Biso   1.000  I
  I90      1.0000 0.65586  0.39110  0.49038  Biso   1.000  I
  C271     1.0000 0.56470  0.48510  0.58540  Biso   1.000  C
  C272     1.0000 0.57120  0.53080  0.51650  Biso   1.000  C
  C273     1.0000 0.53260  0.54050  0.58550  Biso   1.000  C
  H181     1.0000 0.57350  0.44860  0.61060  Biso   1.000  H
  C274     1.0000 0.53840  0.58850  0.51480  Biso   1.000  C
  H182     1.0000 0.58470  0.52760  0.49220  Biso   1.000  H
  H183     1.0000 0.51970  0.54270  0.61030  Biso   1.000  H
  C275     1.0000 0.51910  0.59320  0.54890  Biso   1.000  C
  H184     1.0000 0.52970  0.62430  0.48930  Biso   1.000  H
  C276     1.0000 0.48650  0.65680  0.54880  Biso   1.000  C
  N94      1.0000 0.46320  0.64080  0.57820  Biso   1.000  N
  N95      1.0000 0.48322  0.72700  0.52140  Biso   1.000  N
  C277     1.0000 0.43480  0.70260  0.57930  Biso   1.000  C
  C278     1.0000 0.45440  0.78330  0.52580  Biso   1.000  C
  N96      1.0000 0.42890  0.77430  0.55370  Biso   1.000  N
  C279     1.0000 0.40880  0.68970  0.61270  Biso   1.000  C
  C280     1.0000 0.45050  0.86600  0.49760  Biso   1.000  C
  C281     1.0000 0.37530  0.74090  0.61200  Biso   1.000  C
  C282     1.0000 0.41820  0.62310  0.64470  Biso   1.000  C
  C283     1.0000 0.41960  0.92410  0.49870  Biso   1.000  C
  C284     1.0000 0.47760  0.88690  0.47170  Biso   1.000  C
  C285     1.0000 0.35270  0.72580  0.64290  Biso   1.000  C
  H185     1.0000 0.36810  0.78610  0.59020  Biso   1.000  H
  C286     1.0000 0.39300  0.61380  0.67480  Biso   1.000  C
  H186     1.0000 0.44090  0.58570  0.64570  Biso   1.000  H
  H187     1.0000 0.40110  0.91290  0.51770  Biso   1.000  H
  C287     1.0000 0.41550  0.99990  0.47170  Biso   1.000  C
  C288     1.0000 0.47220  0.96420  0.44600  Biso   1.000  C
  H188     1.0000 0.50000  0.84910  0.47120  Biso   1.000  H
  H189     1.0000 0.32940  0.76140  0.64200  Biso   1.000  H
  H190     1.0000 0.39920  0.56870  0.69680  Biso   1.000  H
  H191     1.0000 0.39370  0.03950  0.47200  Biso   1.000  H
  H192     1.0000 0.49140  0.97850  0.42820  Biso   1.000  H
  Zn46     1.0000 0.81960  0.14850  0.71390  Biso   1.000  Zn
  I91      1.0000 0.86250  0.19080  0.78870  Biso   1.000  I
  I92      1.0000 0.75400  0.22140  0.68320  Biso   1.000  I
  Zn47     1.0000 0.13300  0.90520  0.55350  Biso   1.000  Zn
  I93      1.0000 0.16440  0.91860  0.48410  Biso   1.000  I
  I94      1.0000 0.11642  0.75790  0.58770  Biso   1.000  I
  Zn48     1.0000 0.42290  0.87650  0.90300  Biso   1.000  Zn
  I95      1.0000 0.48060  0.83860  0.86490  Biso   1.000  I
  I96      1.0000 0.38430  0.76390  0.93500  Biso   1.000  I
