data_image0
_cell_length_a       35.8691
_cell_length_b       14.8864
_cell_length_c       31.2823
_cell_angle_alpha    90
_cell_angle_beta     102.711
_cell_angle_gamma    90

_symmetry_space_group_name_H-M    "P 1"
_symmetry_int_tables_number       1

loop_
  _symmetry_equiv_pos_as_xyz
  'x, y, z'

loop_
  _atom_site_label
  _atom_site_occupancy
  _atom_site_fract_x
  _atom_site_fract_y
  _atom_site_fract_z
  _atom_site_thermal_displace_type
  _atom_site_B_iso_or_equiv
  _atom_site_type_symbol
  Zn1      1.0000 0.37745  0.40154  0.42929  Biso   1.000  Zn
  N1       1.0000 0.64160  0.66220  0.32850  Biso   1.000  N
  C1       1.0000 0.65360  0.71130  0.36490  Biso   1.000  C
  H1       1.0000 0.67870  0.73570  0.37090  Biso   1.000  H
  C2       1.0000 0.63000  0.72730  0.39390  Biso   1.000  C
  H2       1.0000 0.63900  0.76200  0.41960  Biso   1.000  H
  C3       1.0000 0.59360  0.69240  0.38510  Biso   1.000  C
  C4       1.0000 0.58150  0.63980  0.34770  Biso   1.000  C
  H3       1.0000 0.55680  0.61290  0.34130  Biso   1.000  H
  C5       1.0000 0.60640  0.62830  0.32060  Biso   1.000  C
  H4       1.0000 0.59810  0.59420  0.29460  Biso   1.000  H
  N2       1.0000 0.42290  0.48970  0.43540  Biso   1.000  N
  C6       1.0000 0.43790  0.53280  0.47190  Biso   1.000  C
  H5       1.0000 0.42660  0.52500  0.49650  Biso   1.000  H
  C7       1.0000 0.46880  0.58850  0.47600  Biso   1.000  C
  H6       1.0000 0.47880  0.61800  0.50310  Biso   1.000  H
  C8       1.0000 0.48510  0.60140  0.44100  Biso   1.000  C
  C9       1.0000 0.46870  0.56120  0.40050  Biso   1.000  C
  H7       1.0000 0.47860  0.57190  0.37520  Biso   1.000  H
  C10      1.0000 0.43750  0.50580  0.39890  Biso   1.000  C
  H8       1.0000 0.42590  0.47800  0.37190  Biso   1.000  H
  N3       1.0000 0.56230  0.01090  0.55590  Biso   1.000  N
  C11      1.0000 0.53210  0.95750  0.55130  Biso   1.000  C
  H9       1.0000 0.51310  0.97060  0.56730  Biso   1.000  H
  C12      1.0000 0.52720  0.88330  0.52400  Biso   1.000  C
  H10      1.0000 0.50540  0.84600  0.52150  Biso   1.000  H
  C13      1.0000 0.55480  0.86400  0.50030  Biso   1.000  C
  C14      1.0000 0.58570  0.91900  0.50480  Biso   1.000  C
  H11      1.0000 0.60530  0.90760  0.48930  Biso   1.000  H
  C15      1.0000 0.58790  0.99380  0.53330  Biso   1.000  C
  H12      1.0000 0.60910  0.03340  0.53610  Biso   1.000  H
  C16      1.0000 0.56780  0.70700  0.41590  Biso   1.000  C
  N4       1.0000 0.53935  0.64880  0.41310  Biso   1.000  N
  C17      1.0000 0.51790  0.66150  0.44240  Biso   1.000  C
  N5       1.0000 0.52294  0.72700  0.47301  Biso   1.000  N
  C18      1.0000 0.55080  0.78400  0.47090  Biso   1.000  C
  N6       1.0000 0.57450  0.77610  0.44370  Biso   1.000  N
  N7       1.0000 0.33670  0.47020  0.38400  Biso   1.000  N
  C19      1.0000 0.33090  0.55570  0.38860  Biso   1.000  C
  H13      1.0000 0.34720  0.58670  0.41200  Biso   1.000  H
  C20      1.0000 0.30230  0.60340  0.36120  Biso   1.000  C
  H14      1.0000 0.29970  0.66620  0.36500  Biso   1.000  H
  C21      1.0000 0.27750  0.55840  0.32810  Biso   1.000  C
  C22      1.0000 0.28350  0.46820  0.32270  Biso   1.000  C
  H15      1.0000 0.26690  0.43520  0.30030  Biso   1.000  H
  C23      1.0000 0.31400  0.42590  0.35050  Biso   1.000  C
  H16      1.0000 0.31900  0.36450  0.34580  Biso   1.000  H
  N8       1.0000 0.11370  0.44990  0.14800  Biso   1.000  N
  C24      1.0000 0.10740  0.53350  0.15770  Biso   1.000  C
  H17      1.0000 0.08490  0.56180  0.14190  Biso   1.000  H
  C25      1.0000 0.13150  0.58280  0.18950  Biso   1.000  C
  H18      1.0000 0.12500  0.64220  0.19620  Biso   1.000  H
  C26      1.0000 0.16530  0.54420  0.21140  Biso   1.000  C
  C27      1.0000 0.17160  0.45550  0.20240  Biso   1.000  C
  H19      1.0000 0.19350  0.42490  0.21850  Biso   1.000  H
  C28      1.0000 0.14570  0.41160  0.16970  Biso   1.000  C
  H20      1.0000 0.15100  0.35160  0.16260  Biso   1.000  H
  N9       1.0000 0.18670  0.00820  0.28400  Biso   1.000  N
  C29      1.0000 0.16170  0.95230  0.26030  Biso   1.000  C
  H21      1.0000 0.13820  0.97570  0.24420  Biso   1.000  H
  C30      1.0000 0.16860  0.86200  0.25800  Biso   1.000  C
  H22      1.0000 0.15050  0.82470  0.23930  Biso   1.000  H
  C31      1.0000 0.20150  0.82520  0.28260  Biso   1.000  C
  C32      1.0000 0.22770  0.88220  0.30740  Biso   1.000  C
  H23      1.0000 0.25100  0.85960  0.32450  Biso   1.000  H
  C33      1.0000 0.21970  0.97370  0.30690  Biso   1.000  C
  H24      1.0000 0.23810  0.01320  0.32350  Biso   1.000  H
  C34      1.0000 0.24520  0.60520  0.29910  Biso   1.000  C
  N10      1.0000 0.22278  0.55400  0.26880  Biso   1.000  N
  C35      1.0000 0.19210  0.59610  0.24540  Biso   1.000  C
  N11      1.0000 0.18361  0.68150  0.25000  Biso   1.000  N
  C36      1.0000 0.20890  0.72730  0.27950  Biso   1.000  C
  N12      1.0000 0.24017  0.69230  0.30560  Biso   1.000  N
  Zn2      1.0000 0.67430  0.64340  0.27980  Biso   1.000  Zn
  Zn3      1.0000 0.57117  0.11430  0.60168  Biso   1.000  Zn
  I1       1.0000 0.73551  0.73180  0.30413  Biso   1.000  I
  I2       1.0000 0.62806  0.67220  0.20501  Biso   1.000  I
  I3       1.0000 0.39725  0.25970  0.39162  Biso   1.000  I
  I4       1.0000 0.35589  0.39860  0.50040  Biso   1.000  I
  I5       1.0000 0.60393  0.23754  0.56796  Biso   1.000  I
  I6       1.0000 0.51377  0.13940  0.63440  Biso   1.000  I
  Zn4      1.0000 0.67820  0.64820  0.28880  Biso   1.000  Zn
  Zn5      1.0000 0.58610  0.12120  0.59370  Biso   1.000  Zn
  I7       1.0000 0.74140  0.72640  0.31640  Biso   1.000  I
  I8       1.0000 0.63760  0.68080  0.21380  Biso   1.000  I
  I9       1.0000 0.38920  0.26440  0.39770  Biso   1.000  I
  I10      1.0000 0.35300  0.41540  0.50350  Biso   1.000  I
  I11      1.0000 0.62340  0.23260  0.56040  Biso   1.000  I
  I12      1.0000 0.52880  0.15740  0.62490  Biso   1.000  I
  Zn6      1.0000 0.87745  0.90154  0.42929  Biso   1.000  Zn
  N13      1.0000 0.14160  0.16220  0.32850  Biso   1.000  N
  C37      1.0000 0.15360  0.21130  0.36490  Biso   1.000  C
  H25      1.0000 0.17870  0.23570  0.37090  Biso   1.000  H
  C38      1.0000 0.13000  0.22730  0.39390  Biso   1.000  C
  H26      1.0000 0.13900  0.26200  0.41960  Biso   1.000  H
  C39      1.0000 0.09360  0.19240  0.38510  Biso   1.000  C
  C40      1.0000 0.08150  0.13980  0.34770  Biso   1.000  C
  H27      1.0000 0.05680  0.11290  0.34130  Biso   1.000  H
  C41      1.0000 0.10640  0.12830  0.32060  Biso   1.000  C
  H28      1.0000 0.09810  0.09420  0.29460  Biso   1.000  H
  N14      1.0000 0.92290  0.98970  0.43540  Biso   1.000  N
  C42      1.0000 0.93790  0.03280  0.47190  Biso   1.000  C
  H29      1.0000 0.92660  0.02500  0.49650  Biso   1.000  H
  C43      1.0000 0.96880  0.08850  0.47600  Biso   1.000  C
  H30      1.0000 0.97880  0.11800  0.50310  Biso   1.000  H
  C44      1.0000 0.98510  0.10140  0.44100  Biso   1.000  C
  C45      1.0000 0.96870  0.06120  0.40050  Biso   1.000  C
  H31      1.0000 0.97860  0.07190  0.37520  Biso   1.000  H
  C46      1.0000 0.93750  0.00580  0.39890  Biso   1.000  C
  H32      1.0000 0.92590  0.97800  0.37190  Biso   1.000  H
  N15      1.0000 0.06230  0.51090  0.55590  Biso   1.000  N
  C47      1.0000 0.03210  0.45750  0.55130  Biso   1.000  C
  H33      1.0000 0.01310  0.47060  0.56730  Biso   1.000  H
  C48      1.0000 0.02720  0.38330  0.52400  Biso   1.000  C
  H34      1.0000 0.00540  0.34600  0.52150  Biso   1.000  H
  C49      1.0000 0.05480  0.36400  0.50030  Biso   1.000  C
  C50      1.0000 0.08570  0.41900  0.50480  Biso   1.000  C
  H35      1.0000 0.10530  0.40760  0.48930  Biso   1.000  H
  C51      1.0000 0.08790  0.49380  0.53330  Biso   1.000  C
  H36      1.0000 0.10910  0.53340  0.53610  Biso   1.000  H
  C52      1.0000 0.06780  0.20700  0.41590  Biso   1.000  C
  N16      1.0000 0.03935  0.14880  0.41310  Biso   1.000  N
  C53      1.0000 0.01790  0.16150  0.44240  Biso   1.000  C
  N17      1.0000 0.02294  0.22700  0.47301  Biso   1.000  N
  C54      1.0000 0.05080  0.28400  0.47090  Biso   1.000  C
  N18      1.0000 0.07450  0.27610  0.44370  Biso   1.000  N
  N19      1.0000 0.83670  0.97020  0.38400  Biso   1.000  N
  C55      1.0000 0.83090  0.05570  0.38860  Biso   1.000  C
  H37      1.0000 0.84720  0.08670  0.41200  Biso   1.000  H
  C56      1.0000 0.80230  0.10340  0.36120  Biso   1.000  C
  H38      1.0000 0.79970  0.16620  0.36500  Biso   1.000  H
  C57      1.0000 0.77750  0.05840  0.32810  Biso   1.000  C
  C58      1.0000 0.78350  0.96820  0.32270  Biso   1.000  C
  H39      1.0000 0.76690  0.93520  0.30030  Biso   1.000  H
  C59      1.0000 0.81400  0.92590  0.35050  Biso   1.000  C
  H40      1.0000 0.81900  0.86450  0.34580  Biso   1.000  H
  N20      1.0000 0.61370  0.94990  0.14800  Biso   1.000  N
  C60      1.0000 0.60740  0.03350  0.15770  Biso   1.000  C
  H41      1.0000 0.58490  0.06180  0.14190  Biso   1.000  H
  C61      1.0000 0.63150  0.08280  0.18950  Biso   1.000  C
  H42      1.0000 0.62500  0.14220  0.19620  Biso   1.000  H
  C62      1.0000 0.66530  0.04420  0.21140  Biso   1.000  C
  C63      1.0000 0.67160  0.95550  0.20240  Biso   1.000  C
  H43      1.0000 0.69350  0.92490  0.21850  Biso   1.000  H
  C64      1.0000 0.64570  0.91160  0.16970  Biso   1.000  C
  H44      1.0000 0.65100  0.85160  0.16260  Biso   1.000  H
  N21      1.0000 0.68670  0.50820  0.28400  Biso   1.000  N
  C65      1.0000 0.66170  0.45230  0.26030  Biso   1.000  C
  H45      1.0000 0.63820  0.47570  0.24420  Biso   1.000  H
  C66      1.0000 0.66860  0.36200  0.25800  Biso   1.000  C
  H46      1.0000 0.65050  0.32470  0.23930  Biso   1.000  H
  C67      1.0000 0.70150  0.32520  0.28260  Biso   1.000  C
  C68      1.0000 0.72770  0.38220  0.30740  Biso   1.000  C
  H47      1.0000 0.75100  0.35960  0.32450  Biso   1.000  H
  C69      1.0000 0.71970  0.47370  0.30690  Biso   1.000  C
  H48      1.0000 0.73810  0.51320  0.32350  Biso   1.000  H
  C70      1.0000 0.74520  0.10520  0.29910  Biso   1.000  C
  N22      1.0000 0.72278  0.05400  0.26880  Biso   1.000  N
  C71      1.0000 0.69210  0.09610  0.24540  Biso   1.000  C
  N23      1.0000 0.68361  0.18150  0.25000  Biso   1.000  N
  C72      1.0000 0.70890  0.22730  0.27950  Biso   1.000  C
  N24      1.0000 0.74017  0.19230  0.30560  Biso   1.000  N
  Zn7      1.0000 0.17430  0.14340  0.27980  Biso   1.000  Zn
  Zn8      1.0000 0.07117  0.61430  0.60168  Biso   1.000  Zn
  I13      1.0000 0.23551  0.23180  0.30413  Biso   1.000  I
  I14      1.0000 0.12806  0.17220  0.20501  Biso   1.000  I
  I15      1.0000 0.89725  0.75970  0.39162  Biso   1.000  I
  I16      1.0000 0.85589  0.89860  0.50040  Biso   1.000  I
  I17      1.0000 0.10393  0.73754  0.56796  Biso   1.000  I
  I18      1.0000 0.01377  0.63940  0.63440  Biso   1.000  I
  Zn9      1.0000 0.17820  0.14820  0.28880  Biso   1.000  Zn
  Zn10     1.0000 0.08610  0.62120  0.59370  Biso   1.000  Zn
  I19      1.0000 0.24140  0.22640  0.31640  Biso   1.000  I
  I20      1.0000 0.13760  0.18080  0.21380  Biso   1.000  I
  I21      1.0000 0.88920  0.76440  0.39770  Biso   1.000  I
  I22      1.0000 0.85300  0.91540  0.50350  Biso   1.000  I
  I23      1.0000 0.12340  0.73260  0.56040  Biso   1.000  I
  I24      1.0000 0.02880  0.65740  0.62490  Biso   1.000  I
  Zn11     1.0000 0.37745  0.59846  0.92929  Biso   1.000  Zn
  N25      1.0000 0.64160  0.33780  0.82850  Biso   1.000  N
  C73      1.0000 0.65360  0.28870  0.86490  Biso   1.000  C
  H49      1.0000 0.67870  0.26430  0.87090  Biso   1.000  H
  C74      1.0000 0.63000  0.27270  0.89390  Biso   1.000  C
  H50      1.0000 0.63900  0.23800  0.91960  Biso   1.000  H
  C75      1.0000 0.59360  0.30760  0.88510  Biso   1.000  C
  C76      1.0000 0.58150  0.36020  0.84770  Biso   1.000  C
  H51      1.0000 0.55680  0.38710  0.84130  Biso   1.000  H
  C77      1.0000 0.60640  0.37170  0.82060  Biso   1.000  C
  H52      1.0000 0.59810  0.40580  0.79460  Biso   1.000  H
  N26      1.0000 0.42290  0.51030  0.93540  Biso   1.000  N
  C78      1.0000 0.43790  0.46720  0.97190  Biso   1.000  C
  H53      1.0000 0.42660  0.47500  0.99650  Biso   1.000  H
  C79      1.0000 0.46880  0.41150  0.97600  Biso   1.000  C
  H54      1.0000 0.47880  0.38200  0.00310  Biso   1.000  H
  C80      1.0000 0.48510  0.39860  0.94100  Biso   1.000  C
  C81      1.0000 0.46870  0.43880  0.90050  Biso   1.000  C
  H55      1.0000 0.47860  0.42810  0.87520  Biso   1.000  H
  C82      1.0000 0.43750  0.49420  0.89890  Biso   1.000  C
  H56      1.0000 0.42590  0.52200  0.87190  Biso   1.000  H
  N27      1.0000 0.56230  0.98910  0.05590  Biso   1.000  N
  C83      1.0000 0.53210  0.04250  0.05130  Biso   1.000  C
  H57      1.0000 0.51310  0.02940  0.06730  Biso   1.000  H
  C84      1.0000 0.52720  0.11670  0.02400  Biso   1.000  C
  H58      1.0000 0.50540  0.15400  0.02150  Biso   1.000  H
  C85      1.0000 0.55480  0.13600  0.00030  Biso   1.000  C
  C86      1.0000 0.58570  0.08100  0.00480  Biso   1.000  C
  H59      1.0000 0.60530  0.09240  0.98930  Biso   1.000  H
  C87      1.0000 0.58790  0.00620  0.03330  Biso   1.000  C
  H60      1.0000 0.60910  0.96660  0.03610  Biso   1.000  H
  C88      1.0000 0.56780  0.29300  0.91590  Biso   1.000  C
  N28      1.0000 0.53935  0.35120  0.91310  Biso   1.000  N
  C89      1.0000 0.51790  0.33850  0.94240  Biso   1.000  C
  N29      1.0000 0.52294  0.27300  0.97301  Biso   1.000  N
  C90      1.0000 0.55080  0.21600  0.97090  Biso   1.000  C
  N30      1.0000 0.57450  0.22390  0.94370  Biso   1.000  N
  N31      1.0000 0.33670  0.52980  0.88400  Biso   1.000  N
  C91      1.0000 0.33090  0.44430  0.88860  Biso   1.000  C
  H61      1.0000 0.34720  0.41330  0.91200  Biso   1.000  H
  C92      1.0000 0.30230  0.39660  0.86120  Biso   1.000  C
  H62      1.0000 0.29970  0.33380  0.86500  Biso   1.000  H
  C93      1.0000 0.27750  0.44160  0.82810  Biso   1.000  C
  C94      1.0000 0.28350  0.53180  0.82270  Biso   1.000  C
  H63      1.0000 0.26690  0.56480  0.80030  Biso   1.000  H
  C95      1.0000 0.31400  0.57410  0.85050  Biso   1.000  C
  H64      1.0000 0.31900  0.63550  0.84580  Biso   1.000  H
  N32      1.0000 0.11370  0.55010  0.64800  Biso   1.000  N
  C96      1.0000 0.10740  0.46650  0.65770  Biso   1.000  C
  H65      1.0000 0.08490  0.43820  0.64190  Biso   1.000  H
  C97      1.0000 0.13150  0.41720  0.68950  Biso   1.000  C
  H66      1.0000 0.12500  0.35780  0.69620  Biso   1.000  H
  C98      1.0000 0.16530  0.45580  0.71140  Biso   1.000  C
  C99      1.0000 0.17160  0.54450  0.70240  Biso   1.000  C
  H67      1.0000 0.19350  0.57510  0.71850  Biso   1.000  H
  C100     1.0000 0.14570  0.58840  0.66970  Biso   1.000  C
  H68      1.0000 0.15100  0.64840  0.66260  Biso   1.000  H
  N33      1.0000 0.18670  0.99180  0.78400  Biso   1.000  N
  C101     1.0000 0.16170  0.04770  0.76030  Biso   1.000  C
  H69      1.0000 0.13820  0.02430  0.74420  Biso   1.000  H
  C102     1.0000 0.16860  0.13800  0.75800  Biso   1.000  C
  H70      1.0000 0.15050  0.17530  0.73930  Biso   1.000  H
  C103     1.0000 0.20150  0.17480  0.78260  Biso   1.000  C
  C104     1.0000 0.22770  0.11780  0.80740  Biso   1.000  C
  H71      1.0000 0.25100  0.14040  0.82450  Biso   1.000  H
  C105     1.0000 0.21970  0.02630  0.80690  Biso   1.000  C
  H72      1.0000 0.23810  0.98680  0.82350  Biso   1.000  H
  C106     1.0000 0.24520  0.39480  0.79910  Biso   1.000  C
  N34      1.0000 0.22278  0.44600  0.76880  Biso   1.000  N
  C107     1.0000 0.19210  0.40390  0.74540  Biso   1.000  C
  N35      1.0000 0.18361  0.31850  0.75000  Biso   1.000  N
  C108     1.0000 0.20890  0.27270  0.77950  Biso   1.000  C
  N36      1.0000 0.24017  0.30770  0.80560  Biso   1.000  N
  Zn12     1.0000 0.67430  0.35660  0.77980  Biso   1.000  Zn
  Zn13     1.0000 0.57117  0.88570  0.10168  Biso   1.000  Zn
  I25      1.0000 0.73551  0.26820  0.80413  Biso   1.000  I
  I26      1.0000 0.62806  0.32780  0.70501  Biso   1.000  I
  I27      1.0000 0.39725  0.74030  0.89162  Biso   1.000  I
  I28      1.0000 0.35589  0.60140  0.00040  Biso   1.000  I
  I29      1.0000 0.60393  0.76246  0.06796  Biso   1.000  I
  I30      1.0000 0.51377  0.86060  0.13440  Biso   1.000  I
  Zn14     1.0000 0.67820  0.35180  0.78880  Biso   1.000  Zn
  Zn15     1.0000 0.58610  0.87880  0.09370  Biso   1.000  Zn
  I31      1.0000 0.74140  0.27360  0.81640  Biso   1.000  I
  I32      1.0000 0.63760  0.31920  0.71380  Biso   1.000  I
  I33      1.0000 0.38920  0.73560  0.89770  Biso   1.000  I
  I34      1.0000 0.35300  0.58460  0.00350  Biso   1.000  I
  I35      1.0000 0.62340  0.76740  0.06040  Biso   1.000  I
  I36      1.0000 0.52880  0.84260  0.12490  Biso   1.000  I
  Zn16     1.0000 0.87745  0.09846  0.92929  Biso   1.000  Zn
  N37      1.0000 0.14160  0.83780  0.82850  Biso   1.000  N
  C109     1.0000 0.15360  0.78870  0.86490  Biso   1.000  C
  H73      1.0000 0.17870  0.76430  0.87090  Biso   1.000  H
  C110     1.0000 0.13000  0.77270  0.89390  Biso   1.000  C
  H74      1.0000 0.13900  0.73800  0.91960  Biso   1.000  H
  C111     1.0000 0.09360  0.80760  0.88510  Biso   1.000  C
  C112     1.0000 0.08150  0.86020  0.84770  Biso   1.000  C
  H75      1.0000 0.05680  0.88710  0.84130  Biso   1.000  H
  C113     1.0000 0.10640  0.87170  0.82060  Biso   1.000  C
  H76      1.0000 0.09810  0.90580  0.79460  Biso   1.000  H
  N38      1.0000 0.92290  0.01030  0.93540  Biso   1.000  N
  C114     1.0000 0.93790  0.96720  0.97190  Biso   1.000  C
  H77      1.0000 0.92660  0.97500  0.99650  Biso   1.000  H
  C115     1.0000 0.96880  0.91150  0.97600  Biso   1.000  C
  H78      1.0000 0.97880  0.88200  0.00310  Biso   1.000  H
  C116     1.0000 0.98510  0.89860  0.94100  Biso   1.000  C
  C117     1.0000 0.96870  0.93880  0.90050  Biso   1.000  C
  H79      1.0000 0.97860  0.92810  0.87520  Biso   1.000  H
  C118     1.0000 0.93750  0.99420  0.89890  Biso   1.000  C
  H80      1.0000 0.92590  0.02200  0.87190  Biso   1.000  H
  N39      1.0000 0.06230  0.48910  0.05590  Biso   1.000  N
  C119     1.0000 0.03210  0.54250  0.05130  Biso   1.000  C
  H81      1.0000 0.01310  0.52940  0.06730  Biso   1.000  H
  C120     1.0000 0.02720  0.61670  0.02400  Biso   1.000  C
  H82      1.0000 0.00540  0.65400  0.02150  Biso   1.000  H
  C121     1.0000 0.05480  0.63600  0.00030  Biso   1.000  C
  C122     1.0000 0.08570  0.58100  0.00480  Biso   1.000  C
  H83      1.0000 0.10530  0.59240  0.98930  Biso   1.000  H
  C123     1.0000 0.08790  0.50620  0.03330  Biso   1.000  C
  H84      1.0000 0.10910  0.46660  0.03610  Biso   1.000  H
  C124     1.0000 0.06780  0.79300  0.91590  Biso   1.000  C
  N40      1.0000 0.03935  0.85120  0.91310  Biso   1.000  N
  C125     1.0000 0.01790  0.83850  0.94240  Biso   1.000  C
  N41      1.0000 0.02294  0.77300  0.97301  Biso   1.000  N
  C126     1.0000 0.05080  0.71600  0.97090  Biso   1.000  C
  N42      1.0000 0.07450  0.72390  0.94370  Biso   1.000  N
  N43      1.0000 0.83670  0.02980  0.88400  Biso   1.000  N
  C127     1.0000 0.83090  0.94430  0.88860  Biso   1.000  C
  H85      1.0000 0.84720  0.91330  0.91200  Biso   1.000  H
  C128     1.0000 0.80230  0.89660  0.86120  Biso   1.000  C
  H86      1.0000 0.79970  0.83380  0.86500  Biso   1.000  H
  C129     1.0000 0.77750  0.94160  0.82810  Biso   1.000  C
  C130     1.0000 0.78350  0.03180  0.82270  Biso   1.000  C
  H87      1.0000 0.76690  0.06480  0.80030  Biso   1.000  H
  C131     1.0000 0.81400  0.07410  0.85050  Biso   1.000  C
  H88      1.0000 0.81900  0.13550  0.84580  Biso   1.000  H
  N44      1.0000 0.61370  0.05010  0.64800  Biso   1.000  N
  C132     1.0000 0.60740  0.96650  0.65770  Biso   1.000  C
  H89      1.0000 0.58490  0.93820  0.64190  Biso   1.000  H
  C133     1.0000 0.63150  0.91720  0.68950  Biso   1.000  C
  H90      1.0000 0.62500  0.85780  0.69620  Biso   1.000  H
  C134     1.0000 0.66530  0.95580  0.71140  Biso   1.000  C
  C135     1.0000 0.67160  0.04450  0.70240  Biso   1.000  C
  H91      1.0000 0.69350  0.07510  0.71850  Biso   1.000  H
  C136     1.0000 0.64570  0.08840  0.66970  Biso   1.000  C
  H92      1.0000 0.65100  0.14840  0.66260  Biso   1.000  H
  N45      1.0000 0.68670  0.49180  0.78400  Biso   1.000  N
  C137     1.0000 0.66170  0.54770  0.76030  Biso   1.000  C
  H93      1.0000 0.63820  0.52430  0.74420  Biso   1.000  H
  C138     1.0000 0.66860  0.63800  0.75800  Biso   1.000  C
  H94      1.0000 0.65050  0.67530  0.73930  Biso   1.000  H
  C139     1.0000 0.70150  0.67480  0.78260  Biso   1.000  C
  C140     1.0000 0.72770  0.61780  0.80740  Biso   1.000  C
  H95      1.0000 0.75100  0.64040  0.82450  Biso   1.000  H
  C141     1.0000 0.71970  0.52630  0.80690  Biso   1.000  C
  H96      1.0000 0.73810  0.48680  0.82350  Biso   1.000  H
  C142     1.0000 0.74520  0.89480  0.79910  Biso   1.000  C
  N46      1.0000 0.72278  0.94600  0.76880  Biso   1.000  N
  C143     1.0000 0.69210  0.90390  0.74540  Biso   1.000  C
  N47      1.0000 0.68361  0.81850  0.75000  Biso   1.000  N
  C144     1.0000 0.70890  0.77270  0.77950  Biso   1.000  C
  N48      1.0000 0.74017  0.80770  0.80560  Biso   1.000  N
  Zn17     1.0000 0.17430  0.85660  0.77980  Biso   1.000  Zn
  Zn18     1.0000 0.07117  0.38570  0.10168  Biso   1.000  Zn
  I37      1.0000 0.23551  0.76820  0.80413  Biso   1.000  I
  I38      1.0000 0.12806  0.82780  0.70501  Biso   1.000  I
  I39      1.0000 0.89725  0.24030  0.89162  Biso   1.000  I
  I40      1.0000 0.85589  0.10140  0.00040  Biso   1.000  I
  I41      1.0000 0.10393  0.26246  0.06796  Biso   1.000  I
  I42      1.0000 0.01377  0.36060  0.13440  Biso   1.000  I
  Zn19     1.0000 0.17820  0.85180  0.78880  Biso   1.000  Zn
  Zn20     1.0000 0.08610  0.37880  0.09370  Biso   1.000  Zn
  I43      1.0000 0.24140  0.77360  0.81640  Biso   1.000  I
  I44      1.0000 0.13760  0.81920  0.71380  Biso   1.000  I
  I45      1.0000 0.88920  0.23560  0.89770  Biso   1.000  I
  I46      1.0000 0.85300  0.08460  0.00350  Biso   1.000  I
  I47      1.0000 0.12340  0.26740  0.06040  Biso   1.000  I
  I48      1.0000 0.02880  0.34260  0.12490  Biso   1.000  I
  Zn21     1.0000 0.62255  0.40154  0.07071  Biso   1.000  Zn
  N49      1.0000 0.35840  0.66220  0.17150  Biso   1.000  N
  C145     1.0000 0.34640  0.71130  0.13510  Biso   1.000  C
  H97      1.0000 0.32130  0.73570  0.12910  Biso   1.000  H
  C146     1.0000 0.37000  0.72730  0.10610  Biso   1.000  C
  H98      1.0000 0.36100  0.76200  0.08040  Biso   1.000  H
  C147     1.0000 0.40640  0.69240  0.11490  Biso   1.000  C
  C148     1.0000 0.41850  0.63980  0.15230  Biso   1.000  C
  H99      1.0000 0.44320  0.61290  0.15870  Biso   1.000  H
  C149     1.0000 0.39360  0.62830  0.17940  Biso   1.000  C
  H100     1.0000 0.40190  0.59420  0.20540  Biso   1.000  H
  N50      1.0000 0.57710  0.48970  0.06460  Biso   1.000  N
  C150     1.0000 0.56210  0.53280  0.02810  Biso   1.000  C
  H101     1.0000 0.57340  0.52500  0.00350  Biso   1.000  H
  C151     1.0000 0.53120  0.58850  0.02400  Biso   1.000  C
  H102     1.0000 0.52120  0.61800  0.99690  Biso   1.000  H
  C152     1.0000 0.51490  0.60140  0.05900  Biso   1.000  C
  C153     1.0000 0.53130  0.56120  0.09950  Biso   1.000  C
  H103     1.0000 0.52140  0.57190  0.12480  Biso   1.000  H
  C154     1.0000 0.56250  0.50580  0.10110  Biso   1.000  C
  H104     1.0000 0.57410  0.47800  0.12810  Biso   1.000  H
  N51      1.0000 0.43770  0.01090  0.94410  Biso   1.000  N
  C155     1.0000 0.46790  0.95750  0.94870  Biso   1.000  C
  H105     1.0000 0.48690  0.97060  0.93270  Biso   1.000  H
  C156     1.0000 0.47280  0.88330  0.97600  Biso   1.000  C
  H106     1.0000 0.49460  0.84600  0.97850  Biso   1.000  H
  C157     1.0000 0.44520  0.86400  0.99970  Biso   1.000  C
  C158     1.0000 0.41430  0.91900  0.99520  Biso   1.000  C
  H107     1.0000 0.39470  0.90760  0.01070  Biso   1.000  H
  C159     1.0000 0.41210  0.99380  0.96670  Biso   1.000  C
  H108     1.0000 0.39090  0.03340  0.96390  Biso   1.000  H
  C160     1.0000 0.43220  0.70700  0.08410  Biso   1.000  C
  N52      1.0000 0.46065  0.64880  0.08690  Biso   1.000  N
  C161     1.0000 0.48210  0.66150  0.05760  Biso   1.000  C
  N53      1.0000 0.47706  0.72700  0.02699  Biso   1.000  N
  C162     1.0000 0.44920  0.78400  0.02910  Biso   1.000  C
  N54      1.0000 0.42550  0.77610  0.05630  Biso   1.000  N
  N55      1.0000 0.66330  0.47020  0.11600  Biso   1.000  N
  C163     1.0000 0.66910  0.55570  0.11140  Biso   1.000  C
  H109     1.0000 0.65280  0.58670  0.08800  Biso   1.000  H
  C164     1.0000 0.69770  0.60340  0.13880  Biso   1.000  C
  H110     1.0000 0.70030  0.66620  0.13500  Biso   1.000  H
  C165     1.0000 0.72250  0.55840  0.17190  Biso   1.000  C
  C166     1.0000 0.71650  0.46820  0.17730  Biso   1.000  C
  H111     1.0000 0.73310  0.43520  0.19970  Biso   1.000  H
  C167     1.0000 0.68600  0.42590  0.14950  Biso   1.000  C
  H112     1.0000 0.68100  0.36450  0.15420  Biso   1.000  H
  N56      1.0000 0.88630  0.44990  0.35200  Biso   1.000  N
  C168     1.0000 0.89260  0.53350  0.34230  Biso   1.000  C
  H113     1.0000 0.91510  0.56180  0.35810  Biso   1.000  H
  C169     1.0000 0.86850  0.58280  0.31050  Biso   1.000  C
  H114     1.0000 0.87500  0.64220  0.30380  Biso   1.000  H
  C170     1.0000 0.83470  0.54420  0.28860  Biso   1.000  C
  C171     1.0000 0.82840  0.45550  0.29760  Biso   1.000  C
  H115     1.0000 0.80650  0.42490  0.28150  Biso   1.000  H
  C172     1.0000 0.85430  0.41160  0.33030  Biso   1.000  C
  H116     1.0000 0.84900  0.35160  0.33740  Biso   1.000  H
  N57      1.0000 0.81330  0.00820  0.21600  Biso   1.000  N
  C173     1.0000 0.83830  0.95230  0.23970  Biso   1.000  C
  H117     1.0000 0.86180  0.97570  0.25580  Biso   1.000  H
  C174     1.0000 0.83140  0.86200  0.24200  Biso   1.000  C
  H118     1.0000 0.84950  0.82470  0.26070  Biso   1.000  H
  C175     1.0000 0.79850  0.82520  0.21740  Biso   1.000  C
  C176     1.0000 0.77230  0.88220  0.19260  Biso   1.000  C
  H119     1.0000 0.74900  0.85960  0.17550  Biso   1.000  H
  C177     1.0000 0.78030  0.97370  0.19310  Biso   1.000  C
  H120     1.0000 0.76190  0.01320  0.17650  Biso   1.000  H
  C178     1.0000 0.75480  0.60520  0.20090  Biso   1.000  C
  N58      1.0000 0.77722  0.55400  0.23120  Biso   1.000  N
  C179     1.0000 0.80790  0.59610  0.25460  Biso   1.000  C
  N59      1.0000 0.81639  0.68150  0.25000  Biso   1.000  N
  C180     1.0000 0.79110  0.72730  0.22050  Biso   1.000  C
  N60      1.0000 0.75983  0.69230  0.19440  Biso   1.000  N
  Zn22     1.0000 0.32570  0.64340  0.22020  Biso   1.000  Zn
  Zn23     1.0000 0.42883  0.11430  0.89832  Biso   1.000  Zn
  I49      1.0000 0.26449  0.73180  0.19587  Biso   1.000  I
  I50      1.0000 0.37194  0.67220  0.29499  Biso   1.000  I
  I51      1.0000 0.60275  0.25970  0.10838  Biso   1.000  I
  I52      1.0000 0.64411  0.39860  0.99960  Biso   1.000  I
  I53      1.0000 0.39607  0.23754  0.93204  Biso   1.000  I
  I54      1.0000 0.48623  0.13940  0.86560  Biso   1.000  I
  Zn24     1.0000 0.32180  0.64820  0.21120  Biso   1.000  Zn
  Zn25     1.0000 0.41390  0.12120  0.90630  Biso   1.000  Zn
  I55      1.0000 0.25860  0.72640  0.18360  Biso   1.000  I
  I56      1.0000 0.36240  0.68080  0.28620  Biso   1.000  I
  I57      1.0000 0.61080  0.26440  0.10230  Biso   1.000  I
  I58      1.0000 0.64700  0.41540  0.99650  Biso   1.000  I
  I59      1.0000 0.37660  0.23260  0.93960  Biso   1.000  I
  I60      1.0000 0.47120  0.15740  0.87510  Biso   1.000  I
  Zn26     1.0000 0.12255  0.90154  0.07071  Biso   1.000  Zn
  N61      1.0000 0.85840  0.16220  0.17150  Biso   1.000  N
  C181     1.0000 0.84640  0.21130  0.13510  Biso   1.000  C
  H121     1.0000 0.82130  0.23570  0.12910  Biso   1.000  H
  C182     1.0000 0.87000  0.22730  0.10610  Biso   1.000  C
  H122     1.0000 0.86100  0.26200  0.08040  Biso   1.000  H
  C183     1.0000 0.90640  0.19240  0.11490  Biso   1.000  C
  C184     1.0000 0.91850  0.13980  0.15230  Biso   1.000  C
  H123     1.0000 0.94320  0.11290  0.15870  Biso   1.000  H
  C185     1.0000 0.89360  0.12830  0.17940  Biso   1.000  C
  H124     1.0000 0.90190  0.09420  0.20540  Biso   1.000  H
  N62      1.0000 0.07710  0.98970  0.06460  Biso   1.000  N
  C186     1.0000 0.06210  0.03280  0.02810  Biso   1.000  C
  H125     1.0000 0.07340  0.02500  0.00350  Biso   1.000  H
  C187     1.0000 0.03120  0.08850  0.02400  Biso   1.000  C
  H126     1.0000 0.02120  0.11800  0.99690  Biso   1.000  H
  C188     1.0000 0.01490  0.10140  0.05900  Biso   1.000  C
  C189     1.0000 0.03130  0.06120  0.09950  Biso   1.000  C
  H127     1.0000 0.02140  0.07190  0.12480  Biso   1.000  H
  C190     1.0000 0.06250  0.00580  0.10110  Biso   1.000  C
  H128     1.0000 0.07410  0.97800  0.12810  Biso   1.000  H
  N63      1.0000 0.93770  0.51090  0.94410  Biso   1.000  N
  C191     1.0000 0.96790  0.45750  0.94870  Biso   1.000  C
  H129     1.0000 0.98690  0.47060  0.93270  Biso   1.000  H
  C192     1.0000 0.97280  0.38330  0.97600  Biso   1.000  C
  H130     1.0000 0.99460  0.34600  0.97850  Biso   1.000  H
  C193     1.0000 0.94520  0.36400  0.99970  Biso   1.000  C
  C194     1.0000 0.91430  0.41900  0.99520  Biso   1.000  C
  H131     1.0000 0.89470  0.40760  0.01070  Biso   1.000  H
  C195     1.0000 0.91210  0.49380  0.96670  Biso   1.000  C
  H132     1.0000 0.89090  0.53340  0.96390  Biso   1.000  H
  C196     1.0000 0.93220  0.20700  0.08410  Biso   1.000  C
  N64      1.0000 0.96065  0.14880  0.08690  Biso   1.000  N
  C197     1.0000 0.98210  0.16150  0.05760  Biso   1.000  C
  N65      1.0000 0.97706  0.22700  0.02699  Biso   1.000  N
  C198     1.0000 0.94920  0.28400  0.02910  Biso   1.000  C
  N66      1.0000 0.92550  0.27610  0.05630  Biso   1.000  N
  N67      1.0000 0.16330  0.97020  0.11600  Biso   1.000  N
  C199     1.0000 0.16910  0.05570  0.11140  Biso   1.000  C
  H133     1.0000 0.15280  0.08670  0.08800  Biso   1.000  H
  C200     1.0000 0.19770  0.10340  0.13880  Biso   1.000  C
  H134     1.0000 0.20030  0.16620  0.13500  Biso   1.000  H
  C201     1.0000 0.22250  0.05840  0.17190  Biso   1.000  C
  C202     1.0000 0.21650  0.96820  0.17730  Biso   1.000  C
  H135     1.0000 0.23310  0.93520  0.19970  Biso   1.000  H
  C203     1.0000 0.18600  0.92590  0.14950  Biso   1.000  C
  H136     1.0000 0.18100  0.86450  0.15420  Biso   1.000  H
  N68      1.0000 0.38630  0.94990  0.35200  Biso   1.000  N
  C204     1.0000 0.39260  0.03350  0.34230  Biso   1.000  C
  H137     1.0000 0.41510  0.06180  0.35810  Biso   1.000  H
  C205     1.0000 0.36850  0.08280  0.31050  Biso   1.000  C
  H138     1.0000 0.37500  0.14220  0.30380  Biso   1.000  H
  C206     1.0000 0.33470  0.04420  0.28860  Biso   1.000  C
  C207     1.0000 0.32840  0.95550  0.29760  Biso   1.000  C
  H139     1.0000 0.30650  0.92490  0.28150  Biso   1.000  H
  C208     1.0000 0.35430  0.91160  0.33030  Biso   1.000  C
  H140     1.0000 0.34900  0.85160  0.33740  Biso   1.000  H
  N69      1.0000 0.31330  0.50820  0.21600  Biso   1.000  N
  C209     1.0000 0.33830  0.45230  0.23970  Biso   1.000  C
  H141     1.0000 0.36180  0.47570  0.25580  Biso   1.000  H
  C210     1.0000 0.33140  0.36200  0.24200  Biso   1.000  C
  H142     1.0000 0.34950  0.32470  0.26070  Biso   1.000  H
  C211     1.0000 0.29850  0.32520  0.21740  Biso   1.000  C
  C212     1.0000 0.27230  0.38220  0.19260  Biso   1.000  C
  H143     1.0000 0.24900  0.35960  0.17550  Biso   1.000  H
  C213     1.0000 0.28030  0.47370  0.19310  Biso   1.000  C
  H144     1.0000 0.26190  0.51320  0.17650  Biso   1.000  H
  C214     1.0000 0.25480  0.10520  0.20090  Biso   1.000  C
  N70      1.0000 0.27722  0.05400  0.23120  Biso   1.000  N
  C215     1.0000 0.30790  0.09610  0.25460  Biso   1.000  C
  N71      1.0000 0.31639  0.18150  0.25000  Biso   1.000  N
  C216     1.0000 0.29110  0.22730  0.22050  Biso   1.000  C
  N72      1.0000 0.25983  0.19230  0.19440  Biso   1.000  N
  Zn27     1.0000 0.82570  0.14340  0.22020  Biso   1.000  Zn
  Zn28     1.0000 0.92883  0.61430  0.89832  Biso   1.000  Zn
  I61      1.0000 0.76449  0.23180  0.19587  Biso   1.000  I
  I62      1.0000 0.87194  0.17220  0.29499  Biso   1.000  I
  I63      1.0000 0.10275  0.75970  0.10838  Biso   1.000  I
  I64      1.0000 0.14411  0.89860  0.99960  Biso   1.000  I
  I65      1.0000 0.89607  0.73754  0.93204  Biso   1.000  I
  I66      1.0000 0.98623  0.63940  0.86560  Biso   1.000  I
  Zn29     1.0000 0.82180  0.14820  0.21120  Biso   1.000  Zn
  Zn30     1.0000 0.91390  0.62120  0.90630  Biso   1.000  Zn
  I67      1.0000 0.75860  0.22640  0.18360  Biso   1.000  I
  I68      1.0000 0.86240  0.18080  0.28620  Biso   1.000  I
  I69      1.0000 0.11080  0.76440  0.10230  Biso   1.000  I
  I70      1.0000 0.14700  0.91540  0.99650  Biso   1.000  I
  I71      1.0000 0.87660  0.73260  0.93960  Biso   1.000  I
  I72      1.0000 0.97120  0.65740  0.87510  Biso   1.000  I
  Zn31     1.0000 0.62255  0.59846  0.57071  Biso   1.000  Zn
  N73      1.0000 0.35840  0.33780  0.67150  Biso   1.000  N
  C217     1.0000 0.34640  0.28870  0.63510  Biso   1.000  C
  H145     1.0000 0.32130  0.26430  0.62910  Biso   1.000  H
  C218     1.0000 0.37000  0.27270  0.60610  Biso   1.000  C
  H146     1.0000 0.36100  0.23800  0.58040  Biso   1.000  H
  C219     1.0000 0.40640  0.30760  0.61490  Biso   1.000  C
  C220     1.0000 0.41850  0.36020  0.65230  Biso   1.000  C
  H147     1.0000 0.44320  0.38710  0.65870  Biso   1.000  H
  C221     1.0000 0.39360  0.37170  0.67940  Biso   1.000  C
  H148     1.0000 0.40190  0.40580  0.70540  Biso   1.000  H
  N74      1.0000 0.57710  0.51030  0.56460  Biso   1.000  N
  C222     1.0000 0.56210  0.46720  0.52810  Biso   1.000  C
  H149     1.0000 0.57340  0.47500  0.50350  Biso   1.000  H
  C223     1.0000 0.53120  0.41150  0.52400  Biso   1.000  C
  H150     1.0000 0.52120  0.38200  0.49690  Biso   1.000  H
  C224     1.0000 0.51490  0.39860  0.55900  Biso   1.000  C
  C225     1.0000 0.53130  0.43880  0.59950  Biso   1.000  C
  H151     1.0000 0.52140  0.42810  0.62480  Biso   1.000  H
  C226     1.0000 0.56250  0.49420  0.60110  Biso   1.000  C
  H152     1.0000 0.57410  0.52200  0.62810  Biso   1.000  H
  N75      1.0000 0.43770  0.98910  0.44410  Biso   1.000  N
  C227     1.0000 0.46790  0.04250  0.44870  Biso   1.000  C
  H153     1.0000 0.48690  0.02940  0.43270  Biso   1.000  H
  C228     1.0000 0.47280  0.11670  0.47600  Biso   1.000  C
  H154     1.0000 0.49460  0.15400  0.47850  Biso   1.000  H
  C229     1.0000 0.44520  0.13600  0.49970  Biso   1.000  C
  C230     1.0000 0.41430  0.08100  0.49520  Biso   1.000  C
  H155     1.0000 0.39470  0.09240  0.51070  Biso   1.000  H
  C231     1.0000 0.41210  0.00620  0.46670  Biso   1.000  C
  H156     1.0000 0.39090  0.96660  0.46390  Biso   1.000  H
  C232     1.0000 0.43220  0.29300  0.58410  Biso   1.000  C
  N76      1.0000 0.46065  0.35120  0.58690  Biso   1.000  N
  C233     1.0000 0.48210  0.33850  0.55760  Biso   1.000  C
  N77      1.0000 0.47706  0.27300  0.52699  Biso   1.000  N
  C234     1.0000 0.44920  0.21600  0.52910  Biso   1.000  C
  N78      1.0000 0.42550  0.22390  0.55630  Biso   1.000  N
  N79      1.0000 0.66330  0.52980  0.61600  Biso   1.000  N
  C235     1.0000 0.66910  0.44430  0.61140  Biso   1.000  C
  H157     1.0000 0.65280  0.41330  0.58800  Biso   1.000  H
  C236     1.0000 0.69770  0.39660  0.63880  Biso   1.000  C
  H158     1.0000 0.70030  0.33380  0.63500  Biso   1.000  H
  C237     1.0000 0.72250  0.44160  0.67190  Biso   1.000  C
  C238     1.0000 0.71650  0.53180  0.67730  Biso   1.000  C
  H159     1.0000 0.73310  0.56480  0.69970  Biso   1.000  H
  C239     1.0000 0.68600  0.57410  0.64950  Biso   1.000  C
  H160     1.0000 0.68100  0.63550  0.65420  Biso   1.000  H
  N80      1.0000 0.88630  0.55010  0.85200  Biso   1.000  N
  C240     1.0000 0.89260  0.46650  0.84230  Biso   1.000  C
  H161     1.0000 0.91510  0.43820  0.85810  Biso   1.000  H
  C241     1.0000 0.86850  0.41720  0.81050  Biso   1.000  C
  H162     1.0000 0.87500  0.35780  0.80380  Biso   1.000  H
  C242     1.0000 0.83470  0.45580  0.78860  Biso   1.000  C
  C243     1.0000 0.82840  0.54450  0.79760  Biso   1.000  C
  H163     1.0000 0.80650  0.57510  0.78150  Biso   1.000  H
  C244     1.0000 0.85430  0.58840  0.83030  Biso   1.000  C
  H164     1.0000 0.84900  0.64840  0.83740  Biso   1.000  H
  N81      1.0000 0.81330  0.99180  0.71600  Biso   1.000  N
  C245     1.0000 0.83830  0.04770  0.73970  Biso   1.000  C
  H165     1.0000 0.86180  0.02430  0.75580  Biso   1.000  H
  C246     1.0000 0.83140  0.13800  0.74200  Biso   1.000  C
  H166     1.0000 0.84950  0.17530  0.76070  Biso   1.000  H
  C247     1.0000 0.79850  0.17480  0.71740  Biso   1.000  C
  C248     1.0000 0.77230  0.11780  0.69260  Biso   1.000  C
  H167     1.0000 0.74900  0.14040  0.67550  Biso   1.000  H
  C249     1.0000 0.78030  0.02630  0.69310  Biso   1.000  C
  H168     1.0000 0.76190  0.98680  0.67650  Biso   1.000  H
  C250     1.0000 0.75480  0.39480  0.70090  Biso   1.000  C
  N82      1.0000 0.77722  0.44600  0.73120  Biso   1.000  N
  C251     1.0000 0.80790  0.40390  0.75460  Biso   1.000  C
  N83      1.0000 0.81639  0.31850  0.75000  Biso   1.000  N
  C252     1.0000 0.79110  0.27270  0.72050  Biso   1.000  C
  N84      1.0000 0.75983  0.30770  0.69440  Biso   1.000  N
  Zn32     1.0000 0.32570  0.35660  0.72020  Biso   1.000  Zn
  Zn33     1.0000 0.42883  0.88570  0.39832  Biso   1.000  Zn
  I73      1.0000 0.26449  0.26820  0.69587  Biso   1.000  I
  I74      1.0000 0.37194  0.32780  0.79499  Biso   1.000  I
  I75      1.0000 0.60275  0.74030  0.60838  Biso   1.000  I
  I76      1.0000 0.64411  0.60140  0.49960  Biso   1.000  I
  I77      1.0000 0.39607  0.76246  0.43204  Biso   1.000  I
  I78      1.0000 0.48623  0.86060  0.36560  Biso   1.000  I
  Zn34     1.0000 0.32180  0.35180  0.71120  Biso   1.000  Zn
  Zn35     1.0000 0.41390  0.87880  0.40630  Biso   1.000  Zn
  I79      1.0000 0.25860  0.27360  0.68360  Biso   1.000  I
  I80      1.0000 0.36240  0.31920  0.78620  Biso   1.000  I
  I81      1.0000 0.61080  0.73560  0.60230  Biso   1.000  I
  I82      1.0000 0.64700  0.58460  0.49650  Biso   1.000  I
  I83      1.0000 0.37660  0.76740  0.43960  Biso   1.000  I
  I84      1.0000 0.47120  0.84260  0.37510  Biso   1.000  I
  Zn36     1.0000 0.12255  0.09846  0.57071  Biso   1.000  Zn
  N85      1.0000 0.85840  0.83780  0.67150  Biso   1.000  N
  C253     1.0000 0.84640  0.78870  0.63510  Biso   1.000  C
  H169     1.0000 0.82130  0.76430  0.62910  Biso   1.000  H
  C254     1.0000 0.87000  0.77270  0.60610  Biso   1.000  C
  H170     1.0000 0.86100  0.73800  0.58040  Biso   1.000  H
  C255     1.0000 0.90640  0.80760  0.61490  Biso   1.000  C
  C256     1.0000 0.91850  0.86020  0.65230  Biso   1.000  C
  H171     1.0000 0.94320  0.88710  0.65870  Biso   1.000  H
  C257     1.0000 0.89360  0.87170  0.67940  Biso   1.000  C
  H172     1.0000 0.90190  0.90580  0.70540  Biso   1.000  H
  N86      1.0000 0.07710  0.01030  0.56460  Biso   1.000  N
  C258     1.0000 0.06210  0.96720  0.52810  Biso   1.000  C
  H173     1.0000 0.07340  0.97500  0.50350  Biso   1.000  H
  C259     1.0000 0.03120  0.91150  0.52400  Biso   1.000  C
  H174     1.0000 0.02120  0.88200  0.49690  Biso   1.000  H
  C260     1.0000 0.01490  0.89860  0.55900  Biso   1.000  C
  C261     1.0000 0.03130  0.93880  0.59950  Biso   1.000  C
  H175     1.0000 0.02140  0.92810  0.62480  Biso   1.000  H
  C262     1.0000 0.06250  0.99420  0.60110  Biso   1.000  C
  H176     1.0000 0.07410  0.02200  0.62810  Biso   1.000  H
  N87      1.0000 0.93770  0.48910  0.44410  Biso   1.000  N
  C263     1.0000 0.96790  0.54250  0.44870  Biso   1.000  C
  H177     1.0000 0.98690  0.52940  0.43270  Biso   1.000  H
  C264     1.0000 0.97280  0.61670  0.47600  Biso   1.000  C
  H178     1.0000 0.99460  0.65400  0.47850  Biso   1.000  H
  C265     1.0000 0.94520  0.63600  0.49970  Biso   1.000  C
  C266     1.0000 0.91430  0.58100  0.49520  Biso   1.000  C
  H179     1.0000 0.89470  0.59240  0.51070  Biso   1.000  H
  C267     1.0000 0.91210  0.50620  0.46670  Biso   1.000  C
  H180     1.0000 0.89090  0.46660  0.46390  Biso   1.000  H
  C268     1.0000 0.93220  0.79300  0.58410  Biso   1.000  C
  N88      1.0000 0.96065  0.85120  0.58690  Biso   1.000  N
  C269     1.0000 0.98210  0.83850  0.55760  Biso   1.000  C
  N89      1.0000 0.97706  0.77300  0.52699  Biso   1.000  N
  C270     1.0000 0.94920  0.71600  0.52910  Biso   1.000  C
  N90      1.0000 0.92550  0.72390  0.55630  Biso   1.000  N
  N91      1.0000 0.16330  0.02980  0.61600  Biso   1.000  N
  C271     1.0000 0.16910  0.94430  0.61140  Biso   1.000  C
  H181     1.0000 0.15280  0.91330  0.58800  Biso   1.000  H
  C272     1.0000 0.19770  0.89660  0.63880  Biso   1.000  C
  H182     1.0000 0.20030  0.83380  0.63500  Biso   1.000  H
  C273     1.0000 0.22250  0.94160  0.67190  Biso   1.000  C
  C274     1.0000 0.21650  0.03180  0.67730  Biso   1.000  C
  H183     1.0000 0.23310  0.06480  0.69970  Biso   1.000  H
  C275     1.0000 0.18600  0.07410  0.64950  Biso   1.000  C
  H184     1.0000 0.18100  0.13550  0.65420  Biso   1.000  H
  N92      1.0000 0.38630  0.05010  0.85200  Biso   1.000  N
  C276     1.0000 0.39260  0.96650  0.84230  Biso   1.000  C
  H185     1.0000 0.41510  0.93820  0.85810  Biso   1.000  H
  C277     1.0000 0.36850  0.91720  0.81050  Biso   1.000  C
  H186     1.0000 0.37500  0.85780  0.80380  Biso   1.000  H
  C278     1.0000 0.33470  0.95580  0.78860  Biso   1.000  C
  C279     1.0000 0.32840  0.04450  0.79760  Biso   1.000  C
  H187     1.0000 0.30650  0.07510  0.78150  Biso   1.000  H
  C280     1.0000 0.35430  0.08840  0.83030  Biso   1.000  C
  H188     1.0000 0.34900  0.14840  0.83740  Biso   1.000  H
  N93      1.0000 0.31330  0.49180  0.71600  Biso   1.000  N
  C281     1.0000 0.33830  0.54770  0.73970  Biso   1.000  C
  H189     1.0000 0.36180  0.52430  0.75580  Biso   1.000  H
  C282     1.0000 0.33140  0.63800  0.74200  Biso   1.000  C
  H190     1.0000 0.34950  0.67530  0.76070  Biso   1.000  H
  C283     1.0000 0.29850  0.67480  0.71740  Biso   1.000  C
  C284     1.0000 0.27230  0.61780  0.69260  Biso   1.000  C
  H191     1.0000 0.24900  0.64040  0.67550  Biso   1.000  H
  C285     1.0000 0.28030  0.52630  0.69310  Biso   1.000  C
  H192     1.0000 0.26190  0.48680  0.67650  Biso   1.000  H
  C286     1.0000 0.25480  0.89480  0.70090  Biso   1.000  C
  N94      1.0000 0.27722  0.94600  0.73120  Biso   1.000  N
  C287     1.0000 0.30790  0.90390  0.75460  Biso   1.000  C
  N95      1.0000 0.31639  0.81850  0.75000  Biso   1.000  N
  C288     1.0000 0.29110  0.77270  0.72050  Biso   1.000  C
  N96      1.0000 0.25983  0.80770  0.69440  Biso   1.000  N
  Zn37     1.0000 0.82570  0.85660  0.72020  Biso   1.000  Zn
  Zn38     1.0000 0.92883  0.38570  0.39832  Biso   1.000  Zn
  I85      1.0000 0.76449  0.76820  0.69587  Biso   1.000  I
  I86      1.0000 0.87194  0.82780  0.79499  Biso   1.000  I
  I87      1.0000 0.10275  0.24030  0.60838  Biso   1.000  I
  I88      1.0000 0.14411  0.10140  0.49960  Biso   1.000  I
  I89      1.0000 0.89607  0.26246  0.43204  Biso   1.000  I
  I90      1.0000 0.98623  0.36060  0.36560  Biso   1.000  I
  Zn39     1.0000 0.82180  0.85180  0.71120  Biso   1.000  Zn
  Zn40     1.0000 0.91390  0.37880  0.40630  Biso   1.000  Zn
  I91      1.0000 0.75860  0.77360  0.68360  Biso   1.000  I
  I92      1.0000 0.86240  0.81920  0.78620  Biso   1.000  I
  I93      1.0000 0.11080  0.23560  0.60230  Biso   1.000  I
  I94      1.0000 0.14700  0.08460  0.49650  Biso   1.000  I
  I95      1.0000 0.87660  0.26740  0.43960  Biso   1.000  I
  I96      1.0000 0.97120  0.34260  0.37510  Biso   1.000  I
