data_image0
_cell_length_a       30.142
_cell_length_b       30.142
_cell_length_c       16.4696
_cell_angle_alpha    90
_cell_angle_beta     90
_cell_angle_gamma    90

_symmetry_space_group_name_H-M    "P 1"
_symmetry_int_tables_number       1

loop_
  _symmetry_equiv_pos_as_xyz
  'x, y, z'

loop_
  _atom_site_label
  _atom_site_occupancy
  _atom_site_fract_x
  _atom_site_fract_y
  _atom_site_fract_z
  _atom_site_thermal_displace_type
  _atom_site_B_iso_or_equiv
  _atom_site_type_symbol
  In1      1.0000 0.47637  0.25719  0.38406  Biso   1.000  In
  O1       1.0000 0.31324  0.46944  0.39779  Biso   1.000  O
  O2       1.0000 0.27085  0.47218  0.29050  Biso   1.000  O
  O3       1.0000 0.42909  0.29697  0.32285  Biso   1.000  O
  O4       1.0000 0.44016  0.36018  0.39265  Biso   1.000  O
  C1       1.0000 0.37763  0.35533  0.30560  Biso   1.000  C
  C2       1.0000 0.31646  0.34760  0.21240  Biso   1.000  C
  C3       1.0000 0.35499  0.33174  0.24600  Biso   1.000  C
  H1       1.0000 0.36650  0.30410  0.22810  Biso   1.000  H
  C4       1.0000 0.25975  0.29098  0.17360  Biso   1.000  C
  C5       1.0000 0.30302  0.33093  0.06710  Biso   1.000  C
  C6       1.0000 0.29205  0.32227  0.14690  Biso   1.000  C
  C7       1.0000 0.32133  0.41151  0.29940  Biso   1.000  C
  C8       1.0000 0.36026  0.39538  0.33250  Biso   1.000  C
  H2       1.0000 0.37510  0.41170  0.37370  Biso   1.000  H
  C9       1.0000 0.30121  0.45350  0.33020  Biso   1.000  C
  C10      1.0000 0.29985  0.38829  0.23870  Biso   1.000  C
  H3       1.0000 0.27370  0.40010  0.21480  Biso   1.000  H
  C11      1.0000 0.41891  0.33689  0.34390  Biso   1.000  C
  C12      1.0000 0.24839  0.28233  0.25680  Biso   1.000  C
  H4       1.0000 0.26090  0.29630  0.30330  Biso   1.000  H
  C13      1.0000 0.33546  0.36339  0.04080  Biso   1.000  C
  H5       1.0000 0.35340  0.38140  0.07500  Biso   1.000  H
  O5       1.0000 0.52540  0.21150  0.43200  Biso   1.000  O
  O6       1.0000 0.46367  0.20349  0.29700  Biso   1.000  O
  O7       1.0000 0.41955  0.20144  0.40190  Biso   1.000  O
  C14      1.0000 0.43561  0.12096  0.24190  Biso   1.000  C
  H6       1.0000 0.46240  0.13270  0.22050  Biso   1.000  H
  C15      1.0000 0.41329  0.14322  0.30470  Biso   1.000  C
  C16      1.0000 0.43263  0.18467  0.33720  Biso   1.000  C
  H7       1.0000 0.44700  0.25720  0.52700  Biso   1.000  H
  In2      1.0000 0.52363  0.74281  0.38406  Biso   1.000  In
  O8       1.0000 0.68676  0.53056  0.39779  Biso   1.000  O
  O9       1.0000 0.72915  0.52782  0.29050  Biso   1.000  O
  O10      1.0000 0.57091  0.70303  0.32285  Biso   1.000  O
  O11      1.0000 0.55984  0.63982  0.39265  Biso   1.000  O
  C17      1.0000 0.62237  0.64467  0.30560  Biso   1.000  C
  C18      1.0000 0.68354  0.65240  0.21240  Biso   1.000  C
  C19      1.0000 0.64501  0.66826  0.24600  Biso   1.000  C
  H8       1.0000 0.63350  0.69590  0.22810  Biso   1.000  H
  C20      1.0000 0.74025  0.70902  0.17360  Biso   1.000  C
  C21      1.0000 0.69698  0.66907  0.06710  Biso   1.000  C
  C22      1.0000 0.70795  0.67773  0.14690  Biso   1.000  C
  C23      1.0000 0.67867  0.58849  0.29940  Biso   1.000  C
  C24      1.0000 0.63974  0.60462  0.33250  Biso   1.000  C
  H9       1.0000 0.62490  0.58830  0.37370  Biso   1.000  H
  C25      1.0000 0.69879  0.54650  0.33020  Biso   1.000  C
  C26      1.0000 0.70015  0.61171  0.23870  Biso   1.000  C
  H10      1.0000 0.72630  0.59990  0.21480  Biso   1.000  H
  C27      1.0000 0.58109  0.66311  0.34390  Biso   1.000  C
  C28      1.0000 0.75161  0.71767  0.25680  Biso   1.000  C
  H11      1.0000 0.73910  0.70370  0.30330  Biso   1.000  H
  C29      1.0000 0.66454  0.63661  0.04080  Biso   1.000  C
  H12      1.0000 0.64660  0.61860  0.07500  Biso   1.000  H
  O12      1.0000 0.47460  0.78850  0.43200  Biso   1.000  O
  O13      1.0000 0.53633  0.79651  0.29700  Biso   1.000  O
  O14      1.0000 0.58045  0.79856  0.40190  Biso   1.000  O
  C30      1.0000 0.56439  0.87904  0.24190  Biso   1.000  C
  H13      1.0000 0.53760  0.86730  0.22050  Biso   1.000  H
  C31      1.0000 0.58671  0.85678  0.30470  Biso   1.000  C
  C32      1.0000 0.56737  0.81533  0.33720  Biso   1.000  C
  H14      1.0000 0.55300  0.74280  0.52700  Biso   1.000  H
  In3      1.0000 0.74281  0.47637  0.38406  Biso   1.000  In
  O15      1.0000 0.53056  0.31324  0.39779  Biso   1.000  O
  O16      1.0000 0.52782  0.27085  0.29050  Biso   1.000  O
  O17      1.0000 0.70303  0.42909  0.32285  Biso   1.000  O
  O18      1.0000 0.63982  0.44016  0.39265  Biso   1.000  O
  C33      1.0000 0.64467  0.37763  0.30560  Biso   1.000  C
  C34      1.0000 0.65240  0.31646  0.21240  Biso   1.000  C
  C35      1.0000 0.66826  0.35499  0.24600  Biso   1.000  C
  H15      1.0000 0.69590  0.36650  0.22810  Biso   1.000  H
  C36      1.0000 0.70902  0.25975  0.17360  Biso   1.000  C
  C37      1.0000 0.66907  0.30302  0.06710  Biso   1.000  C
  C38      1.0000 0.67773  0.29205  0.14690  Biso   1.000  C
  C39      1.0000 0.58849  0.32133  0.29940  Biso   1.000  C
  C40      1.0000 0.60462  0.36026  0.33250  Biso   1.000  C
  H16      1.0000 0.58830  0.37510  0.37370  Biso   1.000  H
  C41      1.0000 0.54650  0.30121  0.33020  Biso   1.000  C
  C42      1.0000 0.61171  0.29985  0.23870  Biso   1.000  C
  H17      1.0000 0.59990  0.27370  0.21480  Biso   1.000  H
  C43      1.0000 0.66311  0.41891  0.34390  Biso   1.000  C
  C44      1.0000 0.71767  0.24839  0.25680  Biso   1.000  C
  H18      1.0000 0.70370  0.26090  0.30330  Biso   1.000  H
  C45      1.0000 0.63661  0.33546  0.04080  Biso   1.000  C
  H19      1.0000 0.61860  0.35340  0.07500  Biso   1.000  H
  O19      1.0000 0.78850  0.52540  0.43200  Biso   1.000  O
  O20      1.0000 0.79651  0.46367  0.29700  Biso   1.000  O
  O21      1.0000 0.79856  0.41955  0.40190  Biso   1.000  O
  C46      1.0000 0.87904  0.43561  0.24190  Biso   1.000  C
  H20      1.0000 0.86730  0.46240  0.22050  Biso   1.000  H
  C47      1.0000 0.85678  0.41329  0.30470  Biso   1.000  C
  C48      1.0000 0.81533  0.43263  0.33720  Biso   1.000  C
  H21      1.0000 0.74280  0.44700  0.52700  Biso   1.000  H
  In4      1.0000 0.25719  0.52363  0.38406  Biso   1.000  In
  O22      1.0000 0.46944  0.68676  0.39779  Biso   1.000  O
  O23      1.0000 0.47218  0.72915  0.29050  Biso   1.000  O
  O24      1.0000 0.29697  0.57091  0.32285  Biso   1.000  O
  O25      1.0000 0.36018  0.55984  0.39265  Biso   1.000  O
  C49      1.0000 0.35533  0.62237  0.30560  Biso   1.000  C
  C50      1.0000 0.34760  0.68354  0.21240  Biso   1.000  C
  C51      1.0000 0.33174  0.64501  0.24600  Biso   1.000  C
  H22      1.0000 0.30410  0.63350  0.22810  Biso   1.000  H
  C52      1.0000 0.29098  0.74025  0.17360  Biso   1.000  C
  C53      1.0000 0.33093  0.69698  0.06710  Biso   1.000  C
  C54      1.0000 0.32227  0.70795  0.14690  Biso   1.000  C
  C55      1.0000 0.41151  0.67867  0.29940  Biso   1.000  C
  C56      1.0000 0.39538  0.63974  0.33250  Biso   1.000  C
  H23      1.0000 0.41170  0.62490  0.37370  Biso   1.000  H
  C57      1.0000 0.45350  0.69879  0.33020  Biso   1.000  C
  C58      1.0000 0.38829  0.70015  0.23870  Biso   1.000  C
  H24      1.0000 0.40010  0.72630  0.21480  Biso   1.000  H
  C59      1.0000 0.33689  0.58109  0.34390  Biso   1.000  C
  C60      1.0000 0.28233  0.75161  0.25680  Biso   1.000  C
  H25      1.0000 0.29630  0.73910  0.30330  Biso   1.000  H
  C61      1.0000 0.36339  0.66454  0.04080  Biso   1.000  C
  H26      1.0000 0.38140  0.64660  0.07500  Biso   1.000  H
  O26      1.0000 0.21150  0.47460  0.43200  Biso   1.000  O
  O27      1.0000 0.20349  0.53633  0.29700  Biso   1.000  O
  O28      1.0000 0.20144  0.58045  0.40190  Biso   1.000  O
  C62      1.0000 0.12096  0.56439  0.24190  Biso   1.000  C
  H27      1.0000 0.13270  0.53760  0.22050  Biso   1.000  H
  C63      1.0000 0.14322  0.58671  0.30470  Biso   1.000  C
  C64      1.0000 0.18467  0.56737  0.33720  Biso   1.000  C
  H28      1.0000 0.25720  0.55300  0.52700  Biso   1.000  H
  In5      1.0000 0.02363  0.75719  0.61594  Biso   1.000  In
  O29      1.0000 0.18676  0.96944  0.60221  Biso   1.000  O
  O30      1.0000 0.22915  0.97218  0.70950  Biso   1.000  O
  O31      1.0000 0.07091  0.79697  0.67715  Biso   1.000  O
  O32      1.0000 0.05984  0.86018  0.60735  Biso   1.000  O
  C65      1.0000 0.12237  0.85533  0.69440  Biso   1.000  C
  C66      1.0000 0.18354  0.84760  0.78760  Biso   1.000  C
  C67      1.0000 0.14501  0.83174  0.75400  Biso   1.000  C
  H29      1.0000 0.13350  0.80410  0.77190  Biso   1.000  H
  C68      1.0000 0.24025  0.79098  0.82640  Biso   1.000  C
  C69      1.0000 0.19698  0.83093  0.93290  Biso   1.000  C
  C70      1.0000 0.20795  0.82227  0.85310  Biso   1.000  C
  C71      1.0000 0.17867  0.91151  0.70060  Biso   1.000  C
  C72      1.0000 0.13974  0.89538  0.66750  Biso   1.000  C
  H30      1.0000 0.12490  0.91170  0.62630  Biso   1.000  H
  C73      1.0000 0.19879  0.95350  0.66980  Biso   1.000  C
  C74      1.0000 0.20015  0.88829  0.76130  Biso   1.000  C
  H31      1.0000 0.22630  0.90010  0.78520  Biso   1.000  H
  C75      1.0000 0.08109  0.83689  0.65610  Biso   1.000  C
  C76      1.0000 0.25161  0.78233  0.74320  Biso   1.000  C
  H32      1.0000 0.23910  0.79630  0.69670  Biso   1.000  H
  C77      1.0000 0.16454  0.86339  0.95920  Biso   1.000  C
  H33      1.0000 0.14660  0.88140  0.92500  Biso   1.000  H
  O33      1.0000 0.97460  0.71150  0.56800  Biso   1.000  O
  O34      1.0000 0.03633  0.70349  0.70300  Biso   1.000  O
  O35      1.0000 0.08045  0.70144  0.59810  Biso   1.000  O
  C78      1.0000 0.06439  0.62096  0.75810  Biso   1.000  C
  H34      1.0000 0.03760  0.63270  0.77950  Biso   1.000  H
  C79      1.0000 0.08671  0.64322  0.69530  Biso   1.000  C
  C80      1.0000 0.06737  0.68467  0.66280  Biso   1.000  C
  H35      1.0000 0.05300  0.75720  0.47300  Biso   1.000  H
  In6      1.0000 0.97637  0.24281  0.61594  Biso   1.000  In
  O36      1.0000 0.81324  0.03056  0.60221  Biso   1.000  O
  O37      1.0000 0.77085  0.02782  0.70950  Biso   1.000  O
  O38      1.0000 0.92909  0.20303  0.67715  Biso   1.000  O
  O39      1.0000 0.94016  0.13982  0.60735  Biso   1.000  O
  C81      1.0000 0.87763  0.14467  0.69440  Biso   1.000  C
  C82      1.0000 0.81646  0.15240  0.78760  Biso   1.000  C
  C83      1.0000 0.85499  0.16826  0.75400  Biso   1.000  C
  H36      1.0000 0.86650  0.19590  0.77190  Biso   1.000  H
  C84      1.0000 0.75975  0.20902  0.82640  Biso   1.000  C
  C85      1.0000 0.80302  0.16907  0.93290  Biso   1.000  C
  C86      1.0000 0.79205  0.17773  0.85310  Biso   1.000  C
  C87      1.0000 0.82133  0.08849  0.70060  Biso   1.000  C
  C88      1.0000 0.86026  0.10462  0.66750  Biso   1.000  C
  H37      1.0000 0.87510  0.08830  0.62630  Biso   1.000  H
  C89      1.0000 0.80121  0.04650  0.66980  Biso   1.000  C
  C90      1.0000 0.79985  0.11171  0.76130  Biso   1.000  C
  H38      1.0000 0.77370  0.09990  0.78520  Biso   1.000  H
  C91      1.0000 0.91891  0.16311  0.65610  Biso   1.000  C
  C92      1.0000 0.74839  0.21767  0.74320  Biso   1.000  C
  H39      1.0000 0.76090  0.20370  0.69670  Biso   1.000  H
  C93      1.0000 0.83546  0.13661  0.95920  Biso   1.000  C
  H40      1.0000 0.85340  0.11860  0.92500  Biso   1.000  H
  O40      1.0000 0.02540  0.28850  0.56800  Biso   1.000  O
  O41      1.0000 0.96367  0.29651  0.70300  Biso   1.000  O
  O42      1.0000 0.91955  0.29856  0.59810  Biso   1.000  O
  C94      1.0000 0.93561  0.37904  0.75810  Biso   1.000  C
  H41      1.0000 0.96240  0.36730  0.77950  Biso   1.000  H
  C95      1.0000 0.91329  0.35678  0.69530  Biso   1.000  C
  C96      1.0000 0.93263  0.31533  0.66280  Biso   1.000  C
  H42      1.0000 0.94700  0.24280  0.47300  Biso   1.000  H
  In7      1.0000 0.75719  0.97637  0.61594  Biso   1.000  In
  O43      1.0000 0.96944  0.81324  0.60221  Biso   1.000  O
  O44      1.0000 0.97218  0.77085  0.70950  Biso   1.000  O
  O45      1.0000 0.79697  0.92909  0.67715  Biso   1.000  O
  O46      1.0000 0.86018  0.94016  0.60735  Biso   1.000  O
  C97      1.0000 0.85533  0.87763  0.69440  Biso   1.000  C
  C98      1.0000 0.84760  0.81646  0.78760  Biso   1.000  C
  C99      1.0000 0.83174  0.85499  0.75400  Biso   1.000  C
  H43      1.0000 0.80410  0.86650  0.77190  Biso   1.000  H
  C100     1.0000 0.79098  0.75975  0.82640  Biso   1.000  C
  C101     1.0000 0.83093  0.80302  0.93290  Biso   1.000  C
  C102     1.0000 0.82227  0.79205  0.85310  Biso   1.000  C
  C103     1.0000 0.91151  0.82133  0.70060  Biso   1.000  C
  C104     1.0000 0.89538  0.86026  0.66750  Biso   1.000  C
  H44      1.0000 0.91170  0.87510  0.62630  Biso   1.000  H
  C105     1.0000 0.95350  0.80121  0.66980  Biso   1.000  C
  C106     1.0000 0.88829  0.79985  0.76130  Biso   1.000  C
  H45      1.0000 0.90010  0.77370  0.78520  Biso   1.000  H
  C107     1.0000 0.83689  0.91891  0.65610  Biso   1.000  C
  C108     1.0000 0.78233  0.74839  0.74320  Biso   1.000  C
  H46      1.0000 0.79630  0.76090  0.69670  Biso   1.000  H
  C109     1.0000 0.86339  0.83546  0.95920  Biso   1.000  C
  H47      1.0000 0.88140  0.85340  0.92500  Biso   1.000  H
  O47      1.0000 0.71150  0.02540  0.56800  Biso   1.000  O
  O48      1.0000 0.70349  0.96367  0.70300  Biso   1.000  O
  O49      1.0000 0.70144  0.91955  0.59810  Biso   1.000  O
  C110     1.0000 0.62096  0.93561  0.75810  Biso   1.000  C
  H48      1.0000 0.63270  0.96240  0.77950  Biso   1.000  H
  C111     1.0000 0.64322  0.91329  0.69530  Biso   1.000  C
  C112     1.0000 0.68467  0.93263  0.66280  Biso   1.000  C
  H49      1.0000 0.75720  0.94700  0.47300  Biso   1.000  H
  In8      1.0000 0.24281  0.02363  0.61594  Biso   1.000  In
  O50      1.0000 0.03056  0.18676  0.60221  Biso   1.000  O
  O51      1.0000 0.02782  0.22915  0.70950  Biso   1.000  O
  O52      1.0000 0.20303  0.07091  0.67715  Biso   1.000  O
  O53      1.0000 0.13982  0.05984  0.60735  Biso   1.000  O
  C113     1.0000 0.14467  0.12237  0.69440  Biso   1.000  C
  C114     1.0000 0.15240  0.18354  0.78760  Biso   1.000  C
  C115     1.0000 0.16826  0.14501  0.75400  Biso   1.000  C
  H50      1.0000 0.19590  0.13350  0.77190  Biso   1.000  H
  C116     1.0000 0.20902  0.24025  0.82640  Biso   1.000  C
  C117     1.0000 0.16907  0.19698  0.93290  Biso   1.000  C
  C118     1.0000 0.17773  0.20795  0.85310  Biso   1.000  C
  C119     1.0000 0.08849  0.17867  0.70060  Biso   1.000  C
  C120     1.0000 0.10462  0.13974  0.66750  Biso   1.000  C
  H51      1.0000 0.08830  0.12490  0.62630  Biso   1.000  H
  C121     1.0000 0.04650  0.19879  0.66980  Biso   1.000  C
  C122     1.0000 0.11171  0.20015  0.76130  Biso   1.000  C
  H52      1.0000 0.09990  0.22630  0.78520  Biso   1.000  H
  C123     1.0000 0.16311  0.08109  0.65610  Biso   1.000  C
  C124     1.0000 0.21767  0.25161  0.74320  Biso   1.000  C
  H53      1.0000 0.20370  0.23910  0.69670  Biso   1.000  H
  C125     1.0000 0.13661  0.16454  0.95920  Biso   1.000  C
  H54      1.0000 0.11860  0.14660  0.92500  Biso   1.000  H
  O54      1.0000 0.28850  0.97460  0.56800  Biso   1.000  O
  O55      1.0000 0.29651  0.03633  0.70300  Biso   1.000  O
  O56      1.0000 0.29856  0.08045  0.59810  Biso   1.000  O
  C126     1.0000 0.37904  0.06439  0.75810  Biso   1.000  C
  H55      1.0000 0.36730  0.03760  0.77950  Biso   1.000  H
  C127     1.0000 0.35678  0.08671  0.69530  Biso   1.000  C
  C128     1.0000 0.31533  0.06737  0.66280  Biso   1.000  C
  H56      1.0000 0.24280  0.05300  0.47300  Biso   1.000  H
  In9      1.0000 0.52363  0.74281  0.61594  Biso   1.000  In
  O57      1.0000 0.68676  0.53056  0.60221  Biso   1.000  O
  O58      1.0000 0.72915  0.52782  0.70950  Biso   1.000  O
  O59      1.0000 0.57091  0.70303  0.67715  Biso   1.000  O
  O60      1.0000 0.55984  0.63982  0.60735  Biso   1.000  O
  C129     1.0000 0.62237  0.64467  0.69440  Biso   1.000  C
  C130     1.0000 0.68354  0.65240  0.78760  Biso   1.000  C
  C131     1.0000 0.64501  0.66826  0.75400  Biso   1.000  C
  H57      1.0000 0.63350  0.69590  0.77190  Biso   1.000  H
  C132     1.0000 0.74025  0.70902  0.82640  Biso   1.000  C
  C133     1.0000 0.69698  0.66907  0.93290  Biso   1.000  C
  C134     1.0000 0.70795  0.67773  0.85310  Biso   1.000  C
  C135     1.0000 0.67867  0.58849  0.70060  Biso   1.000  C
  C136     1.0000 0.63974  0.60462  0.66750  Biso   1.000  C
  H58      1.0000 0.62490  0.58830  0.62630  Biso   1.000  H
  C137     1.0000 0.69879  0.54650  0.66980  Biso   1.000  C
  C138     1.0000 0.70015  0.61171  0.76130  Biso   1.000  C
  H59      1.0000 0.72630  0.59990  0.78520  Biso   1.000  H
  C139     1.0000 0.58109  0.66311  0.65610  Biso   1.000  C
  C140     1.0000 0.75161  0.71767  0.74320  Biso   1.000  C
  H60      1.0000 0.73910  0.70370  0.69670  Biso   1.000  H
  C141     1.0000 0.66454  0.63661  0.95920  Biso   1.000  C
  H61      1.0000 0.64660  0.61860  0.92500  Biso   1.000  H
  O61      1.0000 0.47460  0.78850  0.56800  Biso   1.000  O
  O62      1.0000 0.53633  0.79651  0.70300  Biso   1.000  O
  O63      1.0000 0.58045  0.79856  0.59810  Biso   1.000  O
  C142     1.0000 0.56439  0.87904  0.75810  Biso   1.000  C
  H62      1.0000 0.53760  0.86730  0.77950  Biso   1.000  H
  C143     1.0000 0.58671  0.85678  0.69530  Biso   1.000  C
  C144     1.0000 0.56737  0.81533  0.66280  Biso   1.000  C
  H63      1.0000 0.55300  0.74280  0.47300  Biso   1.000  H
  In10     1.0000 0.47637  0.25719  0.61594  Biso   1.000  In
  O64      1.0000 0.31324  0.46944  0.60221  Biso   1.000  O
  O65      1.0000 0.27085  0.47218  0.70950  Biso   1.000  O
  O66      1.0000 0.42909  0.29697  0.67715  Biso   1.000  O
  O67      1.0000 0.44016  0.36018  0.60735  Biso   1.000  O
  C145     1.0000 0.37763  0.35533  0.69440  Biso   1.000  C
  C146     1.0000 0.31646  0.34760  0.78760  Biso   1.000  C
  C147     1.0000 0.35499  0.33174  0.75400  Biso   1.000  C
  H64      1.0000 0.36650  0.30410  0.77190  Biso   1.000  H
  C148     1.0000 0.25975  0.29098  0.82640  Biso   1.000  C
  C149     1.0000 0.30302  0.33093  0.93290  Biso   1.000  C
  C150     1.0000 0.29205  0.32227  0.85310  Biso   1.000  C
  C151     1.0000 0.32133  0.41151  0.70060  Biso   1.000  C
  C152     1.0000 0.36026  0.39538  0.66750  Biso   1.000  C
  H65      1.0000 0.37510  0.41170  0.62630  Biso   1.000  H
  C153     1.0000 0.30121  0.45350  0.66980  Biso   1.000  C
  C154     1.0000 0.29985  0.38829  0.76130  Biso   1.000  C
  H66      1.0000 0.27370  0.40010  0.78520  Biso   1.000  H
  C155     1.0000 0.41891  0.33689  0.65610  Biso   1.000  C
  C156     1.0000 0.24839  0.28233  0.74320  Biso   1.000  C
  H67      1.0000 0.26090  0.29630  0.69670  Biso   1.000  H
  C157     1.0000 0.33546  0.36339  0.95920  Biso   1.000  C
  H68      1.0000 0.35340  0.38140  0.92500  Biso   1.000  H
  O68      1.0000 0.52540  0.21150  0.56800  Biso   1.000  O
  O69      1.0000 0.46367  0.20349  0.70300  Biso   1.000  O
  O70      1.0000 0.41955  0.20144  0.59810  Biso   1.000  O
  C158     1.0000 0.43561  0.12096  0.75810  Biso   1.000  C
  H69      1.0000 0.46240  0.13270  0.77950  Biso   1.000  H
  C159     1.0000 0.41329  0.14322  0.69530  Biso   1.000  C
  C160     1.0000 0.43263  0.18467  0.66280  Biso   1.000  C
  H70      1.0000 0.44700  0.25720  0.47300  Biso   1.000  H
  In11     1.0000 0.25719  0.52363  0.61594  Biso   1.000  In
  O71      1.0000 0.46944  0.68676  0.60221  Biso   1.000  O
  O72      1.0000 0.47218  0.72915  0.70950  Biso   1.000  O
  O73      1.0000 0.29697  0.57091  0.67715  Biso   1.000  O
  O74      1.0000 0.36018  0.55984  0.60735  Biso   1.000  O
  C161     1.0000 0.35533  0.62237  0.69440  Biso   1.000  C
  C162     1.0000 0.34760  0.68354  0.78760  Biso   1.000  C
  C163     1.0000 0.33174  0.64501  0.75400  Biso   1.000  C
  H71      1.0000 0.30410  0.63350  0.77190  Biso   1.000  H
  C164     1.0000 0.29098  0.74025  0.82640  Biso   1.000  C
  C165     1.0000 0.33093  0.69698  0.93290  Biso   1.000  C
  C166     1.0000 0.32227  0.70795  0.85310  Biso   1.000  C
  C167     1.0000 0.41151  0.67867  0.70060  Biso   1.000  C
  C168     1.0000 0.39538  0.63974  0.66750  Biso   1.000  C
  H72      1.0000 0.41170  0.62490  0.62630  Biso   1.000  H
  C169     1.0000 0.45350  0.69879  0.66980  Biso   1.000  C
  C170     1.0000 0.38829  0.70015  0.76130  Biso   1.000  C
  H73      1.0000 0.40010  0.72630  0.78520  Biso   1.000  H
  C171     1.0000 0.33689  0.58109  0.65610  Biso   1.000  C
  C172     1.0000 0.28233  0.75161  0.74320  Biso   1.000  C
  H74      1.0000 0.29630  0.73910  0.69670  Biso   1.000  H
  C173     1.0000 0.36339  0.66454  0.95920  Biso   1.000  C
  H75      1.0000 0.38140  0.64660  0.92500  Biso   1.000  H
  O75      1.0000 0.21150  0.47460  0.56800  Biso   1.000  O
  O76      1.0000 0.20349  0.53633  0.70300  Biso   1.000  O
  O77      1.0000 0.20144  0.58045  0.59810  Biso   1.000  O
  C174     1.0000 0.12096  0.56439  0.75810  Biso   1.000  C
  H76      1.0000 0.13270  0.53760  0.77950  Biso   1.000  H
  C175     1.0000 0.14322  0.58671  0.69530  Biso   1.000  C
  C176     1.0000 0.18467  0.56737  0.66280  Biso   1.000  C
  H77      1.0000 0.25720  0.55300  0.47300  Biso   1.000  H
  In12     1.0000 0.74281  0.47637  0.61594  Biso   1.000  In
  O78      1.0000 0.53056  0.31324  0.60221  Biso   1.000  O
  O79      1.0000 0.52782  0.27085  0.70950  Biso   1.000  O
  O80      1.0000 0.70303  0.42909  0.67715  Biso   1.000  O
  O81      1.0000 0.63982  0.44016  0.60735  Biso   1.000  O
  C177     1.0000 0.64467  0.37763  0.69440  Biso   1.000  C
  C178     1.0000 0.65240  0.31646  0.78760  Biso   1.000  C
  C179     1.0000 0.66826  0.35499  0.75400  Biso   1.000  C
  H78      1.0000 0.69590  0.36650  0.77190  Biso   1.000  H
  C180     1.0000 0.70902  0.25975  0.82640  Biso   1.000  C
  C181     1.0000 0.66907  0.30302  0.93290  Biso   1.000  C
  C182     1.0000 0.67773  0.29205  0.85310  Biso   1.000  C
  C183     1.0000 0.58849  0.32133  0.70060  Biso   1.000  C
  C184     1.0000 0.60462  0.36026  0.66750  Biso   1.000  C
  H79      1.0000 0.58830  0.37510  0.62630  Biso   1.000  H
  C185     1.0000 0.54650  0.30121  0.66980  Biso   1.000  C
  C186     1.0000 0.61171  0.29985  0.76130  Biso   1.000  C
  H80      1.0000 0.59990  0.27370  0.78520  Biso   1.000  H
  C187     1.0000 0.66311  0.41891  0.65610  Biso   1.000  C
  C188     1.0000 0.71767  0.24839  0.74320  Biso   1.000  C
  H81      1.0000 0.70370  0.26090  0.69670  Biso   1.000  H
  C189     1.0000 0.63661  0.33546  0.95920  Biso   1.000  C
  H82      1.0000 0.61860  0.35340  0.92500  Biso   1.000  H
  O82      1.0000 0.78850  0.52540  0.56800  Biso   1.000  O
  O83      1.0000 0.79651  0.46367  0.70300  Biso   1.000  O
  O84      1.0000 0.79856  0.41955  0.59810  Biso   1.000  O
  C190     1.0000 0.87904  0.43561  0.75810  Biso   1.000  C
  H83      1.0000 0.86730  0.46240  0.77950  Biso   1.000  H
  C191     1.0000 0.85678  0.41329  0.69530  Biso   1.000  C
  C192     1.0000 0.81533  0.43263  0.66280  Biso   1.000  C
  H84      1.0000 0.74280  0.44700  0.47300  Biso   1.000  H
  In13     1.0000 0.97637  0.24281  0.38406  Biso   1.000  In
  O85      1.0000 0.81324  0.03056  0.39779  Biso   1.000  O
  O86      1.0000 0.77085  0.02782  0.29050  Biso   1.000  O
  O87      1.0000 0.92909  0.20303  0.32285  Biso   1.000  O
  O88      1.0000 0.94016  0.13982  0.39265  Biso   1.000  O
  C193     1.0000 0.87763  0.14467  0.30560  Biso   1.000  C
  C194     1.0000 0.81646  0.15240  0.21240  Biso   1.000  C
  C195     1.0000 0.85499  0.16826  0.24600  Biso   1.000  C
  H85      1.0000 0.86650  0.19590  0.22810  Biso   1.000  H
  C196     1.0000 0.75975  0.20902  0.17360  Biso   1.000  C
  C197     1.0000 0.80302  0.16907  0.06710  Biso   1.000  C
  C198     1.0000 0.79205  0.17773  0.14690  Biso   1.000  C
  C199     1.0000 0.82133  0.08849  0.29940  Biso   1.000  C
  C200     1.0000 0.86026  0.10462  0.33250  Biso   1.000  C
  H86      1.0000 0.87510  0.08830  0.37370  Biso   1.000  H
  C201     1.0000 0.80121  0.04650  0.33020  Biso   1.000  C
  C202     1.0000 0.79985  0.11171  0.23870  Biso   1.000  C
  H87      1.0000 0.77370  0.09990  0.21480  Biso   1.000  H
  C203     1.0000 0.91891  0.16311  0.34390  Biso   1.000  C
  C204     1.0000 0.74839  0.21767  0.25680  Biso   1.000  C
  H88      1.0000 0.76090  0.20370  0.30330  Biso   1.000  H
  C205     1.0000 0.83546  0.13661  0.04080  Biso   1.000  C
  H89      1.0000 0.85340  0.11860  0.07500  Biso   1.000  H
  O89      1.0000 0.02540  0.28850  0.43200  Biso   1.000  O
  O90      1.0000 0.96367  0.29651  0.29700  Biso   1.000  O
  O91      1.0000 0.91955  0.29856  0.40190  Biso   1.000  O
  C206     1.0000 0.93561  0.37904  0.24190  Biso   1.000  C
  H90      1.0000 0.96240  0.36730  0.22050  Biso   1.000  H
  C207     1.0000 0.91329  0.35678  0.30470  Biso   1.000  C
  C208     1.0000 0.93263  0.31533  0.33720  Biso   1.000  C
  H91      1.0000 0.94700  0.24280  0.52700  Biso   1.000  H
  In14     1.0000 0.02363  0.75719  0.38406  Biso   1.000  In
  O92      1.0000 0.18676  0.96944  0.39779  Biso   1.000  O
  O93      1.0000 0.22915  0.97218  0.29050  Biso   1.000  O
  O94      1.0000 0.07091  0.79697  0.32285  Biso   1.000  O
  O95      1.0000 0.05984  0.86018  0.39265  Biso   1.000  O
  C209     1.0000 0.12237  0.85533  0.30560  Biso   1.000  C
  C210     1.0000 0.18354  0.84760  0.21240  Biso   1.000  C
  C211     1.0000 0.14501  0.83174  0.24600  Biso   1.000  C
  H92      1.0000 0.13350  0.80410  0.22810  Biso   1.000  H
  C212     1.0000 0.24025  0.79098  0.17360  Biso   1.000  C
  C213     1.0000 0.19698  0.83093  0.06710  Biso   1.000  C
  C214     1.0000 0.20795  0.82227  0.14690  Biso   1.000  C
  C215     1.0000 0.17867  0.91151  0.29940  Biso   1.000  C
  C216     1.0000 0.13974  0.89538  0.33250  Biso   1.000  C
  H93      1.0000 0.12490  0.91170  0.37370  Biso   1.000  H
  C217     1.0000 0.19879  0.95350  0.33020  Biso   1.000  C
  C218     1.0000 0.20015  0.88829  0.23870  Biso   1.000  C
  H94      1.0000 0.22630  0.90010  0.21480  Biso   1.000  H
  C219     1.0000 0.08109  0.83689  0.34390  Biso   1.000  C
  C220     1.0000 0.25161  0.78233  0.25680  Biso   1.000  C
  H95      1.0000 0.23910  0.79630  0.30330  Biso   1.000  H
  C221     1.0000 0.16454  0.86339  0.04080  Biso   1.000  C
  H96      1.0000 0.14660  0.88140  0.07500  Biso   1.000  H
  O96      1.0000 0.97460  0.71150  0.43200  Biso   1.000  O
  O97      1.0000 0.03633  0.70349  0.29700  Biso   1.000  O
  O98      1.0000 0.08045  0.70144  0.40190  Biso   1.000  O
  C222     1.0000 0.06439  0.62096  0.24190  Biso   1.000  C
  H97      1.0000 0.03760  0.63270  0.22050  Biso   1.000  H
  C223     1.0000 0.08671  0.64322  0.30470  Biso   1.000  C
  C224     1.0000 0.06737  0.68467  0.33720  Biso   1.000  C
  H98      1.0000 0.05300  0.75720  0.52700  Biso   1.000  H
  In15     1.0000 0.24281  0.02363  0.38406  Biso   1.000  In
  O99      1.0000 0.03056  0.18676  0.39779  Biso   1.000  O
  O100     1.0000 0.02782  0.22915  0.29050  Biso   1.000  O
  O101     1.0000 0.20303  0.07091  0.32285  Biso   1.000  O
  O102     1.0000 0.13982  0.05984  0.39265  Biso   1.000  O
  C225     1.0000 0.14467  0.12237  0.30560  Biso   1.000  C
  C226     1.0000 0.15240  0.18354  0.21240  Biso   1.000  C
  C227     1.0000 0.16826  0.14501  0.24600  Biso   1.000  C
  H99      1.0000 0.19590  0.13350  0.22810  Biso   1.000  H
  C228     1.0000 0.20902  0.24025  0.17360  Biso   1.000  C
  C229     1.0000 0.16907  0.19698  0.06710  Biso   1.000  C
  C230     1.0000 0.17773  0.20795  0.14690  Biso   1.000  C
  C231     1.0000 0.08849  0.17867  0.29940  Biso   1.000  C
  C232     1.0000 0.10462  0.13974  0.33250  Biso   1.000  C
  H100     1.0000 0.08830  0.12490  0.37370  Biso   1.000  H
  C233     1.0000 0.04650  0.19879  0.33020  Biso   1.000  C
  C234     1.0000 0.11171  0.20015  0.23870  Biso   1.000  C
  H101     1.0000 0.09990  0.22630  0.21480  Biso   1.000  H
  C235     1.0000 0.16311  0.08109  0.34390  Biso   1.000  C
  C236     1.0000 0.21767  0.25161  0.25680  Biso   1.000  C
  H102     1.0000 0.20370  0.23910  0.30330  Biso   1.000  H
  C237     1.0000 0.13661  0.16454  0.04080  Biso   1.000  C
  H103     1.0000 0.11860  0.14660  0.07500  Biso   1.000  H
  O103     1.0000 0.28850  0.97460  0.43200  Biso   1.000  O
  O104     1.0000 0.29651  0.03633  0.29700  Biso   1.000  O
  O105     1.0000 0.29856  0.08045  0.40190  Biso   1.000  O
  C238     1.0000 0.37904  0.06439  0.24190  Biso   1.000  C
  H104     1.0000 0.36730  0.03760  0.22050  Biso   1.000  H
  C239     1.0000 0.35678  0.08671  0.30470  Biso   1.000  C
  C240     1.0000 0.31533  0.06737  0.33720  Biso   1.000  C
  H105     1.0000 0.24280  0.05300  0.52700  Biso   1.000  H
  In16     1.0000 0.75719  0.97637  0.38406  Biso   1.000  In
  O106     1.0000 0.96944  0.81324  0.39779  Biso   1.000  O
  O107     1.0000 0.97218  0.77085  0.29050  Biso   1.000  O
  O108     1.0000 0.79697  0.92909  0.32285  Biso   1.000  O
  O109     1.0000 0.86018  0.94016  0.39265  Biso   1.000  O
  C241     1.0000 0.85533  0.87763  0.30560  Biso   1.000  C
  C242     1.0000 0.84760  0.81646  0.21240  Biso   1.000  C
  C243     1.0000 0.83174  0.85499  0.24600  Biso   1.000  C
  H106     1.0000 0.80410  0.86650  0.22810  Biso   1.000  H
  C244     1.0000 0.79098  0.75975  0.17360  Biso   1.000  C
  C245     1.0000 0.83093  0.80302  0.06710  Biso   1.000  C
  C246     1.0000 0.82227  0.79205  0.14690  Biso   1.000  C
  C247     1.0000 0.91151  0.82133  0.29940  Biso   1.000  C
  C248     1.0000 0.89538  0.86026  0.33250  Biso   1.000  C
  H107     1.0000 0.91170  0.87510  0.37370  Biso   1.000  H
  C249     1.0000 0.95350  0.80121  0.33020  Biso   1.000  C
  C250     1.0000 0.88829  0.79985  0.23870  Biso   1.000  C
  H108     1.0000 0.90010  0.77370  0.21480  Biso   1.000  H
  C251     1.0000 0.83689  0.91891  0.34390  Biso   1.000  C
  C252     1.0000 0.78233  0.74839  0.25680  Biso   1.000  C
  H109     1.0000 0.79630  0.76090  0.30330  Biso   1.000  H
  C253     1.0000 0.86339  0.83546  0.04080  Biso   1.000  C
  H110     1.0000 0.88140  0.85340  0.07500  Biso   1.000  H
  O110     1.0000 0.71150  0.02540  0.43200  Biso   1.000  O
  O111     1.0000 0.70349  0.96367  0.29700  Biso   1.000  O
  O112     1.0000 0.70144  0.91955  0.40190  Biso   1.000  O
  C254     1.0000 0.62096  0.93561  0.24190  Biso   1.000  C
  H111     1.0000 0.63270  0.96240  0.22050  Biso   1.000  H
  C255     1.0000 0.64322  0.91329  0.30470  Biso   1.000  C
  C256     1.0000 0.68467  0.93263  0.33720  Biso   1.000  C
  H112     1.0000 0.75720  0.94700  0.52700  Biso   1.000  H
  Zn1      1.0000 0.22694  0.27306  0.00000  Biso   1.000  Zn
  N1       1.0000 0.45172  0.04828  0.00000  Biso   1.000  N
  Zn2      1.0000 0.24453  0.25547  0.00000  Biso   1.000  Zn
  Zn3      1.0000 0.77306  0.72694  0.00000  Biso   1.000  Zn
  N2       1.0000 0.54828  0.95172  0.00000  Biso   1.000  N
  Zn4      1.0000 0.75547  0.74453  0.00000  Biso   1.000  Zn
  Zn5      1.0000 0.72694  0.22694  0.00000  Biso   1.000  Zn
  N3       1.0000 0.95172  0.45172  0.00000  Biso   1.000  N
  Zn6      1.0000 0.74453  0.24453  0.00000  Biso   1.000  Zn
  Zn7      1.0000 0.27306  0.77306  0.00000  Biso   1.000  Zn
  N4       1.0000 0.04828  0.54828  0.00000  Biso   1.000  N
  Zn8      1.0000 0.25547  0.75547  0.00000  Biso   1.000  Zn
  N5       1.0000 0.23476  0.26524  0.12270  Biso   1.000  N
  C257     1.0000 0.41826  0.08174  0.21120  Biso   1.000  C
  C258     1.0000 0.43278  0.06722  0.06610  Biso   1.000  C
  C259     1.0000 0.47429  0.02571  0.17400  Biso   1.000  C
  C260     1.0000 0.44300  0.05700  0.14660  Biso   1.000  C
  C261     1.0000 0.40087  0.09913  0.04170  Biso   1.000  C
  H113     1.0000 0.38300  0.11700  0.07620  Biso   1.000  H
  C262     1.0000 0.48415  0.01585  0.25580  Biso   1.000  C
  H114     1.0000 0.47090  0.02910  0.30220  Biso   1.000  H
  C263     1.0000 0.37519  0.12481  0.33670  Biso   1.000  C
  H115     1.0000 0.36130  0.13870  0.38180  Biso   1.000  H
  N6       1.0000 0.76524  0.73476  0.12270  Biso   1.000  N
  C264     1.0000 0.58174  0.91826  0.21120  Biso   1.000  C
  C265     1.0000 0.56722  0.93278  0.06610  Biso   1.000  C
  C266     1.0000 0.52571  0.97429  0.17400  Biso   1.000  C
  C267     1.0000 0.55700  0.94300  0.14660  Biso   1.000  C
  C268     1.0000 0.59913  0.90087  0.04170  Biso   1.000  C
  H116     1.0000 0.61700  0.88300  0.07620  Biso   1.000  H
  C269     1.0000 0.51585  0.98415  0.25580  Biso   1.000  C
  H117     1.0000 0.52910  0.97090  0.30220  Biso   1.000  H
  C270     1.0000 0.62481  0.87519  0.33670  Biso   1.000  C
  H118     1.0000 0.63870  0.86130  0.38180  Biso   1.000  H
  N7       1.0000 0.73476  0.23476  0.12270  Biso   1.000  N
  C271     1.0000 0.91826  0.41826  0.21120  Biso   1.000  C
  C272     1.0000 0.93278  0.43278  0.06610  Biso   1.000  C
  C273     1.0000 0.97429  0.47429  0.17400  Biso   1.000  C
  C274     1.0000 0.94300  0.44300  0.14660  Biso   1.000  C
  C275     1.0000 0.90087  0.40087  0.04170  Biso   1.000  C
  H119     1.0000 0.88300  0.38300  0.07620  Biso   1.000  H
  C276     1.0000 0.98415  0.48415  0.25580  Biso   1.000  C
  H120     1.0000 0.97090  0.47090  0.30220  Biso   1.000  H
  C277     1.0000 0.87519  0.37519  0.33670  Biso   1.000  C
  H121     1.0000 0.86130  0.36130  0.38180  Biso   1.000  H
  N8       1.0000 0.26524  0.76524  0.12270  Biso   1.000  N
  C278     1.0000 0.08174  0.58174  0.21120  Biso   1.000  C
  C279     1.0000 0.06722  0.56722  0.06610  Biso   1.000  C
  C280     1.0000 0.02571  0.52571  0.17400  Biso   1.000  C
  C281     1.0000 0.05700  0.55700  0.14660  Biso   1.000  C
  C282     1.0000 0.09913  0.59913  0.04170  Biso   1.000  C
  H122     1.0000 0.11700  0.61700  0.07620  Biso   1.000  H
  C283     1.0000 0.01585  0.51585  0.25580  Biso   1.000  C
  H123     1.0000 0.02910  0.52910  0.30220  Biso   1.000  H
  C284     1.0000 0.12481  0.62481  0.33670  Biso   1.000  C
  H124     1.0000 0.13870  0.63870  0.38180  Biso   1.000  H
  N9       1.0000 0.26524  0.76524  0.87730  Biso   1.000  N
  C285     1.0000 0.08174  0.58174  0.78880  Biso   1.000  C
  C286     1.0000 0.06722  0.56722  0.93390  Biso   1.000  C
  C287     1.0000 0.02571  0.52571  0.82600  Biso   1.000  C
  C288     1.0000 0.05700  0.55700  0.85340  Biso   1.000  C
  C289     1.0000 0.09913  0.59913  0.95830  Biso   1.000  C
  H125     1.0000 0.11700  0.61700  0.92380  Biso   1.000  H
  C290     1.0000 0.01585  0.51585  0.74420  Biso   1.000  C
  H126     1.0000 0.02910  0.52910  0.69780  Biso   1.000  H
  C291     1.0000 0.12481  0.62481  0.66330  Biso   1.000  C
  H127     1.0000 0.13870  0.63870  0.61820  Biso   1.000  H
  N10      1.0000 0.73476  0.23476  0.87730  Biso   1.000  N
  C292     1.0000 0.91826  0.41826  0.78880  Biso   1.000  C
  C293     1.0000 0.93278  0.43278  0.93390  Biso   1.000  C
  C294     1.0000 0.97429  0.47429  0.82600  Biso   1.000  C
  C295     1.0000 0.94300  0.44300  0.85340  Biso   1.000  C
  C296     1.0000 0.90087  0.40087  0.95830  Biso   1.000  C
  H128     1.0000 0.88300  0.38300  0.92380  Biso   1.000  H
  C297     1.0000 0.98415  0.48415  0.74420  Biso   1.000  C
  H129     1.0000 0.97090  0.47090  0.69780  Biso   1.000  H
  C298     1.0000 0.87519  0.37519  0.66330  Biso   1.000  C
  H130     1.0000 0.86130  0.36130  0.61820  Biso   1.000  H
  N11      1.0000 0.76524  0.73476  0.87730  Biso   1.000  N
  C299     1.0000 0.58174  0.91826  0.78880  Biso   1.000  C
  C300     1.0000 0.56722  0.93278  0.93390  Biso   1.000  C
  C301     1.0000 0.52571  0.97429  0.82600  Biso   1.000  C
  C302     1.0000 0.55700  0.94300  0.85340  Biso   1.000  C
  C303     1.0000 0.59913  0.90087  0.95830  Biso   1.000  C
  H131     1.0000 0.61700  0.88300  0.92380  Biso   1.000  H
  C304     1.0000 0.51585  0.98415  0.74420  Biso   1.000  C
  H132     1.0000 0.52910  0.97090  0.69780  Biso   1.000  H
  C305     1.0000 0.62481  0.87519  0.66330  Biso   1.000  C
  H133     1.0000 0.63870  0.86130  0.61820  Biso   1.000  H
  N12      1.0000 0.23476  0.26524  0.87730  Biso   1.000  N
  C306     1.0000 0.41826  0.08174  0.78880  Biso   1.000  C
  C307     1.0000 0.43278  0.06722  0.93390  Biso   1.000  C
  C308     1.0000 0.47429  0.02571  0.82600  Biso   1.000  C
  C309     1.0000 0.44300  0.05700  0.85340  Biso   1.000  C
  C310     1.0000 0.40087  0.09913  0.95830  Biso   1.000  C
  H134     1.0000 0.38300  0.11700  0.92380  Biso   1.000  H
  C311     1.0000 0.48415  0.01585  0.74420  Biso   1.000  C
  H135     1.0000 0.47090  0.02910  0.69780  Biso   1.000  H
  C312     1.0000 0.37519  0.12481  0.66330  Biso   1.000  C
  H136     1.0000 0.36130  0.13870  0.61820  Biso   1.000  H
  O113     1.0000 0.45737  0.27844  0.50000  Biso   1.000  O
  H137     1.0000 0.42970  0.28200  0.50000  Biso   1.000  H
  C313     1.0000 0.53820  0.19920  0.50000  Biso   1.000  C
  H138     1.0000 0.56100  0.17740  0.50000  Biso   1.000  H
  Na1      1.0000 0.49144  0.35309  0.50000  Biso   1.000  Na
  O114     1.0000 0.54263  0.72156  0.50000  Biso   1.000  O
  H139     1.0000 0.57030  0.71800  0.50000  Biso   1.000  H
  C314     1.0000 0.46180  0.80080  0.50000  Biso   1.000  C
  H140     1.0000 0.43900  0.82260  0.50000  Biso   1.000  H
  Na2      1.0000 0.50856  0.64691  0.50000  Biso   1.000  Na
  O115     1.0000 0.72156  0.45737  0.50000  Biso   1.000  O
  H141     1.0000 0.71800  0.42970  0.50000  Biso   1.000  H
  C315     1.0000 0.80080  0.53820  0.50000  Biso   1.000  C
  H142     1.0000 0.82260  0.56100  0.50000  Biso   1.000  H
  Na3      1.0000 0.64691  0.49144  0.50000  Biso   1.000  Na
  O116     1.0000 0.27844  0.54263  0.50000  Biso   1.000  O
  H143     1.0000 0.28200  0.57030  0.50000  Biso   1.000  H
  C316     1.0000 0.19920  0.46180  0.50000  Biso   1.000  C
  H144     1.0000 0.17740  0.43900  0.50000  Biso   1.000  H
  Na4      1.0000 0.35309  0.50856  0.50000  Biso   1.000  Na
  O117     1.0000 0.04263  0.77844  0.50000  Biso   1.000  O
  H145     1.0000 0.07030  0.78200  0.50000  Biso   1.000  H
  C317     1.0000 0.96180  0.69920  0.50000  Biso   1.000  C
  H146     1.0000 0.93900  0.67740  0.50000  Biso   1.000  H
  Na5      1.0000 0.00856  0.85309  0.50000  Biso   1.000  Na
  O118     1.0000 0.95737  0.22156  0.50000  Biso   1.000  O
  H147     1.0000 0.92970  0.21800  0.50000  Biso   1.000  H
  C318     1.0000 0.03820  0.30080  0.50000  Biso   1.000  C
  H148     1.0000 0.06100  0.32260  0.50000  Biso   1.000  H
  Na6      1.0000 0.99144  0.14691  0.50000  Biso   1.000  Na
  O119     1.0000 0.77844  0.95737  0.50000  Biso   1.000  O
  H149     1.0000 0.78200  0.92970  0.50000  Biso   1.000  H
  C319     1.0000 0.69920  0.03820  0.50000  Biso   1.000  C
  H150     1.0000 0.67740  0.06100  0.50000  Biso   1.000  H
  Na7      1.0000 0.85309  0.99144  0.50000  Biso   1.000  Na
  O120     1.0000 0.22156  0.04263  0.50000  Biso   1.000  O
  H151     1.0000 0.21800  0.07030  0.50000  Biso   1.000  H
  C320     1.0000 0.30080  0.96180  0.50000  Biso   1.000  C
  H152     1.0000 0.32260  0.93900  0.50000  Biso   1.000  H
  Na8      1.0000 0.14691  0.00856  0.50000  Biso   1.000  Na
  N13      1.0000 0.28382  0.31228  0.00000  Biso   1.000  N
  N14      1.0000 0.71618  0.68772  0.00000  Biso   1.000  N
  N15      1.0000 0.68772  0.28382  0.00000  Biso   1.000  N
  N16      1.0000 0.31228  0.71618  0.00000  Biso   1.000  N
  N17      1.0000 0.21618  0.81228  0.00000  Biso   1.000  N
  N18      1.0000 0.78382  0.18772  0.00000  Biso   1.000  N
  N19      1.0000 0.81228  0.78382  0.00000  Biso   1.000  N
  N20      1.0000 0.18772  0.21618  0.00000  Biso   1.000  N
  N21      1.0000 0.50000  0.00000  0.12380  Biso   1.000  N
  N22      1.0000 0.00000  0.50000  0.12380  Biso   1.000  N
  N23      1.0000 0.00000  0.50000  0.87620  Biso   1.000  N
  N24      1.0000 0.50000  0.00000  0.87620  Biso   1.000  N
  Zn9      1.0000 0.50927  0.00927  0.00000  Biso   1.000  Zn
  Zn10     1.0000 0.49073  0.99073  0.00000  Biso   1.000  Zn
  Zn11     1.0000 0.99073  0.50927  0.00000  Biso   1.000  Zn
  Zn12     1.0000 0.00927  0.49073  0.00000  Biso   1.000  Zn
