data_image0
_cell_length_a       29.313
_cell_length_b       11.935
_cell_length_c       22.254
_cell_angle_alpha    90
_cell_angle_beta     114.98
_cell_angle_gamma    90

_symmetry_space_group_name_H-M    "P 1"
_symmetry_int_tables_number       1

loop_
  _symmetry_equiv_pos_as_xyz
  'x, y, z'

loop_
  _atom_site_label
  _atom_site_occupancy
  _atom_site_fract_x
  _atom_site_fract_y
  _atom_site_fract_z
  _atom_site_thermal_displace_type
  _atom_site_B_iso_or_equiv
  _atom_site_type_symbol
  N1       1.0000 0.01318  0.16530  0.98801  Biso   1.000  N
  H1       1.0000 0.01330  0.17270  0.94330  Biso   1.000  H
  N2       1.0000 0.07291  0.95114  0.02323  Biso   1.000  N
  H2       1.0000 0.07650  0.94090  0.98080  Biso   1.000  H
  N3       1.0000 0.10430  0.14555  0.03688  Biso   1.000  N
  C1       1.0000 0.96869  0.22728  0.98584  Biso   1.000  C
  H3       1.0000 0.96670  0.30180  0.96530  Biso   1.000  H
  H4       1.0000 0.97140  0.23840  0.03130  Biso   1.000  H
  C2       1.0000 0.06208  0.20709  0.03692  Biso   1.000  C
  H5       1.0000 0.06560  0.28690  0.02740  Biso   1.000  H
  H6       1.0000 0.06270  0.20280  0.08170  Biso   1.000  H
  C3       1.0000 0.11129  0.03448  0.06447  Biso   1.000  C
  H7       1.0000 0.11070  0.03860  0.10860  Biso   1.000  H
  H8       1.0000 0.14500  0.00730  0.07110  Biso   1.000  H
  C4       1.0000 0.07803  0.84065  0.05473  Biso   1.000  C
  H9       1.0000 0.08150  0.84940  0.10070  Biso   1.000  H
  H10      1.0000 0.10840  0.80200  0.05620  Biso   1.000  H
  C5       1.0000 0.11256  0.15890  0.97633  Biso   1.000  C
  H11      1.0000 0.08980  0.21780  0.94820  Biso   1.000  H
  H12      1.0000 0.10400  0.08780  0.95100  Biso   1.000  H
  C6       1.0000 0.16635  0.18990  0.99156  Biso   1.000  C
  H13      1.0000 0.18940  0.13270  0.02120  Biso   1.000  H
  H14      1.0000 0.17460  0.26280  0.01490  Biso   1.000  H
  C7       1.0000 0.17410  0.19780  0.92788  Biso   1.000  C
  H15      1.0000 0.17170  0.12290  0.90880  Biso   1.000  H
  H16      1.0000 0.20740  0.22950  0.93800  Biso   1.000  H
  H17      1.0000 0.14810  0.24630  0.89600  Biso   1.000  H
  N4       1.0000 0.20985  0.27679  0.55502  Biso   1.000  N
  H18      1.0000 0.17480  0.24920  0.52860  Biso   1.000  H
  N5       1.0000 0.21950  0.39190  0.44950  Biso   1.000  N
  H19      1.0000 0.18500  0.37370  0.41500  Biso   1.000  H
  N6       1.0000 0.18528  0.45370  0.52740  Biso   1.000  N
  C8       1.0000 0.25090  0.42470  0.41540  Biso   1.000  C
  H20      1.0000 0.28220  0.46100  0.44700  Biso   1.000  H
  H21      1.0000 0.23250  0.47840  0.37930  Biso   1.000  H
  C9       1.0000 0.21460  0.48350  0.49250  Biso   1.000  C
  H22      1.0000 0.24870  0.50540  0.52500  Biso   1.000  H
  H23      1.0000 0.19920  0.54970  0.46440  Biso   1.000  H
  C10      1.0000 0.20730  0.37490  0.58050  Biso   1.000  C
  H24      1.0000 0.24140  0.40000  0.61120  Biso   1.000  H
  H25      1.0000 0.18650  0.36900  0.60570  Biso   1.000  H
  C11      1.0000 0.23670  0.18150  0.61310  Biso   1.000  C
  H26      1.0000 0.26790  0.21270  0.64790  Biso   1.000  H
  H27      1.0000 0.21370  0.16250  0.63390  Biso   1.000  H
  C12      1.0000 0.13110  0.43420  0.48860  Biso   1.000  C
  H28      1.0000 0.12540  0.43480  0.44140  Biso   1.000  H
  H29      1.0000 0.12460  0.35660  0.49860  Biso   1.000  H
  C13      1.0000 0.09977  0.48830  0.49170  Biso   1.000  C
  H30      1.0000 0.11430  0.56300  0.50830  Biso   1.000  H
  H31      1.0000 0.09050  0.45460  0.52570  Biso   1.000  H
  C14      1.0000 0.04480  0.50870  0.42110  Biso   1.000  C
  H32      1.0000 0.04260  0.58720  0.40720  Biso   1.000  H
  H33      1.0000 0.01590  0.49040  0.43050  Biso   1.000  H
  H34      1.0000 0.04470  0.46010  0.38560  Biso   1.000  H
  O1       1.0000 0.02030  0.03304  0.10310  Biso   1.000  O
  O2       1.0000 0.00115  0.87937  0.14558  Biso   1.000  O
  O3       1.0000 0.19015  0.16035  0.42636  Biso   1.000  O
  O4       1.0000 0.12491  0.16197  0.45349  Biso   1.000  O
  C15      1.0000 0.02045  0.97377  0.15026  Biso   1.000  C
  C16      1.0000 0.04982  0.02145  0.21894  Biso   1.000  C
  C17      1.0000 0.10199  0.02638  0.24107  Biso   1.000  C
  H35      1.0000 0.11670  0.00250  0.21250  Biso   1.000  H
  C18      1.0000 0.13264  0.06531  0.30371  Biso   1.000  C
  H36      1.0000 0.16810  0.06780  0.31790  Biso   1.000  H
  C19      1.0000 0.11146  0.10096  0.34604  Biso   1.000  C
  C20      1.0000 0.05943  0.09644  0.32414  Biso   1.000  C
  H37      1.0000 0.04500  0.12130  0.35280  Biso   1.000  H
  C21      1.0000 0.02771  0.05622  0.26098  Biso   1.000  C
  C22      1.0000 0.14454  0.14466  0.41432  Biso   1.000  C
  N7       1.0000 0.22720  0.39050  0.43790  Biso   1.000  N
  H38      1.0000 0.19300  0.37440  0.40220  Biso   1.000  H
  N8       1.0000 0.18965  0.48210  0.50570  Biso   1.000  N
  C23      1.0000 0.26180  0.39440  0.40770  Biso   1.000  C
  H39      1.0000 0.29390  0.42810  0.43900  Biso   1.000  H
  H40      1.0000 0.24770  0.44240  0.36770  Biso   1.000  H
  C24      1.0000 0.22310  0.49130  0.47330  Biso   1.000  C
  H41      1.0000 0.25710  0.51070  0.50710  Biso   1.000  H
  H42      1.0000 0.21150  0.55410  0.44130  Biso   1.000  H
  C25      1.0000 0.20690  0.41300  0.56420  Biso   1.000  C
  H43      1.0000 0.18460  0.42670  0.58660  Biso   1.000  H
  H44      1.0000 0.24100  0.43910  0.59460  Biso   1.000  H
  C26      1.0000 0.22820  0.22230  0.61170  Biso   1.000  C
  H45      1.0000 0.20360  0.21980  0.63140  Biso   1.000  H
  H46      1.0000 0.25970  0.25760  0.64370  Biso   1.000  H
  C27      1.0000 0.13612  0.46930  0.45940  Biso   1.000  C
  H47      1.0000 0.13520  0.46360  0.41450  Biso   1.000  H
  H48      1.0000 0.12550  0.39540  0.46910  Biso   1.000  H
  C28      1.0000 0.10430  0.53290  0.45520  Biso   1.000  C
  H49      1.0000 0.10130  0.58560  0.41930  Biso   1.000  H
  H50      1.0000 0.11810  0.57700  0.49670  Biso   1.000  H
  C29      1.0000 0.04670  0.50170  0.44220  Biso   1.000  C
  H51      1.0000 0.03700  0.43060  0.41800  Biso   1.000  H
  H52      1.0000 0.02390  0.56120  0.41600  Biso   1.000  H
  H53      1.0000 0.04450  0.49460  0.48480  Biso   1.000  H
  N9       1.0000 0.51318  0.66530  0.98801  Biso   1.000  N
  H54      1.0000 0.51330  0.67270  0.94330  Biso   1.000  H
  N10      1.0000 0.57291  0.45114  0.02323  Biso   1.000  N
  H55      1.0000 0.57650  0.44090  0.98080  Biso   1.000  H
  N11      1.0000 0.60430  0.64555  0.03688  Biso   1.000  N
  C30      1.0000 0.46869  0.72728  0.98584  Biso   1.000  C
  H56      1.0000 0.46670  0.80180  0.96530  Biso   1.000  H
  H57      1.0000 0.47140  0.73840  0.03130  Biso   1.000  H
  C31      1.0000 0.56208  0.70709  0.03692  Biso   1.000  C
  H58      1.0000 0.56560  0.78690  0.02740  Biso   1.000  H
  H59      1.0000 0.56270  0.70280  0.08170  Biso   1.000  H
  C32      1.0000 0.61129  0.53448  0.06447  Biso   1.000  C
  H60      1.0000 0.61070  0.53860  0.10860  Biso   1.000  H
  H61      1.0000 0.64500  0.50730  0.07110  Biso   1.000  H
  C33      1.0000 0.57803  0.34065  0.05473  Biso   1.000  C
  H62      1.0000 0.58150  0.34940  0.10070  Biso   1.000  H
  H63      1.0000 0.60840  0.30200  0.05620  Biso   1.000  H
  C34      1.0000 0.61256  0.65890  0.97633  Biso   1.000  C
  H64      1.0000 0.58980  0.71780  0.94820  Biso   1.000  H
  H65      1.0000 0.60400  0.58780  0.95100  Biso   1.000  H
  C35      1.0000 0.66635  0.68990  0.99156  Biso   1.000  C
  H66      1.0000 0.68940  0.63270  0.02120  Biso   1.000  H
  H67      1.0000 0.67460  0.76280  0.01490  Biso   1.000  H
  C36      1.0000 0.67410  0.69780  0.92788  Biso   1.000  C
  H68      1.0000 0.67170  0.62290  0.90880  Biso   1.000  H
  H69      1.0000 0.70740  0.72950  0.93800  Biso   1.000  H
  H70      1.0000 0.64810  0.74630  0.89600  Biso   1.000  H
  N12      1.0000 0.70985  0.77679  0.55502  Biso   1.000  N
  H71      1.0000 0.67480  0.74920  0.52860  Biso   1.000  H
  N13      1.0000 0.71950  0.89190  0.44950  Biso   1.000  N
  H72      1.0000 0.68500  0.87370  0.41500  Biso   1.000  H
  N14      1.0000 0.68528  0.95370  0.52740  Biso   1.000  N
  C37      1.0000 0.75090  0.92470  0.41540  Biso   1.000  C
  H73      1.0000 0.78220  0.96100  0.44700  Biso   1.000  H
  H74      1.0000 0.73250  0.97840  0.37930  Biso   1.000  H
  C38      1.0000 0.71460  0.98350  0.49250  Biso   1.000  C
  H75      1.0000 0.74870  0.00540  0.52500  Biso   1.000  H
  H76      1.0000 0.69920  0.04970  0.46440  Biso   1.000  H
  C39      1.0000 0.70730  0.87490  0.58050  Biso   1.000  C
  H77      1.0000 0.74140  0.90000  0.61120  Biso   1.000  H
  H78      1.0000 0.68650  0.86900  0.60570  Biso   1.000  H
  C40      1.0000 0.73670  0.68150  0.61310  Biso   1.000  C
  H79      1.0000 0.76790  0.71270  0.64790  Biso   1.000  H
  H80      1.0000 0.71370  0.66250  0.63390  Biso   1.000  H
  C41      1.0000 0.63110  0.93420  0.48860  Biso   1.000  C
  H81      1.0000 0.62540  0.93480  0.44140  Biso   1.000  H
  H82      1.0000 0.62460  0.85660  0.49860  Biso   1.000  H
  C42      1.0000 0.59977  0.98830  0.49170  Biso   1.000  C
  H83      1.0000 0.61430  0.06300  0.50830  Biso   1.000  H
  H84      1.0000 0.59050  0.95460  0.52570  Biso   1.000  H
  C43      1.0000 0.54480  0.00870  0.42110  Biso   1.000  C
  H85      1.0000 0.54260  0.08720  0.40720  Biso   1.000  H
  H86      1.0000 0.51590  0.99040  0.43050  Biso   1.000  H
  H87      1.0000 0.54470  0.96010  0.38560  Biso   1.000  H
  O5       1.0000 0.52030  0.53304  0.10310  Biso   1.000  O
  O6       1.0000 0.50115  0.37937  0.14558  Biso   1.000  O
  O7       1.0000 0.69015  0.66035  0.42636  Biso   1.000  O
  O8       1.0000 0.62491  0.66197  0.45349  Biso   1.000  O
  C44      1.0000 0.52045  0.47377  0.15026  Biso   1.000  C
  C45      1.0000 0.54982  0.52145  0.21894  Biso   1.000  C
  C46      1.0000 0.60199  0.52638  0.24107  Biso   1.000  C
  H88      1.0000 0.61670  0.50250  0.21250  Biso   1.000  H
  C47      1.0000 0.63264  0.56531  0.30371  Biso   1.000  C
  H89      1.0000 0.66810  0.56780  0.31790  Biso   1.000  H
  C48      1.0000 0.61146  0.60096  0.34604  Biso   1.000  C
  C49      1.0000 0.55943  0.59644  0.32414  Biso   1.000  C
  H90      1.0000 0.54500  0.62130  0.35280  Biso   1.000  H
  C50      1.0000 0.52771  0.55622  0.26098  Biso   1.000  C
  C51      1.0000 0.64454  0.64466  0.41432  Biso   1.000  C
  N15      1.0000 0.72720  0.89050  0.43790  Biso   1.000  N
  H91      1.0000 0.69300  0.87440  0.40220  Biso   1.000  H
  N16      1.0000 0.68965  0.98210  0.50570  Biso   1.000  N
  C52      1.0000 0.76180  0.89440  0.40770  Biso   1.000  C
  H92      1.0000 0.79390  0.92810  0.43900  Biso   1.000  H
  H93      1.0000 0.74770  0.94240  0.36770  Biso   1.000  H
  C53      1.0000 0.72310  0.99130  0.47330  Biso   1.000  C
  H94      1.0000 0.75710  0.01070  0.50710  Biso   1.000  H
  H95      1.0000 0.71150  0.05410  0.44130  Biso   1.000  H
  C54      1.0000 0.70690  0.91300  0.56420  Biso   1.000  C
  H96      1.0000 0.68460  0.92670  0.58660  Biso   1.000  H
  H97      1.0000 0.74100  0.93910  0.59460  Biso   1.000  H
  C55      1.0000 0.72820  0.72230  0.61170  Biso   1.000  C
  H98      1.0000 0.70360  0.71980  0.63140  Biso   1.000  H
  H99      1.0000 0.75970  0.75760  0.64370  Biso   1.000  H
  C56      1.0000 0.63612  0.96930  0.45940  Biso   1.000  C
  H100     1.0000 0.63520  0.96360  0.41450  Biso   1.000  H
  H101     1.0000 0.62550  0.89540  0.46910  Biso   1.000  H
  C57      1.0000 0.60430  0.03290  0.45520  Biso   1.000  C
  H102     1.0000 0.60130  0.08560  0.41930  Biso   1.000  H
  H103     1.0000 0.61810  0.07700  0.49670  Biso   1.000  H
  C58      1.0000 0.54670  0.00170  0.44220  Biso   1.000  C
  H104     1.0000 0.53700  0.93060  0.41800  Biso   1.000  H
  H105     1.0000 0.52390  0.06120  0.41600  Biso   1.000  H
  H106     1.0000 0.54450  0.99460  0.48480  Biso   1.000  H
  N17      1.0000 0.98682  0.16530  0.51199  Biso   1.000  N
  H107     1.0000 0.98670  0.17270  0.55670  Biso   1.000  H
  N18      1.0000 0.92709  0.95114  0.47677  Biso   1.000  N
  H108     1.0000 0.92350  0.94090  0.51920  Biso   1.000  H
  N19      1.0000 0.89570  0.14555  0.46312  Biso   1.000  N
  C59      1.0000 0.03131  0.22728  0.51416  Biso   1.000  C
  H109     1.0000 0.03330  0.30180  0.53470  Biso   1.000  H
  H110     1.0000 0.02860  0.23840  0.46870  Biso   1.000  H
  C60      1.0000 0.93792  0.20709  0.46308  Biso   1.000  C
  H111     1.0000 0.93440  0.28690  0.47260  Biso   1.000  H
  H112     1.0000 0.93730  0.20280  0.41830  Biso   1.000  H
  C61      1.0000 0.88871  0.03448  0.43553  Biso   1.000  C
  H113     1.0000 0.88930  0.03860  0.39140  Biso   1.000  H
  H114     1.0000 0.85500  0.00730  0.42890  Biso   1.000  H
  C62      1.0000 0.92197  0.84065  0.44527  Biso   1.000  C
  H115     1.0000 0.91850  0.84940  0.39930  Biso   1.000  H
  H116     1.0000 0.89160  0.80200  0.44380  Biso   1.000  H
  C63      1.0000 0.88744  0.15890  0.52367  Biso   1.000  C
  H117     1.0000 0.91020  0.21780  0.55180  Biso   1.000  H
  H118     1.0000 0.89600  0.08780  0.54900  Biso   1.000  H
  C64      1.0000 0.83365  0.18990  0.50844  Biso   1.000  C
  H119     1.0000 0.81060  0.13270  0.47880  Biso   1.000  H
  H120     1.0000 0.82540  0.26280  0.48510  Biso   1.000  H
  C65      1.0000 0.82590  0.19780  0.57212  Biso   1.000  C
  H121     1.0000 0.82830  0.12290  0.59120  Biso   1.000  H
  H122     1.0000 0.79260  0.22950  0.56200  Biso   1.000  H
  H123     1.0000 0.85190  0.24630  0.60400  Biso   1.000  H
  N20      1.0000 0.79015  0.27679  0.94498  Biso   1.000  N
  H124     1.0000 0.82520  0.24920  0.97140  Biso   1.000  H
  N21      1.0000 0.78050  0.39190  0.05050  Biso   1.000  N
  H125     1.0000 0.81500  0.37370  0.08500  Biso   1.000  H
  N22      1.0000 0.81472  0.45370  0.97260  Biso   1.000  N
  C66      1.0000 0.74910  0.42470  0.08460  Biso   1.000  C
  H126     1.0000 0.71780  0.46100  0.05300  Biso   1.000  H
  H127     1.0000 0.76750  0.47840  0.12070  Biso   1.000  H
  C67      1.0000 0.78540  0.48350  0.00750  Biso   1.000  C
  H128     1.0000 0.75130  0.50540  0.97500  Biso   1.000  H
  H129     1.0000 0.80080  0.54970  0.03560  Biso   1.000  H
  C68      1.0000 0.79270  0.37490  0.91950  Biso   1.000  C
  H130     1.0000 0.75860  0.40000  0.88880  Biso   1.000  H
  H131     1.0000 0.81350  0.36900  0.89430  Biso   1.000  H
  C69      1.0000 0.76330  0.18150  0.88690  Biso   1.000  C
  H132     1.0000 0.73210  0.21270  0.85210  Biso   1.000  H
  H133     1.0000 0.78630  0.16250  0.86610  Biso   1.000  H
  C70      1.0000 0.86890  0.43420  0.01140  Biso   1.000  C
  H134     1.0000 0.87460  0.43480  0.05860  Biso   1.000  H
  H135     1.0000 0.87540  0.35660  0.00140  Biso   1.000  H
  C71      1.0000 0.90023  0.48830  0.00830  Biso   1.000  C
  H136     1.0000 0.88570  0.56300  0.99170  Biso   1.000  H
  H137     1.0000 0.90950  0.45460  0.97430  Biso   1.000  H
  C72      1.0000 0.95520  0.50870  0.07890  Biso   1.000  C
  H138     1.0000 0.95740  0.58720  0.09280  Biso   1.000  H
  H139     1.0000 0.98410  0.49040  0.06950  Biso   1.000  H
  H140     1.0000 0.95530  0.46010  0.11440  Biso   1.000  H
  O9       1.0000 0.97970  0.03304  0.39690  Biso   1.000  O
  O10      1.0000 0.99885  0.87937  0.35442  Biso   1.000  O
  O11      1.0000 0.80985  0.16035  0.07364  Biso   1.000  O
  O12      1.0000 0.87509  0.16197  0.04651  Biso   1.000  O
  C73      1.0000 0.97955  0.97377  0.34974  Biso   1.000  C
  C74      1.0000 0.95018  0.02145  0.28106  Biso   1.000  C
  C75      1.0000 0.89801  0.02638  0.25893  Biso   1.000  C
  H141     1.0000 0.88330  0.00250  0.28750  Biso   1.000  H
  C76      1.0000 0.86736  0.06531  0.19629  Biso   1.000  C
  H142     1.0000 0.83190  0.06780  0.18210  Biso   1.000  H
  C77      1.0000 0.88854  0.10096  0.15396  Biso   1.000  C
  C78      1.0000 0.94057  0.09644  0.17586  Biso   1.000  C
  H143     1.0000 0.95500  0.12130  0.14720  Biso   1.000  H
  C79      1.0000 0.97229  0.05622  0.23902  Biso   1.000  C
  C80      1.0000 0.85546  0.14466  0.08568  Biso   1.000  C
  N23      1.0000 0.77280  0.39050  0.06210  Biso   1.000  N
  H144     1.0000 0.80700  0.37440  0.09780  Biso   1.000  H
  N24      1.0000 0.81035  0.48210  0.99430  Biso   1.000  N
  C81      1.0000 0.73820  0.39440  0.09230  Biso   1.000  C
  H145     1.0000 0.70610  0.42810  0.06100  Biso   1.000  H
  H146     1.0000 0.75230  0.44240  0.13230  Biso   1.000  H
  C82      1.0000 0.77690  0.49130  0.02670  Biso   1.000  C
  H147     1.0000 0.74290  0.51070  0.99290  Biso   1.000  H
  H148     1.0000 0.78850  0.55410  0.05870  Biso   1.000  H
  C83      1.0000 0.79310  0.41300  0.93580  Biso   1.000  C
  H149     1.0000 0.81540  0.42670  0.91340  Biso   1.000  H
  H150     1.0000 0.75900  0.43910  0.90540  Biso   1.000  H
  C84      1.0000 0.77180  0.22230  0.88830  Biso   1.000  C
  H151     1.0000 0.79640  0.21980  0.86860  Biso   1.000  H
  H152     1.0000 0.74030  0.25760  0.85630  Biso   1.000  H
  C85      1.0000 0.86388  0.46930  0.04060  Biso   1.000  C
  H153     1.0000 0.86480  0.46360  0.08550  Biso   1.000  H
  H154     1.0000 0.87450  0.39540  0.03090  Biso   1.000  H
  C86      1.0000 0.89570  0.53290  0.04480  Biso   1.000  C
  H155     1.0000 0.89870  0.58560  0.08070  Biso   1.000  H
  H156     1.0000 0.88190  0.57700  0.00330  Biso   1.000  H
  C87      1.0000 0.95330  0.50170  0.05780  Biso   1.000  C
  H157     1.0000 0.96300  0.43060  0.08200  Biso   1.000  H
  H158     1.0000 0.97610  0.56120  0.08400  Biso   1.000  H
  H159     1.0000 0.95550  0.49460  0.01520  Biso   1.000  H
  N25      1.0000 0.48682  0.66530  0.51199  Biso   1.000  N
  H160     1.0000 0.48670  0.67270  0.55670  Biso   1.000  H
  N26      1.0000 0.42709  0.45114  0.47677  Biso   1.000  N
  H161     1.0000 0.42350  0.44090  0.51920  Biso   1.000  H
  N27      1.0000 0.39570  0.64555  0.46312  Biso   1.000  N
  C88      1.0000 0.53131  0.72728  0.51416  Biso   1.000  C
  H162     1.0000 0.53330  0.80180  0.53470  Biso   1.000  H
  H163     1.0000 0.52860  0.73840  0.46870  Biso   1.000  H
  C89      1.0000 0.43792  0.70709  0.46308  Biso   1.000  C
  H164     1.0000 0.43440  0.78690  0.47260  Biso   1.000  H
  H165     1.0000 0.43730  0.70280  0.41830  Biso   1.000  H
  C90      1.0000 0.38871  0.53448  0.43553  Biso   1.000  C
  H166     1.0000 0.38930  0.53860  0.39140  Biso   1.000  H
  H167     1.0000 0.35500  0.50730  0.42890  Biso   1.000  H
  C91      1.0000 0.42197  0.34065  0.44527  Biso   1.000  C
  H168     1.0000 0.41850  0.34940  0.39930  Biso   1.000  H
  H169     1.0000 0.39160  0.30200  0.44380  Biso   1.000  H
  C92      1.0000 0.38744  0.65890  0.52367  Biso   1.000  C
  H170     1.0000 0.41020  0.71780  0.55180  Biso   1.000  H
  H171     1.0000 0.39600  0.58780  0.54900  Biso   1.000  H
  C93      1.0000 0.33365  0.68990  0.50844  Biso   1.000  C
  H172     1.0000 0.31060  0.63270  0.47880  Biso   1.000  H
  H173     1.0000 0.32540  0.76280  0.48510  Biso   1.000  H
  C94      1.0000 0.32590  0.69780  0.57212  Biso   1.000  C
  H174     1.0000 0.32830  0.62290  0.59120  Biso   1.000  H
  H175     1.0000 0.29260  0.72950  0.56200  Biso   1.000  H
  H176     1.0000 0.35190  0.74630  0.60400  Biso   1.000  H
  N28      1.0000 0.29015  0.77679  0.94498  Biso   1.000  N
  H177     1.0000 0.32520  0.74920  0.97140  Biso   1.000  H
  N29      1.0000 0.28050  0.89190  0.05050  Biso   1.000  N
  H178     1.0000 0.31500  0.87370  0.08500  Biso   1.000  H
  N30      1.0000 0.31472  0.95370  0.97260  Biso   1.000  N
  C95      1.0000 0.24910  0.92470  0.08460  Biso   1.000  C
  H179     1.0000 0.21780  0.96100  0.05300  Biso   1.000  H
  H180     1.0000 0.26750  0.97840  0.12070  Biso   1.000  H
  C96      1.0000 0.28540  0.98350  0.00750  Biso   1.000  C
  H181     1.0000 0.25130  0.00540  0.97500  Biso   1.000  H
  H182     1.0000 0.30080  0.04970  0.03560  Biso   1.000  H
  C97      1.0000 0.29270  0.87490  0.91950  Biso   1.000  C
  H183     1.0000 0.25860  0.90000  0.88880  Biso   1.000  H
  H184     1.0000 0.31350  0.86900  0.89430  Biso   1.000  H
  C98      1.0000 0.26330  0.68150  0.88690  Biso   1.000  C
  H185     1.0000 0.23210  0.71270  0.85210  Biso   1.000  H
  H186     1.0000 0.28630  0.66250  0.86610  Biso   1.000  H
  C99      1.0000 0.36890  0.93420  0.01140  Biso   1.000  C
  H187     1.0000 0.37460  0.93480  0.05860  Biso   1.000  H
  H188     1.0000 0.37540  0.85660  0.00140  Biso   1.000  H
  C100     1.0000 0.40023  0.98830  0.00830  Biso   1.000  C
  H189     1.0000 0.38570  0.06300  0.99170  Biso   1.000  H
  H190     1.0000 0.40950  0.95460  0.97430  Biso   1.000  H
  C101     1.0000 0.45520  0.00870  0.07890  Biso   1.000  C
  H191     1.0000 0.45740  0.08720  0.09280  Biso   1.000  H
  H192     1.0000 0.48410  0.99040  0.06950  Biso   1.000  H
  H193     1.0000 0.45530  0.96010  0.11440  Biso   1.000  H
  O13      1.0000 0.47970  0.53304  0.39690  Biso   1.000  O
  O14      1.0000 0.49885  0.37937  0.35442  Biso   1.000  O
  O15      1.0000 0.30985  0.66035  0.07364  Biso   1.000  O
  O16      1.0000 0.37509  0.66197  0.04651  Biso   1.000  O
  C102     1.0000 0.47955  0.47377  0.34974  Biso   1.000  C
  C103     1.0000 0.45018  0.52145  0.28106  Biso   1.000  C
  C104     1.0000 0.39801  0.52638  0.25893  Biso   1.000  C
  H194     1.0000 0.38330  0.50250  0.28750  Biso   1.000  H
  C105     1.0000 0.36736  0.56531  0.19629  Biso   1.000  C
  H195     1.0000 0.33190  0.56780  0.18210  Biso   1.000  H
  C106     1.0000 0.38854  0.60096  0.15396  Biso   1.000  C
  C107     1.0000 0.44057  0.59644  0.17586  Biso   1.000  C
  H196     1.0000 0.45500  0.62130  0.14720  Biso   1.000  H
  C108     1.0000 0.47229  0.55622  0.23902  Biso   1.000  C
  C109     1.0000 0.35546  0.64466  0.08568  Biso   1.000  C
  N31      1.0000 0.27280  0.89050  0.06210  Biso   1.000  N
  H197     1.0000 0.30700  0.87440  0.09780  Biso   1.000  H
  N32      1.0000 0.31035  0.98210  0.99430  Biso   1.000  N
  C110     1.0000 0.23820  0.89440  0.09230  Biso   1.000  C
  H198     1.0000 0.20610  0.92810  0.06100  Biso   1.000  H
  H199     1.0000 0.25230  0.94240  0.13230  Biso   1.000  H
  C111     1.0000 0.27690  0.99130  0.02670  Biso   1.000  C
  H200     1.0000 0.24290  0.01070  0.99290  Biso   1.000  H
  H201     1.0000 0.28850  0.05410  0.05870  Biso   1.000  H
  C112     1.0000 0.29310  0.91300  0.93580  Biso   1.000  C
  H202     1.0000 0.31540  0.92670  0.91340  Biso   1.000  H
  H203     1.0000 0.25900  0.93910  0.90540  Biso   1.000  H
  C113     1.0000 0.27180  0.72230  0.88830  Biso   1.000  C
  H204     1.0000 0.29640  0.71980  0.86860  Biso   1.000  H
  H205     1.0000 0.24030  0.75760  0.85630  Biso   1.000  H
  C114     1.0000 0.36388  0.96930  0.04060  Biso   1.000  C
  H206     1.0000 0.36480  0.96360  0.08550  Biso   1.000  H
  H207     1.0000 0.37450  0.89540  0.03090  Biso   1.000  H
  C115     1.0000 0.39570  0.03290  0.04480  Biso   1.000  C
  H208     1.0000 0.39870  0.08560  0.08070  Biso   1.000  H
  H209     1.0000 0.38190  0.07700  0.00330  Biso   1.000  H
  C116     1.0000 0.45330  0.00170  0.05780  Biso   1.000  C
  H210     1.0000 0.46300  0.93060  0.08200  Biso   1.000  H
  H211     1.0000 0.47610  0.06120  0.08400  Biso   1.000  H
  H212     1.0000 0.45550  0.99460  0.01520  Biso   1.000  H
  N33      1.0000 0.98682  0.83470  0.01199  Biso   1.000  N
  H213     1.0000 0.98670  0.82730  0.05670  Biso   1.000  H
  N34      1.0000 0.92709  0.04886  0.97677  Biso   1.000  N
  H214     1.0000 0.92350  0.05910  0.01920  Biso   1.000  H
  N35      1.0000 0.89570  0.85445  0.96312  Biso   1.000  N
  C117     1.0000 0.03131  0.77272  0.01416  Biso   1.000  C
  H215     1.0000 0.03330  0.69820  0.03470  Biso   1.000  H
  H216     1.0000 0.02860  0.76160  0.96870  Biso   1.000  H
  C118     1.0000 0.93792  0.79291  0.96308  Biso   1.000  C
  H217     1.0000 0.93440  0.71310  0.97260  Biso   1.000  H
  H218     1.0000 0.93730  0.79720  0.91830  Biso   1.000  H
  C119     1.0000 0.88871  0.96552  0.93553  Biso   1.000  C
  H219     1.0000 0.88930  0.96140  0.89140  Biso   1.000  H
  H220     1.0000 0.85500  0.99270  0.92890  Biso   1.000  H
  C120     1.0000 0.92197  0.15935  0.94527  Biso   1.000  C
  H221     1.0000 0.91850  0.15060  0.89930  Biso   1.000  H
  H222     1.0000 0.89160  0.19800  0.94380  Biso   1.000  H
  C121     1.0000 0.88744  0.84110  0.02367  Biso   1.000  C
  H223     1.0000 0.91020  0.78220  0.05180  Biso   1.000  H
  H224     1.0000 0.89600  0.91220  0.04900  Biso   1.000  H
  C122     1.0000 0.83365  0.81010  0.00844  Biso   1.000  C
  H225     1.0000 0.81060  0.86730  0.97880  Biso   1.000  H
  H226     1.0000 0.82540  0.73720  0.98510  Biso   1.000  H
  C123     1.0000 0.82590  0.80220  0.07212  Biso   1.000  C
  H227     1.0000 0.82830  0.87710  0.09120  Biso   1.000  H
  H228     1.0000 0.79260  0.77050  0.06200  Biso   1.000  H
  H229     1.0000 0.85190  0.75370  0.10400  Biso   1.000  H
  N36      1.0000 0.79015  0.72321  0.44498  Biso   1.000  N
  H230     1.0000 0.82520  0.75080  0.47140  Biso   1.000  H
  N37      1.0000 0.78050  0.60810  0.55050  Biso   1.000  N
  H231     1.0000 0.81500  0.62630  0.58500  Biso   1.000  H
  N38      1.0000 0.81472  0.54630  0.47260  Biso   1.000  N
  C124     1.0000 0.74910  0.57530  0.58460  Biso   1.000  C
  H232     1.0000 0.71780  0.53900  0.55300  Biso   1.000  H
  H233     1.0000 0.76750  0.52160  0.62070  Biso   1.000  H
  C125     1.0000 0.78540  0.51650  0.50750  Biso   1.000  C
  H234     1.0000 0.75130  0.49460  0.47500  Biso   1.000  H
  H235     1.0000 0.80080  0.45030  0.53560  Biso   1.000  H
  C126     1.0000 0.79270  0.62510  0.41950  Biso   1.000  C
  H236     1.0000 0.75860  0.60000  0.38880  Biso   1.000  H
  H237     1.0000 0.81350  0.63100  0.39430  Biso   1.000  H
  C127     1.0000 0.76330  0.81850  0.38690  Biso   1.000  C
  H238     1.0000 0.73210  0.78730  0.35210  Biso   1.000  H
  H239     1.0000 0.78630  0.83750  0.36610  Biso   1.000  H
  C128     1.0000 0.86890  0.56580  0.51140  Biso   1.000  C
  H240     1.0000 0.87460  0.56520  0.55860  Biso   1.000  H
  H241     1.0000 0.87540  0.64340  0.50140  Biso   1.000  H
  C129     1.0000 0.90023  0.51170  0.50830  Biso   1.000  C
  H242     1.0000 0.88570  0.43700  0.49170  Biso   1.000  H
  H243     1.0000 0.90950  0.54540  0.47430  Biso   1.000  H
  C130     1.0000 0.95520  0.49130  0.57890  Biso   1.000  C
  H244     1.0000 0.95740  0.41280  0.59280  Biso   1.000  H
  H245     1.0000 0.98410  0.50960  0.56950  Biso   1.000  H
  H246     1.0000 0.95530  0.53990  0.61440  Biso   1.000  H
  O17      1.0000 0.97970  0.96696  0.89690  Biso   1.000  O
  O18      1.0000 0.99885  0.12063  0.85442  Biso   1.000  O
  O19      1.0000 0.80985  0.83965  0.57364  Biso   1.000  O
  O20      1.0000 0.87509  0.83803  0.54651  Biso   1.000  O
  C131     1.0000 0.97955  0.02623  0.84974  Biso   1.000  C
  C132     1.0000 0.95018  0.97855  0.78106  Biso   1.000  C
  C133     1.0000 0.89801  0.97362  0.75893  Biso   1.000  C
  H247     1.0000 0.88330  0.99750  0.78750  Biso   1.000  H
  C134     1.0000 0.86736  0.93469  0.69629  Biso   1.000  C
  H248     1.0000 0.83190  0.93220  0.68210  Biso   1.000  H
  C135     1.0000 0.88854  0.89904  0.65396  Biso   1.000  C
  C136     1.0000 0.94057  0.90356  0.67586  Biso   1.000  C
  H249     1.0000 0.95500  0.87870  0.64720  Biso   1.000  H
  C137     1.0000 0.97229  0.94378  0.73902  Biso   1.000  C
  C138     1.0000 0.85546  0.85534  0.58568  Biso   1.000  C
  N39      1.0000 0.77280  0.60950  0.56210  Biso   1.000  N
  H250     1.0000 0.80700  0.62560  0.59780  Biso   1.000  H
  N40      1.0000 0.81035  0.51790  0.49430  Biso   1.000  N
  C139     1.0000 0.73820  0.60560  0.59230  Biso   1.000  C
  H251     1.0000 0.70610  0.57190  0.56100  Biso   1.000  H
  H252     1.0000 0.75230  0.55760  0.63230  Biso   1.000  H
  C140     1.0000 0.77690  0.50870  0.52670  Biso   1.000  C
  H253     1.0000 0.74290  0.48930  0.49290  Biso   1.000  H
  H254     1.0000 0.78850  0.44590  0.55870  Biso   1.000  H
  C141     1.0000 0.79310  0.58700  0.43580  Biso   1.000  C
  H255     1.0000 0.81540  0.57330  0.41340  Biso   1.000  H
  H256     1.0000 0.75900  0.56090  0.40540  Biso   1.000  H
  C142     1.0000 0.77180  0.77770  0.38830  Biso   1.000  C
  H257     1.0000 0.79640  0.78020  0.36860  Biso   1.000  H
  H258     1.0000 0.74030  0.74240  0.35630  Biso   1.000  H
  C143     1.0000 0.86388  0.53070  0.54060  Biso   1.000  C
  H259     1.0000 0.86480  0.53640  0.58550  Biso   1.000  H
  H260     1.0000 0.87450  0.60460  0.53090  Biso   1.000  H
  C144     1.0000 0.89570  0.46710  0.54480  Biso   1.000  C
  H261     1.0000 0.89870  0.41440  0.58070  Biso   1.000  H
  H262     1.0000 0.88190  0.42300  0.50330  Biso   1.000  H
  C145     1.0000 0.95330  0.49830  0.55780  Biso   1.000  C
  H263     1.0000 0.96300  0.56940  0.58200  Biso   1.000  H
  H264     1.0000 0.97610  0.43880  0.58400  Biso   1.000  H
  H265     1.0000 0.95550  0.50540  0.51520  Biso   1.000  H
  N41      1.0000 0.48682  0.33470  0.01199  Biso   1.000  N
  H266     1.0000 0.48670  0.32730  0.05670  Biso   1.000  H
  N42      1.0000 0.42709  0.54886  0.97677  Biso   1.000  N
  H267     1.0000 0.42350  0.55910  0.01920  Biso   1.000  H
  N43      1.0000 0.39570  0.35445  0.96312  Biso   1.000  N
  C146     1.0000 0.53131  0.27272  0.01416  Biso   1.000  C
  H268     1.0000 0.53330  0.19820  0.03470  Biso   1.000  H
  H269     1.0000 0.52860  0.26160  0.96870  Biso   1.000  H
  C147     1.0000 0.43792  0.29291  0.96308  Biso   1.000  C
  H270     1.0000 0.43440  0.21310  0.97260  Biso   1.000  H
  H271     1.0000 0.43730  0.29720  0.91830  Biso   1.000  H
  C148     1.0000 0.38871  0.46552  0.93553  Biso   1.000  C
  H272     1.0000 0.38930  0.46140  0.89140  Biso   1.000  H
  H273     1.0000 0.35500  0.49270  0.92890  Biso   1.000  H
  C149     1.0000 0.42197  0.65935  0.94527  Biso   1.000  C
  H274     1.0000 0.41850  0.65060  0.89930  Biso   1.000  H
  H275     1.0000 0.39160  0.69800  0.94380  Biso   1.000  H
  C150     1.0000 0.38744  0.34110  0.02367  Biso   1.000  C
  H276     1.0000 0.41020  0.28220  0.05180  Biso   1.000  H
  H277     1.0000 0.39600  0.41220  0.04900  Biso   1.000  H
  C151     1.0000 0.33365  0.31010  0.00844  Biso   1.000  C
  H278     1.0000 0.31060  0.36730  0.97880  Biso   1.000  H
  H279     1.0000 0.32540  0.23720  0.98510  Biso   1.000  H
  C152     1.0000 0.32590  0.30220  0.07212  Biso   1.000  C
  H280     1.0000 0.32830  0.37710  0.09120  Biso   1.000  H
  H281     1.0000 0.29260  0.27050  0.06200  Biso   1.000  H
  H282     1.0000 0.35190  0.25370  0.10400  Biso   1.000  H
  N44      1.0000 0.29015  0.22321  0.44498  Biso   1.000  N
  H283     1.0000 0.32520  0.25080  0.47140  Biso   1.000  H
  N45      1.0000 0.28050  0.10810  0.55050  Biso   1.000  N
  H284     1.0000 0.31500  0.12630  0.58500  Biso   1.000  H
  N46      1.0000 0.31472  0.04630  0.47260  Biso   1.000  N
  C153     1.0000 0.24910  0.07530  0.58460  Biso   1.000  C
  H285     1.0000 0.21780  0.03900  0.55300  Biso   1.000  H
  H286     1.0000 0.26750  0.02160  0.62070  Biso   1.000  H
  C154     1.0000 0.28540  0.01650  0.50750  Biso   1.000  C
  H287     1.0000 0.25130  0.99460  0.47500  Biso   1.000  H
  H288     1.0000 0.30080  0.95030  0.53560  Biso   1.000  H
  C155     1.0000 0.29270  0.12510  0.41950  Biso   1.000  C
  H289     1.0000 0.25860  0.10000  0.38880  Biso   1.000  H
  H290     1.0000 0.31350  0.13100  0.39430  Biso   1.000  H
  C156     1.0000 0.26330  0.31850  0.38690  Biso   1.000  C
  H291     1.0000 0.23210  0.28730  0.35210  Biso   1.000  H
  H292     1.0000 0.28630  0.33750  0.36610  Biso   1.000  H
  C157     1.0000 0.36890  0.06580  0.51140  Biso   1.000  C
  H293     1.0000 0.37460  0.06520  0.55860  Biso   1.000  H
  H294     1.0000 0.37540  0.14340  0.50140  Biso   1.000  H
  C158     1.0000 0.40023  0.01170  0.50830  Biso   1.000  C
  H295     1.0000 0.38570  0.93700  0.49170  Biso   1.000  H
  H296     1.0000 0.40950  0.04540  0.47430  Biso   1.000  H
  C159     1.0000 0.45520  0.99130  0.57890  Biso   1.000  C
  H297     1.0000 0.45740  0.91280  0.59280  Biso   1.000  H
  H298     1.0000 0.48410  0.00960  0.56950  Biso   1.000  H
  H299     1.0000 0.45530  0.03990  0.61440  Biso   1.000  H
  O21      1.0000 0.47970  0.46696  0.89690  Biso   1.000  O
  O22      1.0000 0.49885  0.62063  0.85442  Biso   1.000  O
  O23      1.0000 0.30985  0.33965  0.57364  Biso   1.000  O
  O24      1.0000 0.37509  0.33803  0.54651  Biso   1.000  O
  C160     1.0000 0.47955  0.52623  0.84974  Biso   1.000  C
  C161     1.0000 0.45018  0.47855  0.78106  Biso   1.000  C
  C162     1.0000 0.39801  0.47362  0.75893  Biso   1.000  C
  H300     1.0000 0.38330  0.49750  0.78750  Biso   1.000  H
  C163     1.0000 0.36736  0.43469  0.69629  Biso   1.000  C
  H301     1.0000 0.33190  0.43220  0.68210  Biso   1.000  H
  C164     1.0000 0.38854  0.39904  0.65396  Biso   1.000  C
  C165     1.0000 0.44057  0.40356  0.67586  Biso   1.000  C
  H302     1.0000 0.45500  0.37870  0.64720  Biso   1.000  H
  C166     1.0000 0.47229  0.44378  0.73902  Biso   1.000  C
  C167     1.0000 0.35546  0.35534  0.58568  Biso   1.000  C
  N47      1.0000 0.27280  0.10950  0.56210  Biso   1.000  N
  H303     1.0000 0.30700  0.12560  0.59780  Biso   1.000  H
  N48      1.0000 0.31035  0.01790  0.49430  Biso   1.000  N
  C168     1.0000 0.23820  0.10560  0.59230  Biso   1.000  C
  H304     1.0000 0.20610  0.07190  0.56100  Biso   1.000  H
  H305     1.0000 0.25230  0.05760  0.63230  Biso   1.000  H
  C169     1.0000 0.27690  0.00870  0.52670  Biso   1.000  C
  H306     1.0000 0.24290  0.98930  0.49290  Biso   1.000  H
  H307     1.0000 0.28850  0.94590  0.55870  Biso   1.000  H
  C170     1.0000 0.29310  0.08700  0.43580  Biso   1.000  C
  H308     1.0000 0.31540  0.07330  0.41340  Biso   1.000  H
  H309     1.0000 0.25900  0.06090  0.40540  Biso   1.000  H
  C171     1.0000 0.27180  0.27770  0.38830  Biso   1.000  C
  H310     1.0000 0.29640  0.28020  0.36860  Biso   1.000  H
  H311     1.0000 0.24030  0.24240  0.35630  Biso   1.000  H
  C172     1.0000 0.36388  0.03070  0.54060  Biso   1.000  C
  H312     1.0000 0.36480  0.03640  0.58550  Biso   1.000  H
  H313     1.0000 0.37450  0.10460  0.53090  Biso   1.000  H
  C173     1.0000 0.39570  0.96710  0.54480  Biso   1.000  C
  H314     1.0000 0.39870  0.91440  0.58070  Biso   1.000  H
  H315     1.0000 0.38190  0.92300  0.50330  Biso   1.000  H
  C174     1.0000 0.45330  0.99830  0.55780  Biso   1.000  C
  H316     1.0000 0.46300  0.06940  0.58200  Biso   1.000  H
  H317     1.0000 0.47610  0.93880  0.58400  Biso   1.000  H
  H318     1.0000 0.45550  0.00540  0.51520  Biso   1.000  H
  N49      1.0000 0.01318  0.83470  0.48801  Biso   1.000  N
  H319     1.0000 0.01330  0.82730  0.44330  Biso   1.000  H
  N50      1.0000 0.07291  0.04886  0.52323  Biso   1.000  N
  H320     1.0000 0.07650  0.05910  0.48080  Biso   1.000  H
  N51      1.0000 0.10430  0.85445  0.53688  Biso   1.000  N
  C175     1.0000 0.96869  0.77272  0.48584  Biso   1.000  C
  H321     1.0000 0.96670  0.69820  0.46530  Biso   1.000  H
  H322     1.0000 0.97140  0.76160  0.53130  Biso   1.000  H
  C176     1.0000 0.06208  0.79291  0.53692  Biso   1.000  C
  H323     1.0000 0.06560  0.71310  0.52740  Biso   1.000  H
  H324     1.0000 0.06270  0.79720  0.58170  Biso   1.000  H
  C177     1.0000 0.11129  0.96552  0.56447  Biso   1.000  C
  H325     1.0000 0.11070  0.96140  0.60860  Biso   1.000  H
  H326     1.0000 0.14500  0.99270  0.57110  Biso   1.000  H
  C178     1.0000 0.07803  0.15935  0.55473  Biso   1.000  C
  H327     1.0000 0.08150  0.15060  0.60070  Biso   1.000  H
  H328     1.0000 0.10840  0.19800  0.55620  Biso   1.000  H
  C179     1.0000 0.11256  0.84110  0.47633  Biso   1.000  C
  H329     1.0000 0.08980  0.78220  0.44820  Biso   1.000  H
  H330     1.0000 0.10400  0.91220  0.45100  Biso   1.000  H
  C180     1.0000 0.16635  0.81010  0.49156  Biso   1.000  C
  H331     1.0000 0.18940  0.86730  0.52120  Biso   1.000  H
  H332     1.0000 0.17460  0.73720  0.51490  Biso   1.000  H
  C181     1.0000 0.17410  0.80220  0.42788  Biso   1.000  C
  H333     1.0000 0.17170  0.87710  0.40880  Biso   1.000  H
  H334     1.0000 0.20740  0.77050  0.43800  Biso   1.000  H
  H335     1.0000 0.14810  0.75370  0.39600  Biso   1.000  H
  N52      1.0000 0.20985  0.72321  0.05502  Biso   1.000  N
  H336     1.0000 0.17480  0.75080  0.02860  Biso   1.000  H
  N53      1.0000 0.21950  0.60810  0.94950  Biso   1.000  N
  H337     1.0000 0.18500  0.62630  0.91500  Biso   1.000  H
  N54      1.0000 0.18528  0.54630  0.02740  Biso   1.000  N
  C182     1.0000 0.25090  0.57530  0.91540  Biso   1.000  C
  H338     1.0000 0.28220  0.53900  0.94700  Biso   1.000  H
  H339     1.0000 0.23250  0.52160  0.87930  Biso   1.000  H
  C183     1.0000 0.21460  0.51650  0.99250  Biso   1.000  C
  H340     1.0000 0.24870  0.49460  0.02500  Biso   1.000  H
  H341     1.0000 0.19920  0.45030  0.96440  Biso   1.000  H
  C184     1.0000 0.20730  0.62510  0.08050  Biso   1.000  C
  H342     1.0000 0.24140  0.60000  0.11120  Biso   1.000  H
  H343     1.0000 0.18650  0.63100  0.10570  Biso   1.000  H
  C185     1.0000 0.23670  0.81850  0.11310  Biso   1.000  C
  H344     1.0000 0.26790  0.78730  0.14790  Biso   1.000  H
  H345     1.0000 0.21370  0.83750  0.13390  Biso   1.000  H
  C186     1.0000 0.13110  0.56580  0.98860  Biso   1.000  C
  H346     1.0000 0.12540  0.56520  0.94140  Biso   1.000  H
  H347     1.0000 0.12460  0.64340  0.99860  Biso   1.000  H
  C187     1.0000 0.09977  0.51170  0.99170  Biso   1.000  C
  H348     1.0000 0.11430  0.43700  0.00830  Biso   1.000  H
  H349     1.0000 0.09050  0.54540  0.02570  Biso   1.000  H
  C188     1.0000 0.04480  0.49130  0.92110  Biso   1.000  C
  H350     1.0000 0.04260  0.41280  0.90720  Biso   1.000  H
  H351     1.0000 0.01590  0.50960  0.93050  Biso   1.000  H
  H352     1.0000 0.04470  0.53990  0.88560  Biso   1.000  H
  O25      1.0000 0.02030  0.96696  0.60310  Biso   1.000  O
  O26      1.0000 0.00115  0.12063  0.64558  Biso   1.000  O
  O27      1.0000 0.19015  0.83965  0.92636  Biso   1.000  O
  O28      1.0000 0.12491  0.83803  0.95349  Biso   1.000  O
  C189     1.0000 0.02045  0.02623  0.65026  Biso   1.000  C
  C190     1.0000 0.04982  0.97855  0.71894  Biso   1.000  C
  C191     1.0000 0.10199  0.97362  0.74107  Biso   1.000  C
  H353     1.0000 0.11670  0.99750  0.71250  Biso   1.000  H
  C192     1.0000 0.13264  0.93469  0.80371  Biso   1.000  C
  H354     1.0000 0.16810  0.93220  0.81790  Biso   1.000  H
  C193     1.0000 0.11146  0.89904  0.84604  Biso   1.000  C
  C194     1.0000 0.05943  0.90356  0.82414  Biso   1.000  C
  H355     1.0000 0.04500  0.87870  0.85280  Biso   1.000  H
  C195     1.0000 0.02771  0.94378  0.76098  Biso   1.000  C
  C196     1.0000 0.14454  0.85534  0.91432  Biso   1.000  C
  N55      1.0000 0.22720  0.60950  0.93790  Biso   1.000  N
  H356     1.0000 0.19300  0.62560  0.90220  Biso   1.000  H
  N56      1.0000 0.18965  0.51790  0.00570  Biso   1.000  N
  C197     1.0000 0.26180  0.60560  0.90770  Biso   1.000  C
  H357     1.0000 0.29390  0.57190  0.93900  Biso   1.000  H
  H358     1.0000 0.24770  0.55760  0.86770  Biso   1.000  H
  C198     1.0000 0.22310  0.50870  0.97330  Biso   1.000  C
  H359     1.0000 0.25710  0.48930  0.00710  Biso   1.000  H
  H360     1.0000 0.21150  0.44590  0.94130  Biso   1.000  H
  C199     1.0000 0.20690  0.58700  0.06420  Biso   1.000  C
  H361     1.0000 0.18460  0.57330  0.08660  Biso   1.000  H
  H362     1.0000 0.24100  0.56090  0.09460  Biso   1.000  H
  C200     1.0000 0.22820  0.77770  0.11170  Biso   1.000  C
  H363     1.0000 0.20360  0.78020  0.13140  Biso   1.000  H
  H364     1.0000 0.25970  0.74240  0.14370  Biso   1.000  H
  C201     1.0000 0.13612  0.53070  0.95940  Biso   1.000  C
  H365     1.0000 0.13520  0.53640  0.91450  Biso   1.000  H
  H366     1.0000 0.12550  0.60460  0.96910  Biso   1.000  H
  C202     1.0000 0.10430  0.46710  0.95520  Biso   1.000  C
  H367     1.0000 0.10130  0.41440  0.91930  Biso   1.000  H
  H368     1.0000 0.11810  0.42300  0.99670  Biso   1.000  H
  C203     1.0000 0.04670  0.49830  0.94220  Biso   1.000  C
  H369     1.0000 0.03700  0.56940  0.91800  Biso   1.000  H
  H370     1.0000 0.02390  0.43880  0.91600  Biso   1.000  H
  H371     1.0000 0.04450  0.50540  0.98480  Biso   1.000  H
  N57      1.0000 0.51318  0.33470  0.48801  Biso   1.000  N
  H372     1.0000 0.51330  0.32730  0.44330  Biso   1.000  H
  N58      1.0000 0.57291  0.54886  0.52323  Biso   1.000  N
  H373     1.0000 0.57650  0.55910  0.48080  Biso   1.000  H
  N59      1.0000 0.60430  0.35445  0.53688  Biso   1.000  N
  C204     1.0000 0.46869  0.27272  0.48584  Biso   1.000  C
  H374     1.0000 0.46670  0.19820  0.46530  Biso   1.000  H
  H375     1.0000 0.47140  0.26160  0.53130  Biso   1.000  H
  C205     1.0000 0.56208  0.29291  0.53692  Biso   1.000  C
  H376     1.0000 0.56560  0.21310  0.52740  Biso   1.000  H
  H377     1.0000 0.56270  0.29720  0.58170  Biso   1.000  H
  C206     1.0000 0.61129  0.46552  0.56447  Biso   1.000  C
  H378     1.0000 0.61070  0.46140  0.60860  Biso   1.000  H
  H379     1.0000 0.64500  0.49270  0.57110  Biso   1.000  H
  C207     1.0000 0.57803  0.65935  0.55473  Biso   1.000  C
  H380     1.0000 0.58150  0.65060  0.60070  Biso   1.000  H
  H381     1.0000 0.60840  0.69800  0.55620  Biso   1.000  H
  C208     1.0000 0.61256  0.34110  0.47633  Biso   1.000  C
  H382     1.0000 0.58980  0.28220  0.44820  Biso   1.000  H
  H383     1.0000 0.60400  0.41220  0.45100  Biso   1.000  H
  C209     1.0000 0.66635  0.31010  0.49156  Biso   1.000  C
  H384     1.0000 0.68940  0.36730  0.52120  Biso   1.000  H
  H385     1.0000 0.67460  0.23720  0.51490  Biso   1.000  H
  C210     1.0000 0.67410  0.30220  0.42788  Biso   1.000  C
  H386     1.0000 0.67170  0.37710  0.40880  Biso   1.000  H
  H387     1.0000 0.70740  0.27050  0.43800  Biso   1.000  H
  H388     1.0000 0.64810  0.25370  0.39600  Biso   1.000  H
  N60      1.0000 0.70985  0.22321  0.05502  Biso   1.000  N
  H389     1.0000 0.67480  0.25080  0.02860  Biso   1.000  H
  N61      1.0000 0.71950  0.10810  0.94950  Biso   1.000  N
  H390     1.0000 0.68500  0.12630  0.91500  Biso   1.000  H
  N62      1.0000 0.68528  0.04630  0.02740  Biso   1.000  N
  C211     1.0000 0.75090  0.07530  0.91540  Biso   1.000  C
  H391     1.0000 0.78220  0.03900  0.94700  Biso   1.000  H
  H392     1.0000 0.73250  0.02160  0.87930  Biso   1.000  H
  C212     1.0000 0.71460  0.01650  0.99250  Biso   1.000  C
  H393     1.0000 0.74870  0.99460  0.02500  Biso   1.000  H
  H394     1.0000 0.69920  0.95030  0.96440  Biso   1.000  H
  C213     1.0000 0.70730  0.12510  0.08050  Biso   1.000  C
  H395     1.0000 0.74140  0.10000  0.11120  Biso   1.000  H
  H396     1.0000 0.68650  0.13100  0.10570  Biso   1.000  H
  C214     1.0000 0.73670  0.31850  0.11310  Biso   1.000  C
  H397     1.0000 0.76790  0.28730  0.14790  Biso   1.000  H
  H398     1.0000 0.71370  0.33750  0.13390  Biso   1.000  H
  C215     1.0000 0.63110  0.06580  0.98860  Biso   1.000  C
  H399     1.0000 0.62540  0.06520  0.94140  Biso   1.000  H
  H400     1.0000 0.62460  0.14340  0.99860  Biso   1.000  H
  C216     1.0000 0.59977  0.01170  0.99170  Biso   1.000  C
  H401     1.0000 0.61430  0.93700  0.00830  Biso   1.000  H
  H402     1.0000 0.59050  0.04540  0.02570  Biso   1.000  H
  C217     1.0000 0.54480  0.99130  0.92110  Biso   1.000  C
  H403     1.0000 0.54260  0.91280  0.90720  Biso   1.000  H
  H404     1.0000 0.51590  0.00960  0.93050  Biso   1.000  H
  H405     1.0000 0.54470  0.03990  0.88560  Biso   1.000  H
  O29      1.0000 0.52030  0.46696  0.60310  Biso   1.000  O
  O30      1.0000 0.50115  0.62063  0.64558  Biso   1.000  O
  O31      1.0000 0.69015  0.33965  0.92636  Biso   1.000  O
  O32      1.0000 0.62491  0.33803  0.95349  Biso   1.000  O
  C218     1.0000 0.52045  0.52623  0.65026  Biso   1.000  C
  C219     1.0000 0.54982  0.47855  0.71894  Biso   1.000  C
  C220     1.0000 0.60199  0.47362  0.74107  Biso   1.000  C
  H406     1.0000 0.61670  0.49750  0.71250  Biso   1.000  H
  C221     1.0000 0.63264  0.43469  0.80371  Biso   1.000  C
  H407     1.0000 0.66810  0.43220  0.81790  Biso   1.000  H
  C222     1.0000 0.61146  0.39904  0.84604  Biso   1.000  C
  C223     1.0000 0.55943  0.40356  0.82414  Biso   1.000  C
  H408     1.0000 0.54500  0.37870  0.85280  Biso   1.000  H
  C224     1.0000 0.52771  0.44378  0.76098  Biso   1.000  C
  C225     1.0000 0.64454  0.35534  0.91432  Biso   1.000  C
  N63      1.0000 0.72720  0.10950  0.93790  Biso   1.000  N
  H409     1.0000 0.69300  0.12560  0.90220  Biso   1.000  H
  N64      1.0000 0.68965  0.01790  0.00570  Biso   1.000  N
  C226     1.0000 0.76180  0.10560  0.90770  Biso   1.000  C
  H410     1.0000 0.79390  0.07190  0.93900  Biso   1.000  H
  H411     1.0000 0.74770  0.05760  0.86770  Biso   1.000  H
  C227     1.0000 0.72310  0.00870  0.97330  Biso   1.000  C
  H412     1.0000 0.75710  0.98930  0.00710  Biso   1.000  H
  H413     1.0000 0.71150  0.94590  0.94130  Biso   1.000  H
  C228     1.0000 0.70690  0.08700  0.06420  Biso   1.000  C
  H414     1.0000 0.68460  0.07330  0.08660  Biso   1.000  H
  H415     1.0000 0.74100  0.06090  0.09460  Biso   1.000  H
  C229     1.0000 0.72820  0.27770  0.11170  Biso   1.000  C
  H416     1.0000 0.70360  0.28020  0.13140  Biso   1.000  H
  H417     1.0000 0.75970  0.24240  0.14370  Biso   1.000  H
  C230     1.0000 0.63612  0.03070  0.95940  Biso   1.000  C
  H418     1.0000 0.63520  0.03640  0.91450  Biso   1.000  H
  H419     1.0000 0.62550  0.10460  0.96910  Biso   1.000  H
  C231     1.0000 0.60430  0.96710  0.95520  Biso   1.000  C
  H420     1.0000 0.60130  0.91440  0.91930  Biso   1.000  H
  H421     1.0000 0.61810  0.92300  0.99670  Biso   1.000  H
  C232     1.0000 0.54670  0.99830  0.94220  Biso   1.000  C
  H422     1.0000 0.53700  0.06940  0.91800  Biso   1.000  H
  H423     1.0000 0.52390  0.93880  0.91600  Biso   1.000  H
  H424     1.0000 0.54450  0.00540  0.98480  Biso   1.000  H
  Ni1      1.0000 0.00000  0.00000  0.00000  Biso   1.000  Ni
  Ni2      1.0000 0.50000  0.50000  0.00000  Biso   1.000  Ni
  Ni3      1.0000 0.00000  0.00000  0.50000  Biso   1.000  Ni
  Ni4      1.0000 0.50000  0.50000  0.50000  Biso   1.000  Ni
  Ni5      1.0000 0.25000  0.25000  0.50000  Biso   1.000  Ni
  Ni6      1.0000 0.75000  0.25000  0.00000  Biso   1.000  Ni
  Ni7      1.0000 0.75000  0.75000  0.50000  Biso   1.000  Ni
  Ni8      1.0000 0.25000  0.75000  0.00000  Biso   1.000  Ni
