data_LAJKUE_charged
_audit_creation_date              2014-07-02
_audit_creation_method            'Materials Studio'
_symmetry_space_group_name_H-M    'P1'
_symmetry_Int_Tables_number       1
_symmetry_cell_setting            triclinic
loop_
_symmetry_equiv_pos_as_xyz
  x,y,z
_cell_length_a                    26.7325
_cell_length_b                    26.7325
_cell_length_c                    26.7325
_cell_angle_alpha                 109.4710
_cell_angle_beta                  109.4710
_cell_angle_gamma                 109.4710
loop_
_atom_site_label
_atom_site_type_symbol
_atom_site_fract_x
_atom_site_fract_y
_atom_site_fract_z
_atom_site_U_iso_or_equiv
_atom_site_adp_type
_atom_site_occupancy
Cs1    Cs    0.67858   0.00000   0.32142   0.01267  Uiso   1.00
Cs2    Cs    0.67858   0.35716   0.67858   0.01267  Uiso   1.00
Cs3    Cs    0.32142   1.00000   0.67858   0.01267  Uiso   1.00
Cs4    Cs    0.32142   0.64284   0.32142   0.01267  Uiso   1.00
Cs5    Cs    0.67858   0.32142  -0.00000   0.01267  Uiso   1.00
Cs6    Cs    0.32142   0.32142   0.64284   0.01267  Uiso   1.00
Cs7    Cs    0.32142   0.67858   0.00000   0.01267  Uiso   1.00
Cs8    Cs    0.67858   0.67858   0.35716   0.01267  Uiso   1.00
Cs9    Cs    0.35716   0.67858   0.67858   0.01267  Uiso   1.00
Cs10   Cs    1.00000   0.32142   0.67858   0.01267  Uiso   1.00
Cs11   Cs    0.64284   0.32142   0.32142   0.01267  Uiso   1.00
Cs12   Cs    0.00000   0.67858   0.32142   0.01267  Uiso   1.00
H1     H     0.45650   0.90970   0.12220   0.01267  Uiso   1.00
H2     H     0.52670   0.91970   0.23040   0.01267  Uiso   1.00
H3     H     0.55100   0.98920   0.17980   0.01267  Uiso   1.00
H4     H     0.62280   0.05030   0.31950   0.01267  Uiso   1.00
H5     H     0.52920   0.01740   0.28240   0.01267  Uiso   1.00
H6     H     0.54070   0.09010   0.22240   0.01267  Uiso   1.00
H7     H     0.48020   0.12720   0.15840   0.01267  Uiso   1.00
H8     H     0.41410   0.08710   0.18660   0.01267  Uiso   1.00
H9     H     0.37460   0.02350   0.12230   0.01267  Uiso   1.00
H10    H     0.59770   0.17820   0.29510   0.01267  Uiso   1.00
H11    H     0.62000   0.12690   0.35650   0.01267  Uiso   1.00
H12    H     0.64520   0.24840   0.39380   0.01267  Uiso   1.00
H13    H     0.61580   0.26970   0.49950   0.01267  Uiso   1.00
H14    H     0.55670   0.16990   0.40480   0.01267  Uiso   1.00
H15    H     0.57770   0.29080   0.40870   0.01267  Uiso   1.00
H16    H     0.48050   0.16980   0.33150   0.01267  Uiso   1.00
H17    H     0.48760   0.32400   0.32000   0.01267  Uiso   1.00
H18    H     0.44310   0.21520   0.26530   0.01267  Uiso   1.00
H19    H     0.43900   0.24150   0.32650   0.01267  Uiso   1.00
H20    H     0.78750   0.33430   0.87780   0.01267  Uiso   1.00
H21    H     0.68930   0.29630   0.76960   0.01267  Uiso   1.00
H22    H     0.80940   0.37120   0.82020   0.01267  Uiso   1.00
H23    H     0.73080   0.30330   0.68050   0.01267  Uiso   1.00
H24    H     0.73500   0.24680   0.71760   0.01267  Uiso   1.00
H25    H     0.86770   0.31830   0.77760   0.01267  Uiso   1.00
H26    H     0.96880   0.32180   0.84160   0.01267  Uiso   1.00
H27    H     0.90050   0.22750   0.81340   0.01267  Uiso   1.00
H28    H     0.90120   0.25230   0.87770   0.01267  Uiso   1.00
H29    H     0.88310   0.30260   0.70490   0.01267  Uiso   1.00
H30    H     0.77040   0.26350   0.64350   0.01267  Uiso   1.00
H31    H     0.85460   0.25140   0.60620   0.01267  Uiso   1.00
H32    H     0.77020   0.11630   0.50050   0.01267  Uiso   1.00
H33    H     0.76510   0.15190   0.59520   0.01267  Uiso   1.00
H34    H     0.88210   0.16900   0.59130   0.01267  Uiso   1.00
H35    H     0.83830   0.14900   0.66850   0.01267  Uiso   1.00
H36    H     0.00400   0.16760   0.68000   0.01267  Uiso   1.00
H37    H     0.94990   0.17780   0.73470   0.01267  Uiso   1.00
H38    H     0.91500   0.11250   0.67350   0.01267  Uiso   1.00
H39    H     0.21250   0.09030   0.54680   0.01267  Uiso   1.00
H40    H     0.31070   0.08030   0.60700   0.01267  Uiso   1.00
H41    H     0.19060   0.01080   0.56180   0.01267  Uiso   1.00
H42    H     0.26920   0.94970   0.57250   0.01267  Uiso   1.00
H43    H     0.26500   0.98260   0.51180   0.01267  Uiso   1.00
H44    H     0.13230   0.90990   0.45060   0.01267  Uiso   1.00
H45    H     0.03120   0.87280   0.35300   0.01267  Uiso   1.00
H46    H     0.09950   0.91290   0.32700   0.01267  Uiso   1.00
H47    H     0.09880   0.97650   0.35110   0.01267  Uiso   1.00
H48    H     0.11690   0.82180   0.41950   0.01267  Uiso   1.00
H49    H     0.22960   0.87310   0.49310   0.01267  Uiso   1.00
H50    H     0.14540   0.75160   0.39680   0.01267  Uiso   1.00
H51    H     0.22980   0.73030   0.34610   0.01267  Uiso   1.00
H52    H     0.23490   0.83010   0.38680   0.01267  Uiso   1.00
H53    H     0.11790   0.70920   0.28690   0.01267  Uiso   1.00
H54    H     0.16170   0.83020   0.31070   0.01267  Uiso   1.00
H55    H     0.99600   0.67600   0.16360   0.01267  Uiso   1.00
H56    H     0.05010   0.78480   0.22790   0.01267  Uiso   1.00
H57    H     0.08500   0.75850   0.19750   0.01267  Uiso   1.00
H58    H     0.54350   0.66570   0.45320   0.01267  Uiso   1.00
H59    H     0.47330   0.70370   0.39300   0.01267  Uiso   1.00
H60    H     0.44900   0.62880   0.43820   0.01267  Uiso   1.00
H61    H     0.37720   0.69670   0.42750   0.01267  Uiso   1.00
H62    H     0.47080   0.75320   0.48820   0.01267  Uiso   1.00
H63    H     0.45930   0.68170   0.54940   0.01267  Uiso   1.00
H64    H     0.51980   0.67820   0.64700   0.01267  Uiso   1.00
H65    H     0.58590   0.77250   0.67300   0.01267  Uiso   1.00
H66    H     0.62540   0.74770   0.64890   0.01267  Uiso   1.00
H67    H     0.40230   0.69740   0.58050   0.01267  Uiso   1.00
H68    H     0.38000   0.73650   0.50690   0.01267  Uiso   1.00
H69    H     0.35480   0.74860   0.60320   0.01267  Uiso   1.00
H70    H     0.38420   0.88370   0.65390   0.01267  Uiso   1.00
H71    H     0.44330   0.84810   0.61320   0.01267  Uiso   1.00
H72    H     0.42230   0.83100   0.71310   0.01267  Uiso   1.00
H73    H     0.51950   0.85100   0.68930   0.01267  Uiso   1.00
H74    H     0.51240   0.83240   0.83640   0.01267  Uiso   1.00
H75    H     0.55690   0.82220   0.77210   0.01267  Uiso   1.00
H76    H     0.56100   0.88750   0.80250   0.01267  Uiso   1.00
H77    H     0.54680   0.21250   0.09030   0.01267  Uiso   1.00
H78    H     0.60700   0.31070   0.08030   0.01267  Uiso   1.00
H79    H     0.56180   0.19060   0.01080   0.01267  Uiso   1.00
H80    H     0.57250   0.26920   0.94970   0.01267  Uiso   1.00
H81    H     0.51180   0.26500   0.98260   0.01267  Uiso   1.00
H82    H     0.45060   0.13230   0.90990   0.01267  Uiso   1.00
H83    H     0.35300   0.03120   0.87280   0.01267  Uiso   1.00
H84    H     0.32700   0.09950   0.91290   0.01267  Uiso   1.00
H85    H     0.35110   0.09880   0.97650   0.01267  Uiso   1.00
H86    H     0.41950   0.11690   0.82180   0.01267  Uiso   1.00
H87    H     0.49310   0.22960   0.87310   0.01267  Uiso   1.00
H88    H     0.39680   0.14540   0.75160   0.01267  Uiso   1.00
H89    H     0.34610   0.22980   0.73030   0.01267  Uiso   1.00
H90    H     0.38680   0.23490   0.83010   0.01267  Uiso   1.00
H91    H     0.28690   0.11790   0.70920   0.01267  Uiso   1.00
H92    H     0.31070   0.16170   0.83020   0.01267  Uiso   1.00
H93    H     0.16360   0.99600   0.67600   0.01267  Uiso   1.00
H94    H     0.22790   0.05010   0.78480   0.01267  Uiso   1.00
H95    H     0.19750   0.08500   0.75850   0.01267  Uiso   1.00
H96    H     0.45320   0.54350   0.66570   0.01267  Uiso   1.00
H97    H     0.39300   0.47330   0.70370   0.01267  Uiso   1.00
H98    H     0.43820   0.44900   0.62880   0.01267  Uiso   1.00
H99    H     0.42750   0.37720   0.69670   0.01267  Uiso   1.00
H100   H     0.48820   0.47080   0.75320   0.01267  Uiso   1.00
H101   H     0.54940   0.45930   0.68170   0.01267  Uiso   1.00
H102   H     0.64700   0.51980   0.67820   0.01267  Uiso   1.00
H103   H     0.67300   0.58590   0.77250   0.01267  Uiso   1.00
H104   H     0.64890   0.62540   0.74770   0.01267  Uiso   1.00
H105   H     0.58050   0.40230   0.69740   0.01267  Uiso   1.00
H106   H     0.50690   0.38000   0.73650   0.01267  Uiso   1.00
H107   H     0.60320   0.35480   0.74860   0.01267  Uiso   1.00
H108   H     0.65390   0.38420   0.88370   0.01267  Uiso   1.00
H109   H     0.61320   0.44330   0.84810   0.01267  Uiso   1.00
H110   H     0.71310   0.42230   0.83100   0.01267  Uiso   1.00
H111   H     0.68930   0.51950   0.85100   0.01267  Uiso   1.00
H112   H     0.83640   0.51240   0.83240   0.01267  Uiso   1.00
H113   H     0.77210   0.55690   0.82220   0.01267  Uiso   1.00
H114   H     0.80250   0.56100   0.88750   0.01267  Uiso   1.00
H115   H     0.12220   0.45650   0.90970   0.01267  Uiso   1.00
H116   H     0.23040   0.52670   0.91970   0.01267  Uiso   1.00
H117   H     0.17980   0.55100   0.98920   0.01267  Uiso   1.00
H118   H     0.31950   0.62280   0.05030   0.01267  Uiso   1.00
H119   H     0.28240   0.52920   0.01740   0.01267  Uiso   1.00
H120   H     0.22240   0.54070   0.09010   0.01267  Uiso   1.00
H121   H     0.15840   0.48020   0.12720   0.01267  Uiso   1.00
H122   H     0.18660   0.41410   0.08710   0.01267  Uiso   1.00
H123   H     0.12230   0.37460   0.02350   0.01267  Uiso   1.00
H124   H     0.29510   0.59770   0.17820   0.01267  Uiso   1.00
H125   H     0.35650   0.62000   0.12690   0.01267  Uiso   1.00
H126   H     0.39380   0.64520   0.24840   0.01267  Uiso   1.00
H127   H     0.49950   0.61580   0.26970   0.01267  Uiso   1.00
H128   H     0.40480   0.55670   0.16990   0.01267  Uiso   1.00
H129   H     0.40870   0.57770   0.29080   0.01267  Uiso   1.00
H130   H     0.33150   0.48050   0.16980   0.01267  Uiso   1.00
H131   H     0.32000   0.48760   0.32400   0.01267  Uiso   1.00
H132   H     0.26530   0.44310   0.21520   0.01267  Uiso   1.00
H133   H     0.32650   0.43900   0.24150   0.01267  Uiso   1.00
H134   H     0.87780   0.78750   0.33430   0.01267  Uiso   1.00
H135   H     0.76960   0.68930   0.29630   0.01267  Uiso   1.00
H136   H     0.82020   0.80940   0.37120   0.01267  Uiso   1.00
H137   H     0.68050   0.73080   0.30330   0.01267  Uiso   1.00
H138   H     0.71760   0.73500   0.24680   0.01267  Uiso   1.00
H139   H     0.77760   0.86770   0.31830   0.01267  Uiso   1.00
H140   H     0.84160   0.96880   0.32180   0.01267  Uiso   1.00
H141   H     0.81340   0.90050   0.22750   0.01267  Uiso   1.00
H142   H     0.87770   0.90120   0.25230   0.01267  Uiso   1.00
H143   H     0.70490   0.88310   0.30260   0.01267  Uiso   1.00
H144   H     0.64350   0.77040   0.26350   0.01267  Uiso   1.00
H145   H     0.60620   0.85460   0.25140   0.01267  Uiso   1.00
H146   H     0.50050   0.77020   0.11630   0.01267  Uiso   1.00
H147   H     0.59520   0.76510   0.15190   0.01267  Uiso   1.00
H148   H     0.59130   0.88210   0.16900   0.01267  Uiso   1.00
H149   H     0.66850   0.83830   0.14900   0.01267  Uiso   1.00
H150   H     0.68000   0.00400   0.16760   0.01267  Uiso   1.00
H151   H     0.73470   0.94990   0.17780   0.01267  Uiso   1.00
H152   H     0.67350   0.91500   0.11250   0.01267  Uiso   1.00
H153   H     0.33430   0.87780   0.78750   0.01267  Uiso   1.00
H154   H     0.29630   0.76960   0.68930   0.01267  Uiso   1.00
H155   H     0.37120   0.82020   0.80940   0.01267  Uiso   1.00
H156   H     0.30330   0.68050   0.73080   0.01267  Uiso   1.00
H157   H     0.24680   0.71760   0.73500   0.01267  Uiso   1.00
H158   H     0.31830   0.77760   0.86770   0.01267  Uiso   1.00
H159   H     0.32180   0.84160   0.96880   0.01267  Uiso   1.00
H160   H     0.22750   0.81340   0.90050   0.01267  Uiso   1.00
H161   H     0.25230   0.87770   0.90120   0.01267  Uiso   1.00
H162   H     0.30260   0.70490   0.88310   0.01267  Uiso   1.00
H163   H     0.26350   0.64350   0.77040   0.01267  Uiso   1.00
H164   H     0.25140   0.60620   0.85460   0.01267  Uiso   1.00
H165   H     0.11630   0.50050   0.77020   0.01267  Uiso   1.00
H166   H     0.15190   0.59520   0.76510   0.01267  Uiso   1.00
H167   H     0.16900   0.59130   0.88210   0.01267  Uiso   1.00
H168   H     0.14900   0.66850   0.83830   0.01267  Uiso   1.00
H169   H     0.16760   0.68000   0.00400   0.01267  Uiso   1.00
H170   H     0.17780   0.73470   0.94990   0.01267  Uiso   1.00
H171   H     0.11250   0.67350   0.91500   0.01267  Uiso   1.00
H172   H     0.90970   0.12220   0.45650   0.01267  Uiso   1.00
H173   H     0.91970   0.23040   0.52670   0.01267  Uiso   1.00
H174   H     0.98920   0.17980   0.55100   0.01267  Uiso   1.00
H175   H     0.05030   0.31950   0.62280   0.01267  Uiso   1.00
H176   H     0.01740   0.28240   0.52920   0.01267  Uiso   1.00
H177   H     0.09010   0.22240   0.54070   0.01267  Uiso   1.00
H178   H     0.12720   0.15840   0.48020   0.01267  Uiso   1.00
H179   H     0.08710   0.18660   0.41410   0.01267  Uiso   1.00
H180   H     0.02350   0.12230   0.37460   0.01267  Uiso   1.00
H181   H     0.17820   0.29510   0.59770   0.01267  Uiso   1.00
H182   H     0.12690   0.35650   0.62000   0.01267  Uiso   1.00
H183   H     0.24840   0.39380   0.64520   0.01267  Uiso   1.00
H184   H     0.26970   0.49950   0.61580   0.01267  Uiso   1.00
H185   H     0.16990   0.40480   0.55670   0.01267  Uiso   1.00
H186   H     0.29080   0.40870   0.57770   0.01267  Uiso   1.00
H187   H     0.16980   0.33150   0.48050   0.01267  Uiso   1.00
H188   H     0.32400   0.32000   0.48760   0.01267  Uiso   1.00
H189   H     0.21520   0.26530   0.44310   0.01267  Uiso   1.00
H190   H     0.24150   0.32650   0.43900   0.01267  Uiso   1.00
H191   H     0.66570   0.45320   0.54350   0.01267  Uiso   1.00
H192   H     0.70370   0.39300   0.47330   0.01267  Uiso   1.00
H193   H     0.62880   0.43820   0.44900   0.01267  Uiso   1.00
H194   H     0.69670   0.42750   0.37720   0.01267  Uiso   1.00
H195   H     0.75320   0.48820   0.47080   0.01267  Uiso   1.00
H196   H     0.68170   0.54940   0.45930   0.01267  Uiso   1.00
H197   H     0.67820   0.64700   0.51980   0.01267  Uiso   1.00
H198   H     0.77250   0.67300   0.58590   0.01267  Uiso   1.00
H199   H     0.74770   0.64890   0.62540   0.01267  Uiso   1.00
H200   H     0.69740   0.58050   0.40230   0.01267  Uiso   1.00
H201   H     0.73650   0.50690   0.38000   0.01267  Uiso   1.00
H202   H     0.74860   0.60320   0.35480   0.01267  Uiso   1.00
H203   H     0.88370   0.65390   0.38420   0.01267  Uiso   1.00
H204   H     0.84810   0.61320   0.44330   0.01267  Uiso   1.00
H205   H     0.83100   0.71310   0.42230   0.01267  Uiso   1.00
H206   H     0.85100   0.68930   0.51950   0.01267  Uiso   1.00
H207   H     0.83240   0.83640   0.51240   0.01267  Uiso   1.00
H208   H     0.82220   0.77210   0.55690   0.01267  Uiso   1.00
H209   H     0.88750   0.80250   0.56100   0.01267  Uiso   1.00
H210   H     0.09030   0.54680   0.21250   0.01267  Uiso   1.00
H211   H     0.08030   0.60700   0.31070   0.01267  Uiso   1.00
H212   H     0.01080   0.56180   0.19060   0.01267  Uiso   1.00
H213   H     0.94970   0.57250   0.26920   0.01267  Uiso   1.00
H214   H     0.98260   0.51180   0.26500   0.01267  Uiso   1.00
H215   H     0.90990   0.45060   0.13230   0.01267  Uiso   1.00
H216   H     0.87280   0.35300   0.03120   0.01267  Uiso   1.00
H217   H     0.91290   0.32700   0.09950   0.01267  Uiso   1.00
H218   H     0.97650   0.35110   0.09880   0.01267  Uiso   1.00
H219   H     0.82180   0.41950   0.11690   0.01267  Uiso   1.00
H220   H     0.87310   0.49310   0.22960   0.01267  Uiso   1.00
H221   H     0.75160   0.39680   0.14540   0.01267  Uiso   1.00
H222   H     0.73030   0.34610   0.22980   0.01267  Uiso   1.00
H223   H     0.83010   0.38680   0.23490   0.01267  Uiso   1.00
H224   H     0.70920   0.28690   0.11790   0.01267  Uiso   1.00
H225   H     0.83020   0.31070   0.16170   0.01267  Uiso   1.00
H226   H     0.67600   0.16360   0.99600   0.01267  Uiso   1.00
H227   H     0.78480   0.22790   0.05010   0.01267  Uiso   1.00
H228   H     0.75850   0.19750   0.08500   0.01267  Uiso   1.00
H229   H     0.09030   0.54350   0.87780   0.01267  Uiso   1.00
H230   H     0.08030   0.47330   0.76960   0.01267  Uiso   1.00
H231   H     0.01080   0.44900   0.82020   0.01267  Uiso   1.00
H232   H     0.94970   0.37720   0.68050   0.01267  Uiso   1.00
H233   H     0.98260   0.47080   0.71760   0.01267  Uiso   1.00
H234   H     0.90990   0.45930   0.77760   0.01267  Uiso   1.00
H235   H     0.87280   0.51980   0.84160   0.01267  Uiso   1.00
H236   H     0.91290   0.58590   0.81340   0.01267  Uiso   1.00
H237   H     0.97650   0.62540   0.87770   0.01267  Uiso   1.00
H238   H     0.82180   0.40230   0.70490   0.01267  Uiso   1.00
H239   H     0.87310   0.38000   0.64350   0.01267  Uiso   1.00
H240   H     0.75160   0.35480   0.60620   0.01267  Uiso   1.00
H241   H     0.73030   0.38420   0.50050   0.01267  Uiso   1.00
H242   H     0.83010   0.44330   0.59520   0.01267  Uiso   1.00
H243   H     0.70920   0.42230   0.59130   0.01267  Uiso   1.00
H244   H     0.83020   0.51950   0.66850   0.01267  Uiso   1.00
H245   H     0.67600   0.51240   0.68000   0.01267  Uiso   1.00
H246   H     0.78480   0.55690   0.73470   0.01267  Uiso   1.00
H247   H     0.75850   0.56100   0.67350   0.01267  Uiso   1.00
H248   H     0.66570   0.21250   0.12220   0.01267  Uiso   1.00
H249   H     0.70370   0.31070   0.23040   0.01267  Uiso   1.00
H250   H     0.62880   0.19060   0.17980   0.01267  Uiso   1.00
H251   H     0.69670   0.26920   0.31950   0.01267  Uiso   1.00
H252   H     0.75320   0.26500   0.28240   0.01267  Uiso   1.00
H253   H     0.68170   0.13230   0.22240   0.01267  Uiso   1.00
H254   H     0.67820   0.03120   0.15840   0.01267  Uiso   1.00
H255   H     0.77250   0.09950   0.18660   0.01267  Uiso   1.00
H256   H     0.74770   0.09880   0.12230   0.01267  Uiso   1.00
H257   H     0.69740   0.11690   0.29510   0.01267  Uiso   1.00
H258   H     0.73650   0.22960   0.35650   0.01267  Uiso   1.00
H259   H     0.74860   0.14540   0.39380   0.01267  Uiso   1.00
H260   H     0.88370   0.22980   0.49950   0.01267  Uiso   1.00
H261   H     0.84810   0.23490   0.40480   0.01267  Uiso   1.00
H262   H     0.83100   0.11790   0.40870   0.01267  Uiso   1.00
H263   H     0.85100   0.16170   0.33150   0.01267  Uiso   1.00
H264   H     0.83240   0.99600   0.32000   0.01267  Uiso   1.00
H265   H     0.82220   0.05010   0.26530   0.01267  Uiso   1.00
H266   H     0.88750   0.08500   0.32650   0.01267  Uiso   1.00
H267   H     0.90970   0.78750   0.45320   0.01267  Uiso   1.00
H268   H     0.91970   0.68930   0.39300   0.01267  Uiso   1.00
H269   H     0.98920   0.80940   0.43820   0.01267  Uiso   1.00
H270   H     0.05030   0.73080   0.42750   0.01267  Uiso   1.00
H271   H     0.01740   0.73500   0.48820   0.01267  Uiso   1.00
H272   H     0.09010   0.86770   0.54940   0.01267  Uiso   1.00
H273   H     0.12720   0.96880   0.64700   0.01267  Uiso   1.00
H274   H     0.08710   0.90050   0.67300   0.01267  Uiso   1.00
H275   H     0.02350   0.90120   0.64890   0.01267  Uiso   1.00
H276   H     0.17820   0.88310   0.58050   0.01267  Uiso   1.00
H277   H     0.12690   0.77040   0.50690   0.01267  Uiso   1.00
H278   H     0.24840   0.85460   0.60320   0.01267  Uiso   1.00
H279   H     0.26970   0.77020   0.65390   0.01267  Uiso   1.00
H280   H     0.16990   0.76510   0.61320   0.01267  Uiso   1.00
H281   H     0.29080   0.88210   0.71310   0.01267  Uiso   1.00
H282   H     0.16980   0.83830   0.68930   0.01267  Uiso   1.00
H283   H     0.32400   0.00400   0.83640   0.01267  Uiso   1.00
H284   H     0.21520   0.94990   0.77210   0.01267  Uiso   1.00
H285   H     0.24150   0.91500   0.80250   0.01267  Uiso   1.00
H286   H     0.33430   0.45650   0.54680   0.01267  Uiso   1.00
H287   H     0.29630   0.52670   0.60700   0.01267  Uiso   1.00
H288   H     0.37120   0.55100   0.56180   0.01267  Uiso   1.00
H289   H     0.30330   0.62280   0.57250   0.01267  Uiso   1.00
H290   H     0.24680   0.52920   0.51180   0.01267  Uiso   1.00
H291   H     0.31830   0.54070   0.45060   0.01267  Uiso   1.00
H292   H     0.32180   0.48020   0.35300   0.01267  Uiso   1.00
H293   H     0.22750   0.41410   0.32700   0.01267  Uiso   1.00
H294   H     0.25230   0.37460   0.35110   0.01267  Uiso   1.00
H295   H     0.30260   0.59770   0.41950   0.01267  Uiso   1.00
H296   H     0.26350   0.62000   0.49310   0.01267  Uiso   1.00
H297   H     0.25140   0.64520   0.39680   0.01267  Uiso   1.00
H298   H     0.11630   0.61580   0.34610   0.01267  Uiso   1.00
H299   H     0.15190   0.55670   0.38680   0.01267  Uiso   1.00
H300   H     0.16900   0.57770   0.28690   0.01267  Uiso   1.00
H301   H     0.14900   0.48050   0.31070   0.01267  Uiso   1.00
H302   H     0.16760   0.48760   0.16360   0.01267  Uiso   1.00
H303   H     0.17780   0.44310   0.22790   0.01267  Uiso   1.00
H304   H     0.11250   0.43900   0.19750   0.01267  Uiso   1.00
H305   H     0.78750   0.45320   0.90970   0.01267  Uiso   1.00
H306   H     0.68930   0.39300   0.91970   0.01267  Uiso   1.00
H307   H     0.80940   0.43820   0.98920   0.01267  Uiso   1.00
H308   H     0.73080   0.42750   0.05030   0.01267  Uiso   1.00
H309   H     0.73500   0.48820   0.01740   0.01267  Uiso   1.00
H310   H     0.86770   0.54940   0.09010   0.01267  Uiso   1.00
H311   H     0.96880   0.64700   0.12720   0.01267  Uiso   1.00
H312   H     0.90050   0.67300   0.08710   0.01267  Uiso   1.00
H313   H     0.90120   0.64890   0.02350   0.01267  Uiso   1.00
H314   H     0.88310   0.58050   0.17820   0.01267  Uiso   1.00
H315   H     0.77040   0.50690   0.12690   0.01267  Uiso   1.00
H316   H     0.85460   0.60320   0.24840   0.01267  Uiso   1.00
H317   H     0.77020   0.65390   0.26970   0.01267  Uiso   1.00
H318   H     0.76510   0.61320   0.16990   0.01267  Uiso   1.00
H319   H     0.88210   0.71310   0.29080   0.01267  Uiso   1.00
H320   H     0.83830   0.68930   0.16980   0.01267  Uiso   1.00
H321   H     0.00400   0.83640   0.32400   0.01267  Uiso   1.00
H322   H     0.94990   0.77210   0.21520   0.01267  Uiso   1.00
H323   H     0.91500   0.80250   0.24150   0.01267  Uiso   1.00
H324   H     0.45650   0.54680   0.33430   0.01267  Uiso   1.00
H325   H     0.52670   0.60700   0.29630   0.01267  Uiso   1.00
H326   H     0.55100   0.56180   0.37120   0.01267  Uiso   1.00
H327   H     0.62280   0.57250   0.30330   0.01267  Uiso   1.00
H328   H     0.52920   0.51180   0.24680   0.01267  Uiso   1.00
H329   H     0.54070   0.45060   0.31830   0.01267  Uiso   1.00
H330   H     0.48020   0.35300   0.32180   0.01267  Uiso   1.00
H331   H     0.41410   0.32700   0.22750   0.01267  Uiso   1.00
H332   H     0.37460   0.35110   0.25230   0.01267  Uiso   1.00
H333   H     0.59770   0.41950   0.30260   0.01267  Uiso   1.00
H334   H     0.62000   0.49310   0.26350   0.01267  Uiso   1.00
H335   H     0.64520   0.39680   0.25140   0.01267  Uiso   1.00
H336   H     0.61580   0.34610   0.11630   0.01267  Uiso   1.00
H337   H     0.55670   0.38680   0.15190   0.01267  Uiso   1.00
H338   H     0.57770   0.28690   0.16900   0.01267  Uiso   1.00
H339   H     0.48050   0.31070   0.14900   0.01267  Uiso   1.00
H340   H     0.48760   0.16360   0.16760   0.01267  Uiso   1.00
H341   H     0.44310   0.22790   0.17780   0.01267  Uiso   1.00
H342   H     0.43900   0.19750   0.11250   0.01267  Uiso   1.00
H343   H     0.54350   0.87780   0.09030   0.01267  Uiso   1.00
H344   H     0.47330   0.76960   0.08030   0.01267  Uiso   1.00
H345   H     0.44900   0.82020   0.01080   0.01267  Uiso   1.00
H346   H     0.37720   0.68050   0.94970   0.01267  Uiso   1.00
H347   H     0.47080   0.71760   0.98260   0.01267  Uiso   1.00
H348   H     0.45930   0.77760   0.90990   0.01267  Uiso   1.00
H349   H     0.51980   0.84160   0.87280   0.01267  Uiso   1.00
H350   H     0.58590   0.81340   0.91290   0.01267  Uiso   1.00
H351   H     0.62540   0.87770   0.97650   0.01267  Uiso   1.00
H352   H     0.40230   0.70490   0.82180   0.01267  Uiso   1.00
H353   H     0.38000   0.64350   0.87310   0.01267  Uiso   1.00
H354   H     0.35480   0.60620   0.75160   0.01267  Uiso   1.00
H355   H     0.38420   0.50050   0.73030   0.01267  Uiso   1.00
H356   H     0.44330   0.59520   0.83010   0.01267  Uiso   1.00
H357   H     0.42230   0.59130   0.70920   0.01267  Uiso   1.00
H358   H     0.51950   0.66850   0.83020   0.01267  Uiso   1.00
H359   H     0.51240   0.68000   0.67600   0.01267  Uiso   1.00
H360   H     0.55690   0.73470   0.78480   0.01267  Uiso   1.00
H361   H     0.56100   0.67350   0.75850   0.01267  Uiso   1.00
H362   H     0.21250   0.12220   0.66570   0.01267  Uiso   1.00
H363   H     0.31070   0.23040   0.70370   0.01267  Uiso   1.00
H364   H     0.19060   0.17980   0.62880   0.01267  Uiso   1.00
H365   H     0.26920   0.31950   0.69670   0.01267  Uiso   1.00
H366   H     0.26500   0.28240   0.75320   0.01267  Uiso   1.00
H367   H     0.13230   0.22240   0.68170   0.01267  Uiso   1.00
H368   H     0.03120   0.15840   0.67820   0.01267  Uiso   1.00
H369   H     0.09950   0.18660   0.77250   0.01267  Uiso   1.00
H370   H     0.09880   0.12230   0.74770   0.01267  Uiso   1.00
H371   H     0.11690   0.29510   0.69740   0.01267  Uiso   1.00
H372   H     0.22960   0.35650   0.73650   0.01267  Uiso   1.00
H373   H     0.14540   0.39380   0.74860   0.01267  Uiso   1.00
H374   H     0.22980   0.49950   0.88370   0.01267  Uiso   1.00
H375   H     0.23490   0.40480   0.84810   0.01267  Uiso   1.00
H376   H     0.11790   0.40870   0.83100   0.01267  Uiso   1.00
H377   H     0.16170   0.33150   0.85100   0.01267  Uiso   1.00
H378   H     0.99600   0.32000   0.83240   0.01267  Uiso   1.00
H379   H     0.05010   0.26530   0.82220   0.01267  Uiso   1.00
H380   H     0.08500   0.32650   0.88750   0.01267  Uiso   1.00
H381   H     0.12220   0.66570   0.21250   0.01267  Uiso   1.00
H382   H     0.23040   0.70370   0.31070   0.01267  Uiso   1.00
H383   H     0.17980   0.62880   0.19060   0.01267  Uiso   1.00
H384   H     0.31950   0.69670   0.26920   0.01267  Uiso   1.00
H385   H     0.28240   0.75320   0.26500   0.01267  Uiso   1.00
H386   H     0.22240   0.68170   0.13230   0.01267  Uiso   1.00
H387   H     0.15840   0.67820   0.03120   0.01267  Uiso   1.00
H388   H     0.18660   0.77250   0.09950   0.01267  Uiso   1.00
H389   H     0.12230   0.74770   0.09880   0.01267  Uiso   1.00
H390   H     0.29510   0.69740   0.11690   0.01267  Uiso   1.00
H391   H     0.35650   0.73650   0.22960   0.01267  Uiso   1.00
H392   H     0.39380   0.74860   0.14540   0.01267  Uiso   1.00
H393   H     0.49950   0.88370   0.22980   0.01267  Uiso   1.00
H394   H     0.40480   0.84810   0.23490   0.01267  Uiso   1.00
H395   H     0.40870   0.83100   0.11790   0.01267  Uiso   1.00
H396   H     0.33150   0.85100   0.16170   0.01267  Uiso   1.00
H397   H     0.32000   0.83240   0.99600   0.01267  Uiso   1.00
H398   H     0.26530   0.82220   0.05010   0.01267  Uiso   1.00
H399   H     0.32650   0.88750   0.08500   0.01267  Uiso   1.00
H400   H     0.87780   0.09030   0.54350   0.01267  Uiso   1.00
H401   H     0.76960   0.08030   0.47330   0.01267  Uiso   1.00
H402   H     0.82020   0.01080   0.44900   0.01267  Uiso   1.00
H403   H     0.68050   0.94970   0.37720   0.01267  Uiso   1.00
H404   H     0.71760   0.98260   0.47080   0.01267  Uiso   1.00
H405   H     0.77760   0.90990   0.45930   0.01267  Uiso   1.00
H406   H     0.84160   0.87280   0.51980   0.01267  Uiso   1.00
H407   H     0.81340   0.91290   0.58590   0.01267  Uiso   1.00
H408   H     0.87770   0.97650   0.62540   0.01267  Uiso   1.00
H409   H     0.70490   0.82180   0.40230   0.01267  Uiso   1.00
H410   H     0.64350   0.87310   0.38000   0.01267  Uiso   1.00
H411   H     0.60620   0.75160   0.35480   0.01267  Uiso   1.00
H412   H     0.50050   0.73030   0.38420   0.01267  Uiso   1.00
H413   H     0.59520   0.83010   0.44330   0.01267  Uiso   1.00
H414   H     0.59130   0.70920   0.42230   0.01267  Uiso   1.00
H415   H     0.66850   0.83020   0.51950   0.01267  Uiso   1.00
H416   H     0.68000   0.67600   0.51240   0.01267  Uiso   1.00
H417   H     0.73470   0.78480   0.55690   0.01267  Uiso   1.00
H418   H     0.67350   0.75850   0.56100   0.01267  Uiso   1.00
H419   H     0.54680   0.33430   0.45650   0.01267  Uiso   1.00
H420   H     0.60700   0.29630   0.52670   0.01267  Uiso   1.00
H421   H     0.56180   0.37120   0.55100   0.01267  Uiso   1.00
H422   H     0.57250   0.30330   0.62280   0.01267  Uiso   1.00
H423   H     0.51180   0.24680   0.52920   0.01267  Uiso   1.00
H424   H     0.45060   0.31830   0.54070   0.01267  Uiso   1.00
H425   H     0.35300   0.32180   0.48020   0.01267  Uiso   1.00
H426   H     0.32700   0.22750   0.41410   0.01267  Uiso   1.00
H427   H     0.35110   0.25230   0.37460   0.01267  Uiso   1.00
H428   H     0.41950   0.30260   0.59770   0.01267  Uiso   1.00
H429   H     0.49310   0.26350   0.62000   0.01267  Uiso   1.00
H430   H     0.39680   0.25140   0.64520   0.01267  Uiso   1.00
H431   H     0.34610   0.11630   0.61580   0.01267  Uiso   1.00
H432   H     0.38680   0.15190   0.55670   0.01267  Uiso   1.00
H433   H     0.28690   0.16900   0.57770   0.01267  Uiso   1.00
H434   H     0.31070   0.14900   0.48050   0.01267  Uiso   1.00
H435   H     0.16360   0.16760   0.48760   0.01267  Uiso   1.00
H436   H     0.22790   0.17780   0.44310   0.01267  Uiso   1.00
H437   H     0.19750   0.11250   0.43900   0.01267  Uiso   1.00
H438   H     0.45320   0.90970   0.78750   0.01267  Uiso   1.00
H439   H     0.39300   0.91970   0.68930   0.01267  Uiso   1.00
H440   H     0.43820   0.98920   0.80940   0.01267  Uiso   1.00
H441   H     0.42750   0.05030   0.73080   0.01267  Uiso   1.00
H442   H     0.48820   0.01740   0.73500   0.01267  Uiso   1.00
H443   H     0.54940   0.09010   0.86770   0.01267  Uiso   1.00
H444   H     0.64700   0.12720   0.96880   0.01267  Uiso   1.00
H445   H     0.67300   0.08710   0.90050   0.01267  Uiso   1.00
H446   H     0.64890   0.02350   0.90120   0.01267  Uiso   1.00
H447   H     0.58050   0.17820   0.88310   0.01267  Uiso   1.00
H448   H     0.50690   0.12690   0.77040   0.01267  Uiso   1.00
H449   H     0.60320   0.24840   0.85460   0.01267  Uiso   1.00
H450   H     0.65390   0.26970   0.77020   0.01267  Uiso   1.00
H451   H     0.61320   0.16990   0.76510   0.01267  Uiso   1.00
H452   H     0.71310   0.29080   0.88210   0.01267  Uiso   1.00
H453   H     0.68930   0.16980   0.83830   0.01267  Uiso   1.00
H454   H     0.83640   0.32400   0.00400   0.01267  Uiso   1.00
H455   H     0.77210   0.21520   0.94990   0.01267  Uiso   1.00
H456   H     0.80250   0.24150   0.91500   0.01267  Uiso   1.00
C1     C     0.46520   0.94360   0.16040   0.01267  Uiso   1.00
C2     C     0.53030   0.97370   0.20080   0.01267  Uiso   1.00
C3     C     0.54530   0.03100   0.25770   0.01267  Uiso   1.00
C4     C     0.51850   0.07000   0.23990   0.01267  Uiso   1.00
C5     C     0.44740   0.02540   0.18900   0.01267  Uiso   1.00
C6     C     0.41640   0.05480   0.15720   0.01267  Uiso   1.00
C7     C     0.57260   0.17740   0.31580   0.01267  Uiso   1.00
C8     C     0.61410   0.20600   0.38010   0.01267  Uiso   1.00
C9     C     0.58550   0.21090   0.41340   0.01267  Uiso   1.00
C10    C     0.54970   0.24910   0.39940   0.01267  Uiso   1.00
C11    C     0.50790   0.21110   0.33960   0.01267  Uiso   1.00
C12    C     0.46750   0.24070   0.31060   0.01267  Uiso   1.00
C13    C     0.78320   0.30480   0.83960   0.01267  Uiso   1.00
C14    C     0.77290   0.32950   0.79920   0.01267  Uiso   1.00
C15    C     0.77330   0.28760   0.74230   0.01267  Uiso   1.00
C16    C     0.83010   0.27860   0.76010   0.01267  Uiso   1.00
C17    C     0.83640   0.25840   0.81100   0.01267  Uiso   1.00
C18    C     0.89760   0.25920   0.84280   0.01267  Uiso   1.00
C19    C     0.86160   0.25680   0.68420   0.01267  Uiso   1.00
C20    C     0.82590   0.23400   0.61990   0.01267  Uiso   1.00
C21    C     0.79750   0.17210   0.58660   0.01267  Uiso   1.00
C22    C     0.84970   0.15030   0.60060   0.01267  Uiso   1.00
C23    C     0.87150   0.16830   0.66040   0.01267  Uiso   1.00
C24    C     0.93010   0.15690   0.68940   0.01267  Uiso   1.00
C25    C     0.21680   0.05640   0.52160   0.01267  Uiso   1.00
C26    C     0.22710   0.02630   0.55660   0.01267  Uiso   1.00
C27    C     0.22670   0.96900   0.51430   0.01267  Uiso   1.00
C28    C     0.16990   0.93000   0.44850   0.01267  Uiso   1.00
C29    C     0.16360   0.97460   0.42200   0.01267  Uiso   1.00
C30    C     0.10240   0.94520   0.36160   0.01267  Uiso   1.00
C31    C     0.13840   0.82260   0.39520   0.01267  Uiso   1.00
C32    C     0.17410   0.79400   0.40810   0.01267  Uiso   1.00
C33    C     0.20250   0.78910   0.37460   0.01267  Uiso   1.00
C34    C     0.15030   0.75090   0.30060   0.01267  Uiso   1.00
C35    C     0.12850   0.78890   0.29680   0.01267  Uiso   1.00
C36    C     0.06990   0.75930   0.22680   0.01267  Uiso   1.00
C37    C     0.53480   0.69520   0.47840   0.01267  Uiso   1.00
C38    C     0.46970   0.67050   0.44340   0.01267  Uiso   1.00
C39    C     0.45470   0.71240   0.48570   0.01267  Uiso   1.00
C40    C     0.48150   0.72140   0.55150   0.01267  Uiso   1.00
C41    C     0.55260   0.74160   0.57800   0.01267  Uiso   1.00
C42    C     0.58360   0.74080   0.63840   0.01267  Uiso   1.00
C43    C     0.42740   0.74320   0.60480   0.01267  Uiso   1.00
C44    C     0.38590   0.76600   0.59190   0.01267  Uiso   1.00
C45    C     0.41450   0.82790   0.62540   0.01267  Uiso   1.00
C46    C     0.45030   0.84970   0.69940   0.01267  Uiso   1.00
C47    C     0.49210   0.83170   0.70320   0.01267  Uiso   1.00
C48    C     0.53250   0.84310   0.77320   0.01267  Uiso   1.00
C49    C     0.52160   0.21680   0.05640   0.01267  Uiso   1.00
C50    C     0.55660   0.22710   0.02630   0.01267  Uiso   1.00
C51    C     0.51430   0.22670   0.96900   0.01267  Uiso   1.00
C52    C     0.44850   0.16990   0.93000   0.01267  Uiso   1.00
C53    C     0.42200   0.16360   0.97460   0.01267  Uiso   1.00
C54    C     0.36160   0.10240   0.94520   0.01267  Uiso   1.00
C55    C     0.39520   0.13840   0.82260   0.01267  Uiso   1.00
C56    C     0.40810   0.17410   0.79400   0.01267  Uiso   1.00
C57    C     0.37460   0.20250   0.78910   0.01267  Uiso   1.00
C58    C     0.30060   0.15030   0.75090   0.01267  Uiso   1.00
C59    C     0.29680   0.12850   0.78890   0.01267  Uiso   1.00
C60    C     0.22680   0.06990   0.75930   0.01267  Uiso   1.00
C61    C     0.47840   0.53480   0.69520   0.01267  Uiso   1.00
C62    C     0.44340   0.46970   0.67050   0.01267  Uiso   1.00
C63    C     0.48570   0.45470   0.71240   0.01267  Uiso   1.00
C64    C     0.55150   0.48150   0.72140   0.01267  Uiso   1.00
C65    C     0.57800   0.55260   0.74160   0.01267  Uiso   1.00
C66    C     0.63840   0.58360   0.74080   0.01267  Uiso   1.00
C67    C     0.60480   0.42740   0.74320   0.01267  Uiso   1.00
C68    C     0.59190   0.38590   0.76600   0.01267  Uiso   1.00
C69    C     0.62540   0.41450   0.82790   0.01267  Uiso   1.00
C70    C     0.69940   0.45030   0.84970   0.01267  Uiso   1.00
C71    C     0.70320   0.49210   0.83170   0.01267  Uiso   1.00
C72    C     0.77320   0.53250   0.84310   0.01267  Uiso   1.00
C73    C     0.16040   0.46520   0.94360   0.01267  Uiso   1.00
C74    C     0.20080   0.53030   0.97370   0.01267  Uiso   1.00
C75    C     0.25770   0.54530   0.03100   0.01267  Uiso   1.00
C76    C     0.23990   0.51850   0.07000   0.01267  Uiso   1.00
C77    C     0.18900   0.44740   0.02540   0.01267  Uiso   1.00
C78    C     0.15720   0.41640   0.05480   0.01267  Uiso   1.00
C79    C     0.31580   0.57260   0.17740   0.01267  Uiso   1.00
C80    C     0.38010   0.61410   0.20600   0.01267  Uiso   1.00
C81    C     0.41340   0.58550   0.21090   0.01267  Uiso   1.00
C82    C     0.39940   0.54970   0.24910   0.01267  Uiso   1.00
C83    C     0.33960   0.50790   0.21110   0.01267  Uiso   1.00
C84    C     0.31060   0.46750   0.24070   0.01267  Uiso   1.00
C85    C     0.83960   0.78320   0.30480   0.01267  Uiso   1.00
C86    C     0.79920   0.77290   0.32950   0.01267  Uiso   1.00
C87    C     0.74230   0.77330   0.28760   0.01267  Uiso   1.00
C88    C     0.76010   0.83010   0.27860   0.01267  Uiso   1.00
C89    C     0.81100   0.83640   0.25840   0.01267  Uiso   1.00
C90    C     0.84280   0.89760   0.25920   0.01267  Uiso   1.00
C91    C     0.68420   0.86160   0.25680   0.01267  Uiso   1.00
C92    C     0.61990   0.82590   0.23400   0.01267  Uiso   1.00
C93    C     0.58660   0.79750   0.17210   0.01267  Uiso   1.00
C94    C     0.60060   0.84970   0.15030   0.01267  Uiso   1.00
C95    C     0.66040   0.87150   0.16830   0.01267  Uiso   1.00
C96    C     0.68940   0.93010   0.15690   0.01267  Uiso   1.00
C97    C     0.30480   0.83960   0.78320   0.01267  Uiso   1.00
C98    C     0.32950   0.79920   0.77290   0.01267  Uiso   1.00
C99    C     0.28760   0.74230   0.77330   0.01267  Uiso   1.00
C100   C     0.27860   0.76010   0.83010   0.01267  Uiso   1.00
C101   C     0.25840   0.81100   0.83640   0.01267  Uiso   1.00
C102   C     0.25920   0.84280   0.89760   0.01267  Uiso   1.00
C103   C     0.25680   0.68420   0.86160   0.01267  Uiso   1.00
C104   C     0.23400   0.61990   0.82590   0.01267  Uiso   1.00
C105   C     0.17210   0.58660   0.79750   0.01267  Uiso   1.00
C106   C     0.15030   0.60060   0.84970   0.01267  Uiso   1.00
C107   C     0.16830   0.66040   0.87150   0.01267  Uiso   1.00
C108   C     0.15690   0.68940   0.93010   0.01267  Uiso   1.00
C109   C     0.94360   0.16040   0.46520   0.01267  Uiso   1.00
C110   C     0.97370   0.20080   0.53030   0.01267  Uiso   1.00
C111   C     0.03100   0.25770   0.54530   0.01267  Uiso   1.00
C112   C     0.07000   0.23990   0.51850   0.01267  Uiso   1.00
C113   C     0.02540   0.18900   0.44740   0.01267  Uiso   1.00
C114   C     0.05480   0.15720   0.41640   0.01267  Uiso   1.00
C115   C     0.17740   0.31580   0.57260   0.01267  Uiso   1.00
C116   C     0.20600   0.38010   0.61410   0.01267  Uiso   1.00
C117   C     0.21090   0.41340   0.58550   0.01267  Uiso   1.00
C118   C     0.24910   0.39940   0.54970   0.01267  Uiso   1.00
C119   C     0.21110   0.33960   0.50790   0.01267  Uiso   1.00
C120   C     0.24070   0.31060   0.46750   0.01267  Uiso   1.00
C121   C     0.69520   0.47840   0.53480   0.01267  Uiso   1.00
C122   C     0.67050   0.44340   0.46970   0.01267  Uiso   1.00
C123   C     0.71240   0.48570   0.45470   0.01267  Uiso   1.00
C124   C     0.72140   0.55150   0.48150   0.01267  Uiso   1.00
C125   C     0.74160   0.57800   0.55260   0.01267  Uiso   1.00
C126   C     0.74080   0.63840   0.58360   0.01267  Uiso   1.00
C127   C     0.74320   0.60480   0.42740   0.01267  Uiso   1.00
C128   C     0.76600   0.59190   0.38590   0.01267  Uiso   1.00
C129   C     0.82790   0.62540   0.41450   0.01267  Uiso   1.00
C130   C     0.84970   0.69940   0.45030   0.01267  Uiso   1.00
C131   C     0.83170   0.70320   0.49210   0.01267  Uiso   1.00
C132   C     0.84310   0.77320   0.53250   0.01267  Uiso   1.00
C133   C     0.05640   0.52160   0.21680   0.01267  Uiso   1.00
C134   C     0.02630   0.55660   0.22710   0.01267  Uiso   1.00
C135   C     0.96900   0.51430   0.22670   0.01267  Uiso   1.00
C136   C     0.93000   0.44850   0.16990   0.01267  Uiso   1.00
C137   C     0.97460   0.42200   0.16360   0.01267  Uiso   1.00
C138   C     0.94520   0.36160   0.10240   0.01267  Uiso   1.00
C139   C     0.82260   0.39520   0.13840   0.01267  Uiso   1.00
C140   C     0.79400   0.40810   0.17410   0.01267  Uiso   1.00
C141   C     0.78910   0.37460   0.20250   0.01267  Uiso   1.00
C142   C     0.75090   0.30060   0.15030   0.01267  Uiso   1.00
C143   C     0.78890   0.29680   0.12850   0.01267  Uiso   1.00
C144   C     0.75930   0.22680   0.06990   0.01267  Uiso   1.00
C145   C     0.05640   0.53480   0.83960   0.01267  Uiso   1.00
C146   C     0.02630   0.46970   0.79920   0.01267  Uiso   1.00
C147   C     0.96900   0.45470   0.74230   0.01267  Uiso   1.00
C148   C     0.93000   0.48150   0.76010   0.01267  Uiso   1.00
C149   C     0.97460   0.55260   0.81100   0.01267  Uiso   1.00
C150   C     0.94520   0.58360   0.84280   0.01267  Uiso   1.00
C151   C     0.82260   0.42740   0.68420   0.01267  Uiso   1.00
C152   C     0.79400   0.38590   0.61990   0.01267  Uiso   1.00
C153   C     0.78910   0.41450   0.58660   0.01267  Uiso   1.00
C154   C     0.75090   0.45030   0.60060   0.01267  Uiso   1.00
C155   C     0.78890   0.49210   0.66040   0.01267  Uiso   1.00
C156   C     0.75930   0.53250   0.68940   0.01267  Uiso   1.00
C157   C     0.69520   0.21680   0.16040   0.01267  Uiso   1.00
C158   C     0.67050   0.22710   0.20080   0.01267  Uiso   1.00
C159   C     0.71240   0.22670   0.25770   0.01267  Uiso   1.00
C160   C     0.72140   0.16990   0.23990   0.01267  Uiso   1.00
C161   C     0.74160   0.16360   0.18900   0.01267  Uiso   1.00
C162   C     0.74080   0.10240   0.15720   0.01267  Uiso   1.00
C163   C     0.74320   0.13840   0.31580   0.01267  Uiso   1.00
C164   C     0.76600   0.17410   0.38010   0.01267  Uiso   1.00
C165   C     0.82790   0.20250   0.41340   0.01267  Uiso   1.00
C166   C     0.84970   0.15030   0.39940   0.01267  Uiso   1.00
C167   C     0.83170   0.12850   0.33960   0.01267  Uiso   1.00
C168   C     0.84310   0.06990   0.31060   0.01267  Uiso   1.00
C169   C     0.94360   0.78320   0.47840   0.01267  Uiso   1.00
C170   C     0.97370   0.77290   0.44340   0.01267  Uiso   1.00
C171   C     0.03100   0.77330   0.48570   0.01267  Uiso   1.00
C172   C     0.07000   0.83010   0.55150   0.01267  Uiso   1.00
C173   C     0.02540   0.83640   0.57800   0.01267  Uiso   1.00
C174   C     0.05480   0.89760   0.63840   0.01267  Uiso   1.00
C175   C     0.17740   0.86160   0.60480   0.01267  Uiso   1.00
C176   C     0.20600   0.82590   0.59190   0.01267  Uiso   1.00
C177   C     0.21090   0.79750   0.62540   0.01267  Uiso   1.00
C178   C     0.24910   0.84970   0.69940   0.01267  Uiso   1.00
C179   C     0.21110   0.87150   0.70320   0.01267  Uiso   1.00
C180   C     0.24070   0.93010   0.77320   0.01267  Uiso   1.00
C181   C     0.30480   0.46520   0.52160   0.01267  Uiso   1.00
C182   C     0.32950   0.53030   0.55660   0.01267  Uiso   1.00
C183   C     0.28760   0.54530   0.51430   0.01267  Uiso   1.00
C184   C     0.27860   0.51850   0.44850   0.01267  Uiso   1.00
C185   C     0.25840   0.44740   0.42200   0.01267  Uiso   1.00
C186   C     0.25920   0.41640   0.36160   0.01267  Uiso   1.00
C187   C     0.25680   0.57260   0.39520   0.01267  Uiso   1.00
C188   C     0.23400   0.61410   0.40810   0.01267  Uiso   1.00
C189   C     0.17210   0.58550   0.37460   0.01267  Uiso   1.00
C190   C     0.15030   0.54970   0.30060   0.01267  Uiso   1.00
C191   C     0.16830   0.50790   0.29680   0.01267  Uiso   1.00
C192   C     0.15690   0.46750   0.22680   0.01267  Uiso   1.00
C193   C     0.78320   0.47840   0.94360   0.01267  Uiso   1.00
C194   C     0.77290   0.44340   0.97370   0.01267  Uiso   1.00
C195   C     0.77330   0.48570   0.03100   0.01267  Uiso   1.00
C196   C     0.83010   0.55150   0.07000   0.01267  Uiso   1.00
C197   C     0.83640   0.57800   0.02540   0.01267  Uiso   1.00
C198   C     0.89760   0.63840   0.05480   0.01267  Uiso   1.00
C199   C     0.86160   0.60480   0.17740   0.01267  Uiso   1.00
C200   C     0.82590   0.59190   0.20600   0.01267  Uiso   1.00
C201   C     0.79750   0.62540   0.21090   0.01267  Uiso   1.00
C202   C     0.84970   0.69940   0.24910   0.01267  Uiso   1.00
C203   C     0.87150   0.70320   0.21110   0.01267  Uiso   1.00
C204   C     0.93010   0.77320   0.24070   0.01267  Uiso   1.00
C205   C     0.46520   0.52160   0.30480   0.01267  Uiso   1.00
C206   C     0.53030   0.55660   0.32950   0.01267  Uiso   1.00
C207   C     0.54530   0.51430   0.28760   0.01267  Uiso   1.00
C208   C     0.51850   0.44850   0.27860   0.01267  Uiso   1.00
C209   C     0.44740   0.42200   0.25840   0.01267  Uiso   1.00
C210   C     0.41640   0.36160   0.25920   0.01267  Uiso   1.00
C211   C     0.57260   0.39520   0.25680   0.01267  Uiso   1.00
C212   C     0.61410   0.40810   0.23400   0.01267  Uiso   1.00
C213   C     0.58550   0.37460   0.17210   0.01267  Uiso   1.00
C214   C     0.54970   0.30060   0.15030   0.01267  Uiso   1.00
C215   C     0.50790   0.29680   0.16830   0.01267  Uiso   1.00
C216   C     0.46750   0.22680   0.15690   0.01267  Uiso   1.00
C217   C     0.53480   0.83960   0.05640   0.01267  Uiso   1.00
C218   C     0.46970   0.79920   0.02630   0.01267  Uiso   1.00
C219   C     0.45470   0.74230   0.96900   0.01267  Uiso   1.00
C220   C     0.48150   0.76010   0.93000   0.01267  Uiso   1.00
C221   C     0.55260   0.81100   0.97460   0.01267  Uiso   1.00
C222   C     0.58360   0.84280   0.94520   0.01267  Uiso   1.00
C223   C     0.42740   0.68420   0.82260   0.01267  Uiso   1.00
C224   C     0.38590   0.61990   0.79400   0.01267  Uiso   1.00
C225   C     0.41450   0.58660   0.78910   0.01267  Uiso   1.00
C226   C     0.45030   0.60060   0.75090   0.01267  Uiso   1.00
C227   C     0.49210   0.66040   0.78890   0.01267  Uiso   1.00
C228   C     0.53250   0.68940   0.75930   0.01267  Uiso   1.00
C229   C     0.21680   0.16040   0.69520   0.01267  Uiso   1.00
C230   C     0.22710   0.20080   0.67050   0.01267  Uiso   1.00
C231   C     0.22670   0.25770   0.71240   0.01267  Uiso   1.00
C232   C     0.16990   0.23990   0.72140   0.01267  Uiso   1.00
C233   C     0.16360   0.18900   0.74160   0.01267  Uiso   1.00
C234   C     0.10240   0.15720   0.74080   0.01267  Uiso   1.00
C235   C     0.13840   0.31580   0.74320   0.01267  Uiso   1.00
C236   C     0.17410   0.38010   0.76600   0.01267  Uiso   1.00
C237   C     0.20250   0.41340   0.82790   0.01267  Uiso   1.00
C238   C     0.15030   0.39940   0.84970   0.01267  Uiso   1.00
C239   C     0.12850   0.33960   0.83170   0.01267  Uiso   1.00
C240   C     0.06990   0.31060   0.84310   0.01267  Uiso   1.00
C241   C     0.16040   0.69520   0.21680   0.01267  Uiso   1.00
C242   C     0.20080   0.67050   0.22710   0.01267  Uiso   1.00
C243   C     0.25770   0.71240   0.22670   0.01267  Uiso   1.00
C244   C     0.23990   0.72140   0.16990   0.01267  Uiso   1.00
C245   C     0.18900   0.74160   0.16360   0.01267  Uiso   1.00
C246   C     0.15720   0.74080   0.10240   0.01267  Uiso   1.00
C247   C     0.31580   0.74320   0.13840   0.01267  Uiso   1.00
C248   C     0.38010   0.76600   0.17410   0.01267  Uiso   1.00
C249   C     0.41340   0.82790   0.20250   0.01267  Uiso   1.00
C250   C     0.39940   0.84970   0.15030   0.01267  Uiso   1.00
C251   C     0.33960   0.83170   0.12850   0.01267  Uiso   1.00
C252   C     0.31060   0.84310   0.06990   0.01267  Uiso   1.00
C253   C     0.83960   0.05640   0.53480   0.01267  Uiso   1.00
C254   C     0.79920   0.02630   0.46970   0.01267  Uiso   1.00
C255   C     0.74230   0.96900   0.45470   0.01267  Uiso   1.00
C256   C     0.76010   0.93000   0.48150   0.01267  Uiso   1.00
C257   C     0.81100   0.97460   0.55260   0.01267  Uiso   1.00
C258   C     0.84280   0.94520   0.58360   0.01267  Uiso   1.00
C259   C     0.68420   0.82260   0.42740   0.01267  Uiso   1.00
C260   C     0.61990   0.79400   0.38590   0.01267  Uiso   1.00
C261   C     0.58660   0.78910   0.41450   0.01267  Uiso   1.00
C262   C     0.60060   0.75090   0.45030   0.01267  Uiso   1.00
C263   C     0.66040   0.78890   0.49210   0.01267  Uiso   1.00
C264   C     0.68940   0.75930   0.53250   0.01267  Uiso   1.00
C265   C     0.52160   0.30480   0.46520   0.01267  Uiso   1.00
C266   C     0.55660   0.32950   0.53030   0.01267  Uiso   1.00
C267   C     0.51430   0.28760   0.54530   0.01267  Uiso   1.00
C268   C     0.44850   0.27860   0.51850   0.01267  Uiso   1.00
C269   C     0.42200   0.25840   0.44740   0.01267  Uiso   1.00
C270   C     0.36160   0.25920   0.41640   0.01267  Uiso   1.00
C271   C     0.39520   0.25680   0.57260   0.01267  Uiso   1.00
C272   C     0.40810   0.23400   0.61410   0.01267  Uiso   1.00
C273   C     0.37460   0.17210   0.58550   0.01267  Uiso   1.00
C274   C     0.30060   0.15030   0.54970   0.01267  Uiso   1.00
C275   C     0.29680   0.16830   0.50790   0.01267  Uiso   1.00
C276   C     0.22680   0.15690   0.46750   0.01267  Uiso   1.00
C277   C     0.47840   0.94360   0.78320   0.01267  Uiso   1.00
C278   C     0.44340   0.97370   0.77290   0.01267  Uiso   1.00
C279   C     0.48570   0.03100   0.77330   0.01267  Uiso   1.00
C280   C     0.55150   0.07000   0.83010   0.01267  Uiso   1.00
C281   C     0.57800   0.02540   0.83640   0.01267  Uiso   1.00
C282   C     0.63840   0.05480   0.89760   0.01267  Uiso   1.00
C283   C     0.60480   0.17740   0.86160   0.01267  Uiso   1.00
C284   C     0.59190   0.20600   0.82590   0.01267  Uiso   1.00
C285   C     0.62540   0.21090   0.79750   0.01267  Uiso   1.00
C286   C     0.69940   0.24910   0.84970   0.01267  Uiso   1.00
C287   C     0.70320   0.21110   0.87150   0.01267  Uiso   1.00
C288   C     0.77320   0.24070   0.93010   0.01267  Uiso   1.00
O1     O     0.43900   0.97680   0.13980   0.01267  Uiso   1.00
O2     O     0.54690   0.93650   0.21060   0.01267  Uiso   1.00
O3     O     0.60790   0.06400   0.29090   0.01267  Uiso   1.00
O4     O     0.52530   0.11100   0.28710   0.01267  Uiso   1.00
O5     O     0.45970   0.08240   0.13510   0.01267  Uiso   1.00
O6     O     0.53850   0.20680   0.29850   0.01267  Uiso   1.00
O7     O     0.64760   0.17030   0.38770   0.01267  Uiso   1.00
O8     O     0.63150   0.24910   0.47640   0.01267  Uiso   1.00
O9     O     0.43320   0.91430   0.18330   0.01267  Uiso   1.00
O10    O     0.51020   0.30290   0.32870   0.01267  Uiso   1.00
O11    O     0.83700   0.29920   0.86020   0.01267  Uiso   1.00
O12    O     0.72590   0.33630   0.78940   0.01267  Uiso   1.00
O13    O     0.77310   0.31700   0.70910   0.01267  Uiso   1.00
O14    O     0.82390   0.23820   0.71290   0.01267  Uiso   1.00
O15    O     0.94730   0.32460   0.86490   0.01267  Uiso   1.00
O16    O     0.90830   0.24000   0.70150   0.01267  Uiso   1.00
O17    O     0.78260   0.25990   0.61230   0.01267  Uiso   1.00
O18    O     0.77270   0.15510   0.52360   0.01267  Uiso   1.00
O19    O     0.73100   0.24990   0.81670   0.01267  Uiso   1.00
O20    O     0.97420   0.18150   0.67130   0.01267  Uiso   1.00
O21    O     0.16300   0.02320   0.46220   0.01267  Uiso   1.00
O22    O     0.27410   0.06350   0.61040   0.01267  Uiso   1.00
O23    O     0.22690   0.93600   0.54390   0.01267  Uiso   1.00
O24    O     0.17610   0.88900   0.41430   0.01267  Uiso   1.00
O25    O     0.05270   0.91760   0.37730   0.01267  Uiso   1.00
O26    O     0.09170   0.79320   0.33170   0.01267  Uiso   1.00
O27    O     0.21740   0.82970   0.47730   0.01267  Uiso   1.00
O28    O     0.22730   0.75090   0.38240   0.01267  Uiso   1.00
O29    O     0.26900   0.08570   0.51890   0.01267  Uiso   1.00
O30    O     0.02580   0.69710   0.20730   0.01267  Uiso   1.00
O31    O     0.56100   0.70080   0.53780   0.01267  Uiso   1.00
O32    O     0.45310   0.66370   0.38960   0.01267  Uiso   1.00
O33    O     0.39210   0.68300   0.45610   0.01267  Uiso   1.00
O34    O     0.47470   0.76180   0.58570   0.01267  Uiso   1.00
O35    O     0.54030   0.67540   0.62270   0.01267  Uiso   1.00
O36    O     0.46150   0.76000   0.66830   0.01267  Uiso   1.00
O37    O     0.35240   0.74010   0.52270   0.01267  Uiso   1.00
O38    O     0.36850   0.84490   0.61760   0.01267  Uiso   1.00
O39    O     0.56680   0.75010   0.48110   0.01267  Uiso   1.00
O40    O     0.48980   0.81850   0.79270   0.01267  Uiso   1.00
O41    O     0.46220   0.16300   0.02320   0.01267  Uiso   1.00
O42    O     0.61040   0.27410   0.06350   0.01267  Uiso   1.00
O43    O     0.54390   0.22690   0.93600   0.01267  Uiso   1.00
O44    O     0.41430   0.17610   0.88900   0.01267  Uiso   1.00
O45    O     0.37730   0.05270   0.91760   0.01267  Uiso   1.00
O46    O     0.33170   0.09170   0.79320   0.01267  Uiso   1.00
O47    O     0.47730   0.21740   0.82970   0.01267  Uiso   1.00
O48    O     0.38240   0.22730   0.75090   0.01267  Uiso   1.00
O49    O     0.51890   0.26900   0.08570   0.01267  Uiso   1.00
O50    O     0.20730   0.02580   0.69710   0.01267  Uiso   1.00
O51    O     0.53780   0.56100   0.70080   0.01267  Uiso   1.00
O52    O     0.38960   0.45310   0.66370   0.01267  Uiso   1.00
O53    O     0.45610   0.39210   0.68300   0.01267  Uiso   1.00
O54    O     0.58570   0.47470   0.76180   0.01267  Uiso   1.00
O55    O     0.62270   0.54030   0.67540   0.01267  Uiso   1.00
O56    O     0.66830   0.46150   0.76000   0.01267  Uiso   1.00
O57    O     0.52270   0.35240   0.74010   0.01267  Uiso   1.00
O58    O     0.61760   0.36850   0.84490   0.01267  Uiso   1.00
O59    O     0.48110   0.56680   0.75010   0.01267  Uiso   1.00
O60    O     0.79270   0.48980   0.81850   0.01267  Uiso   1.00
O61    O     0.13980   0.43900   0.97680   0.01267  Uiso   1.00
O62    O     0.21060   0.54690   0.93650   0.01267  Uiso   1.00
O63    O     0.29090   0.60790   0.06400   0.01267  Uiso   1.00
O64    O     0.28710   0.52530   0.11100   0.01267  Uiso   1.00
O65    O     0.13510   0.45970   0.08240   0.01267  Uiso   1.00
O66    O     0.29850   0.53850   0.20680   0.01267  Uiso   1.00
O67    O     0.38770   0.64760   0.17030   0.01267  Uiso   1.00
O68    O     0.47640   0.63150   0.24910   0.01267  Uiso   1.00
O69    O     0.18330   0.43320   0.91430   0.01267  Uiso   1.00
O70    O     0.32870   0.51020   0.30290   0.01267  Uiso   1.00
O71    O     0.86020   0.83700   0.29920   0.01267  Uiso   1.00
O72    O     0.78940   0.72590   0.33630   0.01267  Uiso   1.00
O73    O     0.70910   0.77310   0.31700   0.01267  Uiso   1.00
O74    O     0.71290   0.82390   0.23820   0.01267  Uiso   1.00
O75    O     0.86490   0.94730   0.32460   0.01267  Uiso   1.00
O76    O     0.70150   0.90830   0.24000   0.01267  Uiso   1.00
O77    O     0.61230   0.78260   0.25990   0.01267  Uiso   1.00
O78    O     0.52360   0.77270   0.15510   0.01267  Uiso   1.00
O79    O     0.81670   0.73100   0.24990   0.01267  Uiso   1.00
O80    O     0.67130   0.97420   0.18150   0.01267  Uiso   1.00
O81    O     0.29920   0.86020   0.83700   0.01267  Uiso   1.00
O82    O     0.33630   0.78940   0.72590   0.01267  Uiso   1.00
O83    O     0.31700   0.70910   0.77310   0.01267  Uiso   1.00
O84    O     0.23820   0.71290   0.82390   0.01267  Uiso   1.00
O85    O     0.32460   0.86490   0.94730   0.01267  Uiso   1.00
O86    O     0.24000   0.70150   0.90830   0.01267  Uiso   1.00
O87    O     0.25990   0.61230   0.78260   0.01267  Uiso   1.00
O88    O     0.15510   0.52360   0.77270   0.01267  Uiso   1.00
O89    O     0.24990   0.81670   0.73100   0.01267  Uiso   1.00
O90    O     0.18150   0.67130   0.97420   0.01267  Uiso   1.00
O91    O     0.97680   0.13980   0.43900   0.01267  Uiso   1.00
O92    O     0.93650   0.21060   0.54690   0.01267  Uiso   1.00
O93    O     0.06400   0.29090   0.60790   0.01267  Uiso   1.00
O94    O     0.11100   0.28710   0.52530   0.01267  Uiso   1.00
O95    O     0.08240   0.13510   0.45970   0.01267  Uiso   1.00
O96    O     0.20680   0.29850   0.53850   0.01267  Uiso   1.00
O97    O     0.17030   0.38770   0.64760   0.01267  Uiso   1.00
O98    O     0.24910   0.47640   0.63150   0.01267  Uiso   1.00
O99    O     0.91430   0.18330   0.43320   0.01267  Uiso   1.00
O100   O     0.30290   0.32870   0.51020   0.01267  Uiso   1.00
O101   O     0.70080   0.53780   0.56100   0.01267  Uiso   1.00
O102   O     0.66370   0.38960   0.45310   0.01267  Uiso   1.00
O103   O     0.68300   0.45610   0.39210   0.01267  Uiso   1.00
O104   O     0.76180   0.58570   0.47470   0.01267  Uiso   1.00
O105   O     0.67540   0.62270   0.54030   0.01267  Uiso   1.00
O106   O     0.76000   0.66830   0.46150   0.01267  Uiso   1.00
O107   O     0.74010   0.52270   0.35240   0.01267  Uiso   1.00
O108   O     0.84490   0.61760   0.36850   0.01267  Uiso   1.00
O109   O     0.75010   0.48110   0.56680   0.01267  Uiso   1.00
O110   O     0.81850   0.79270   0.48980   0.01267  Uiso   1.00
O111   O     0.02320   0.46220   0.16300   0.01267  Uiso   1.00
O112   O     0.06350   0.61040   0.27410   0.01267  Uiso   1.00
O113   O     0.93600   0.54390   0.22690   0.01267  Uiso   1.00
O114   O     0.88900   0.41430   0.17610   0.01267  Uiso   1.00
O115   O     0.91760   0.37730   0.05270   0.01267  Uiso   1.00
O116   O     0.79320   0.33170   0.09170   0.01267  Uiso   1.00
O117   O     0.82970   0.47730   0.21740   0.01267  Uiso   1.00
O118   O     0.75090   0.38240   0.22730   0.01267  Uiso   1.00
O119   O     0.08570   0.51890   0.26900   0.01267  Uiso   1.00
O120   O     0.69710   0.20730   0.02580   0.01267  Uiso   1.00
O121   O     0.02320   0.56100   0.86020   0.01267  Uiso   1.00
O122   O     0.06350   0.45310   0.78940   0.01267  Uiso   1.00
O123   O     0.93600   0.39210   0.70910   0.01267  Uiso   1.00
O124   O     0.88900   0.47470   0.71290   0.01267  Uiso   1.00
O125   O     0.91760   0.54030   0.86490   0.01267  Uiso   1.00
O126   O     0.79320   0.46150   0.70150   0.01267  Uiso   1.00
O127   O     0.82970   0.35240   0.61230   0.01267  Uiso   1.00
O128   O     0.75090   0.36850   0.52360   0.01267  Uiso   1.00
O129   O     0.08570   0.56680   0.81670   0.01267  Uiso   1.00
O130   O     0.69710   0.48980   0.67130   0.01267  Uiso   1.00
O131   O     0.70080   0.16300   0.13980   0.01267  Uiso   1.00
O132   O     0.66370   0.27410   0.21060   0.01267  Uiso   1.00
O133   O     0.68300   0.22690   0.29090   0.01267  Uiso   1.00
O134   O     0.76180   0.17610   0.28710   0.01267  Uiso   1.00
O135   O     0.67540   0.05270   0.13510   0.01267  Uiso   1.00
O136   O     0.76000   0.09170   0.29850   0.01267  Uiso   1.00
O137   O     0.74010   0.21740   0.38770   0.01267  Uiso   1.00
O138   O     0.84490   0.22730   0.47640   0.01267  Uiso   1.00
O139   O     0.75010   0.26900   0.18330   0.01267  Uiso   1.00
O140   O     0.81850   0.02580   0.32870   0.01267  Uiso   1.00
O141   O     0.97680   0.83700   0.53780   0.01267  Uiso   1.00
O142   O     0.93650   0.72590   0.38960   0.01267  Uiso   1.00
O143   O     0.06400   0.77310   0.45610   0.01267  Uiso   1.00
O144   O     0.11100   0.82390   0.58570   0.01267  Uiso   1.00
O145   O     0.08240   0.94730   0.62270   0.01267  Uiso   1.00
O146   O     0.20680   0.90830   0.66830   0.01267  Uiso   1.00
O147   O     0.17030   0.78260   0.52270   0.01267  Uiso   1.00
O148   O     0.24910   0.77270   0.61760   0.01267  Uiso   1.00
O149   O     0.91430   0.73100   0.48110   0.01267  Uiso   1.00
O150   O     0.30290   0.97420   0.79270   0.01267  Uiso   1.00
O151   O     0.29920   0.43900   0.46220   0.01267  Uiso   1.00
O152   O     0.33630   0.54690   0.61040   0.01267  Uiso   1.00
O153   O     0.31700   0.60790   0.54390   0.01267  Uiso   1.00
O154   O     0.23820   0.52530   0.41430   0.01267  Uiso   1.00
O155   O     0.32460   0.45970   0.37730   0.01267  Uiso   1.00
O156   O     0.24000   0.53850   0.33170   0.01267  Uiso   1.00
O157   O     0.25990   0.64760   0.47730   0.01267  Uiso   1.00
O158   O     0.15510   0.63150   0.38240   0.01267  Uiso   1.00
O159   O     0.24990   0.43320   0.51890   0.01267  Uiso   1.00
O160   O     0.18150   0.51020   0.20730   0.01267  Uiso   1.00
O161   O     0.83700   0.53780   0.97680   0.01267  Uiso   1.00
O162   O     0.72590   0.38960   0.93650   0.01267  Uiso   1.00
O163   O     0.77310   0.45610   0.06400   0.01267  Uiso   1.00
O164   O     0.82390   0.58570   0.11100   0.01267  Uiso   1.00
O165   O     0.94730   0.62270   0.08240   0.01267  Uiso   1.00
O166   O     0.90830   0.66830   0.20680   0.01267  Uiso   1.00
O167   O     0.78260   0.52270   0.17030   0.01267  Uiso   1.00
O168   O     0.77270   0.61760   0.24910   0.01267  Uiso   1.00
O169   O     0.73100   0.48110   0.91430   0.01267  Uiso   1.00
O170   O     0.97420   0.79270   0.30290   0.01267  Uiso   1.00
O171   O     0.43900   0.46220   0.29920   0.01267  Uiso   1.00
O172   O     0.54690   0.61040   0.33630   0.01267  Uiso   1.00
O173   O     0.60790   0.54390   0.31700   0.01267  Uiso   1.00
O174   O     0.52530   0.41430   0.23820   0.01267  Uiso   1.00
O175   O     0.45970   0.37730   0.32460   0.01267  Uiso   1.00
O176   O     0.53850   0.33170   0.24000   0.01267  Uiso   1.00
O177   O     0.64760   0.47730   0.25990   0.01267  Uiso   1.00
O178   O     0.63150   0.38240   0.15510   0.01267  Uiso   1.00
O179   O     0.43320   0.51890   0.24990   0.01267  Uiso   1.00
O180   O     0.51020   0.20730   0.18150   0.01267  Uiso   1.00
O181   O     0.56100   0.86020   0.02320   0.01267  Uiso   1.00
O182   O     0.45310   0.78940   0.06350   0.01267  Uiso   1.00
O183   O     0.39210   0.70910   0.93600   0.01267  Uiso   1.00
O184   O     0.47470   0.71290   0.88900   0.01267  Uiso   1.00
O185   O     0.54030   0.86490   0.91760   0.01267  Uiso   1.00
O186   O     0.46150   0.70150   0.79320   0.01267  Uiso   1.00
O187   O     0.35240   0.61230   0.82970   0.01267  Uiso   1.00
O188   O     0.36850   0.52360   0.75090   0.01267  Uiso   1.00
O189   O     0.56680   0.81670   0.08570   0.01267  Uiso   1.00
O190   O     0.48980   0.67130   0.69710   0.01267  Uiso   1.00
O191   O     0.16300   0.13980   0.70080   0.01267  Uiso   1.00
O192   O     0.27410   0.21060   0.66370   0.01267  Uiso   1.00
O193   O     0.22690   0.29090   0.68300   0.01267  Uiso   1.00
O194   O     0.17610   0.28710   0.76180   0.01267  Uiso   1.00
O195   O     0.05270   0.13510   0.67540   0.01267  Uiso   1.00
O196   O     0.09170   0.29850   0.76000   0.01267  Uiso   1.00
O197   O     0.21740   0.38770   0.74010   0.01267  Uiso   1.00
O198   O     0.22730   0.47640   0.84490   0.01267  Uiso   1.00
O199   O     0.26900   0.18330   0.75010   0.01267  Uiso   1.00
O200   O     0.02580   0.32870   0.81850   0.01267  Uiso   1.00
O201   O     0.13980   0.70080   0.16300   0.01267  Uiso   1.00
O202   O     0.21060   0.66370   0.27410   0.01267  Uiso   1.00
O203   O     0.29090   0.68300   0.22690   0.01267  Uiso   1.00
O204   O     0.28710   0.76180   0.17610   0.01267  Uiso   1.00
O205   O     0.13510   0.67540   0.05270   0.01267  Uiso   1.00
O206   O     0.29850   0.76000   0.09170   0.01267  Uiso   1.00
O207   O     0.38770   0.74010   0.21740   0.01267  Uiso   1.00
O208   O     0.47640   0.84490   0.22730   0.01267  Uiso   1.00
O209   O     0.18330   0.75010   0.26900   0.01267  Uiso   1.00
O210   O     0.32870   0.81850   0.02580   0.01267  Uiso   1.00
O211   O     0.86020   0.02320   0.56100   0.01267  Uiso   1.00
O212   O     0.78940   0.06350   0.45310   0.01267  Uiso   1.00
O213   O     0.70910   0.93600   0.39210   0.01267  Uiso   1.00
O214   O     0.71290   0.88900   0.47470   0.01267  Uiso   1.00
O215   O     0.86490   0.91760   0.54030   0.01267  Uiso   1.00
O216   O     0.70150   0.79320   0.46150   0.01267  Uiso   1.00
O217   O     0.61230   0.82970   0.35240   0.01267  Uiso   1.00
O218   O     0.52360   0.75090   0.36850   0.01267  Uiso   1.00
O219   O     0.81670   0.08570   0.56680   0.01267  Uiso   1.00
O220   O     0.67130   0.69710   0.48980   0.01267  Uiso   1.00
O221   O     0.46220   0.29920   0.43900   0.01267  Uiso   1.00
O222   O     0.61040   0.33630   0.54690   0.01267  Uiso   1.00
O223   O     0.54390   0.31700   0.60790   0.01267  Uiso   1.00
O224   O     0.41430   0.23820   0.52530   0.01267  Uiso   1.00
O225   O     0.37730   0.32460   0.45970   0.01267  Uiso   1.00
O226   O     0.33170   0.24000   0.53850   0.01267  Uiso   1.00
O227   O     0.47730   0.25990   0.64760   0.01267  Uiso   1.00
O228   O     0.38240   0.15510   0.63150   0.01267  Uiso   1.00
O229   O     0.51890   0.24990   0.43320   0.01267  Uiso   1.00
O230   O     0.20730   0.18150   0.51020   0.01267  Uiso   1.00
O231   O     0.53780   0.97680   0.83700   0.01267  Uiso   1.00
O232   O     0.38960   0.93650   0.72590   0.01267  Uiso   1.00
O233   O     0.45610   0.06400   0.77310   0.01267  Uiso   1.00
O234   O     0.58570   0.11100   0.82390   0.01267  Uiso   1.00
O235   O     0.62270   0.08240   0.94730   0.01267  Uiso   1.00
O236   O     0.66830   0.20680   0.90830   0.01267  Uiso   1.00
O237   O     0.52270   0.17030   0.78260   0.01267  Uiso   1.00
O238   O     0.61760   0.24910   0.77270   0.01267  Uiso   1.00
O239   O     0.48110   0.91430   0.73100   0.01267  Uiso   1.00
O240   O     0.79270   0.30290   0.97420   0.01267  Uiso   1.00
