data_LAJLEP_charged
_audit_creation_date              2014-07-02
_audit_creation_method            'Materials Studio'
_symmetry_space_group_name_H-M    'P1'
_symmetry_Int_Tables_number       1
_symmetry_cell_setting            triclinic
loop_
_symmetry_equiv_pos_as_xyz
  x,y,z
_cell_length_a                    26.9152
_cell_length_b                    26.9152
_cell_length_c                    26.9152
_cell_angle_alpha                 109.4710
_cell_angle_beta                  109.4710
_cell_angle_gamma                 109.4710
loop_
_atom_site_label
_atom_site_type_symbol
_atom_site_fract_x
_atom_site_fract_y
_atom_site_fract_z
_atom_site_U_iso_or_equiv
_atom_site_adp_type
_atom_site_occupancy
Rb1    Rb    0.68662   1.00000   0.31338   0.01267  Uiso   1.00
Rb2    Rb    0.68662   0.37324   0.68662   0.01267  Uiso   1.00
Rb3    Rb    0.31338   1.00000   0.68662   0.01267  Uiso   1.00
Rb4    Rb    0.31338   0.62676   0.31338   0.01267  Uiso   1.00
Rb5    Rb    0.68662   0.31338  -0.00000   0.01267  Uiso   1.00
Rb6    Rb    0.31338   0.31338   0.62676   0.01267  Uiso   1.00
Rb7    Rb    0.31338   0.68662  -0.00000   0.01267  Uiso   1.00
Rb8    Rb    0.68662   0.68662   0.37324   0.01267  Uiso   1.00
Rb9    Rb    0.37324   0.68662   0.68662   0.01267  Uiso   1.00
Rb10   Rb    1.00000   0.31338   0.68662   0.01267  Uiso   1.00
Rb11   Rb    0.62676   0.31338   0.31338   0.01267  Uiso   1.00
Rb12   Rb    0.00000   0.68662   0.31338   0.01267  Uiso   1.00
H1     H     0.46400   0.91010   0.12610   0.01267  Uiso   1.00
H2     H     0.53030   0.91550   0.23200   0.01267  Uiso   1.00
H3     H     0.56080   0.99580   0.19020   0.01267  Uiso   1.00
H4     H     0.62860   0.04780   0.32880   0.01267  Uiso   1.00
H5     H     0.53100   0.01330   0.28430   0.01267  Uiso   1.00
H6     H     0.54920   0.08940   0.22980   0.01267  Uiso   1.00
H7     H     0.43510   0.01220   0.21710   0.01267  Uiso   1.00
H8     H     0.48380   0.13790   0.17050   0.01267  Uiso   1.00
H9     H     0.39120   0.03540   0.14060   0.01267  Uiso   1.00
H10    H     0.43380   0.09520   0.20660   0.01267  Uiso   1.00
H11    H     0.59820   0.17450   0.29690   0.01267  Uiso   1.00
H12    H     0.62800   0.13260   0.36200   0.01267  Uiso   1.00
H13    H     0.64870   0.24660   0.39510   0.01267  Uiso   1.00
H14    H     0.62150   0.27560   0.50910   0.01267  Uiso   1.00
H15    H     0.55930   0.17570   0.41320   0.01267  Uiso   1.00
H16    H     0.58480   0.29110   0.41850   0.01267  Uiso   1.00
H17    H     0.48000   0.17410   0.32750   0.01267  Uiso   1.00
H18    H     0.50050   0.32510   0.32480   0.01267  Uiso   1.00
H19    H     0.45300   0.22220   0.27280   0.01267  Uiso   1.00
H20    H     0.45190   0.24780   0.33530   0.01267  Uiso   1.00
H21    H     0.78400   0.33790   0.87390   0.01267  Uiso   1.00
H22    H     0.68350   0.29830   0.76800   0.01267  Uiso   1.00
H23    H     0.80560   0.37060   0.80980   0.01267  Uiso   1.00
H24    H     0.71900   0.29980   0.67120   0.01267  Uiso   1.00
H25    H     0.72900   0.24670   0.71570   0.01267  Uiso   1.00
H26    H     0.85960   0.31940   0.77020   0.01267  Uiso   1.00
H27    H     0.79510   0.21800   0.78290   0.01267  Uiso   1.00
H28    H     0.96740   0.31330   0.82950   0.01267  Uiso   1.00
H29    H     0.89480   0.25060   0.85940   0.01267  Uiso   1.00
H30    H     0.88860   0.22720   0.79340   0.01267  Uiso   1.00
H31    H     0.87760   0.30130   0.70310   0.01267  Uiso   1.00
H32    H     0.77060   0.26600   0.63800   0.01267  Uiso   1.00
H33    H     0.85150   0.25360   0.60490   0.01267  Uiso   1.00
H34    H     0.76650   0.11240   0.49090   0.01267  Uiso   1.00
H35    H     0.76250   0.14610   0.58680   0.01267  Uiso   1.00
H36    H     0.87260   0.16630   0.58150   0.01267  Uiso   1.00
H37    H     0.84660   0.15250   0.67250   0.01267  Uiso   1.00
H38    H     0.00030   0.17570   0.67520   0.01267  Uiso   1.00
H39    H     0.94940   0.18020   0.72720   0.01267  Uiso   1.00
H40    H     0.91250   0.11660   0.66470   0.01267  Uiso   1.00
H41    H     0.21600   0.08990   0.55390   0.01267  Uiso   1.00
H42    H     0.31650   0.08450   0.61480   0.01267  Uiso   1.00
H43    H     0.19440   0.00420   0.56500   0.01267  Uiso   1.00
H44    H     0.28100   0.95220   0.58080   0.01267  Uiso   1.00
H45    H     0.27100   0.98670   0.51770   0.01267  Uiso   1.00
H46    H     0.14040   0.91060   0.45980   0.01267  Uiso   1.00
H47    H     0.20490   0.98780   0.42290   0.01267  Uiso   1.00
H48    H     0.03260   0.86210   0.34590   0.01267  Uiso   1.00
H49    H     0.10520   0.96460   0.35580   0.01267  Uiso   1.00
H50    H     0.11140   0.90480   0.33860   0.01267  Uiso   1.00
H51    H     0.12240   0.82550   0.42370   0.01267  Uiso   1.00
H52    H     0.22940   0.86740   0.49540   0.01267  Uiso   1.00
H53    H     0.14850   0.75340   0.40210   0.01267  Uiso   1.00
H54    H     0.23350   0.72440   0.34590   0.01267  Uiso   1.00
H55    H     0.23750   0.82430   0.38360   0.01267  Uiso   1.00
H56    H     0.12740   0.70890   0.29370   0.01267  Uiso   1.00
H57    H     0.15340   0.82590   0.30590   0.01267  Uiso   1.00
H58    H     0.99970   0.67490   0.17540   0.01267  Uiso   1.00
H59    H     0.05060   0.77780   0.23080   0.01267  Uiso   1.00
H60    H     0.08750   0.75220   0.20410   0.01267  Uiso   1.00
H61    H     0.53600   0.66210   0.44610   0.01267  Uiso   1.00
H62    H     0.46970   0.70170   0.38520   0.01267  Uiso   1.00
H63    H     0.43920   0.62940   0.43500   0.01267  Uiso   1.00
H64    H     0.37140   0.70020   0.41920   0.01267  Uiso   1.00
H65    H     0.46900   0.75330   0.48230   0.01267  Uiso   1.00
H66    H     0.45080   0.68060   0.54020   0.01267  Uiso   1.00
H67    H     0.56490   0.78200   0.57710   0.01267  Uiso   1.00
H68    H     0.51620   0.68670   0.65410   0.01267  Uiso   1.00
H69    H     0.60880   0.74940   0.64420   0.01267  Uiso   1.00
H70    H     0.56620   0.77280   0.66140   0.01267  Uiso   1.00
H71    H     0.40180   0.69870   0.57630   0.01267  Uiso   1.00
H72    H     0.37200   0.73400   0.50460   0.01267  Uiso   1.00
H73    H     0.35130   0.74640   0.59790   0.01267  Uiso   1.00
H74    H     0.37850   0.88760   0.65410   0.01267  Uiso   1.00
H75    H     0.44070   0.85390   0.61640   0.01267  Uiso   1.00
H76    H     0.41520   0.83370   0.70630   0.01267  Uiso   1.00
H77    H     0.52000   0.84750   0.69410   0.01267  Uiso   1.00
H78    H     0.49950   0.82430   0.82460   0.01267  Uiso   1.00
H79    H     0.54700   0.81980   0.76920   0.01267  Uiso   1.00
H80    H     0.54810   0.88340   0.79590   0.01267  Uiso   1.00
H81    H     0.55390   0.21600   0.08990   0.01267  Uiso   1.00
H82    H     0.61480   0.31650   0.08450   0.01267  Uiso   1.00
H83    H     0.56500   0.19440   0.00420   0.01267  Uiso   1.00
H84    H     0.58080   0.28100   0.95220   0.01267  Uiso   1.00
H85    H     0.51770   0.27100   0.98670   0.01267  Uiso   1.00
H86    H     0.45980   0.14040   0.91060   0.01267  Uiso   1.00
H87    H     0.42290   0.20490   0.98780   0.01267  Uiso   1.00
H88    H     0.34590   0.03260   0.86210   0.01267  Uiso   1.00
H89    H     0.35580   0.10520   0.96460   0.01267  Uiso   1.00
H90    H     0.33860   0.11140   0.90480   0.01267  Uiso   1.00
H91    H     0.42370   0.12240   0.82550   0.01267  Uiso   1.00
H92    H     0.49540   0.22940   0.86740   0.01267  Uiso   1.00
H93    H     0.40210   0.14850   0.75340   0.01267  Uiso   1.00
H94    H     0.34590   0.23350   0.72440   0.01267  Uiso   1.00
H95    H     0.38360   0.23750   0.82430   0.01267  Uiso   1.00
H96    H     0.29370   0.12740   0.70890   0.01267  Uiso   1.00
H97    H     0.30590   0.15340   0.82590   0.01267  Uiso   1.00
H98    H     0.17540   0.99970   0.67490   0.01267  Uiso   1.00
H99    H     0.23080   0.05060   0.77780   0.01267  Uiso   1.00
H100   H     0.20410   0.08750   0.75220   0.01267  Uiso   1.00
H101   H     0.44610   0.53600   0.66210   0.01267  Uiso   1.00
H102   H     0.38520   0.46970   0.70170   0.01267  Uiso   1.00
H103   H     0.43500   0.43920   0.62940   0.01267  Uiso   1.00
H104   H     0.41920   0.37140   0.70020   0.01267  Uiso   1.00
H105   H     0.48230   0.46900   0.75330   0.01267  Uiso   1.00
H106   H     0.54020   0.45080   0.68060   0.01267  Uiso   1.00
H107   H     0.57710   0.56490   0.78200   0.01267  Uiso   1.00
H108   H     0.65410   0.51620   0.68670   0.01267  Uiso   1.00
H109   H     0.64420   0.60880   0.74940   0.01267  Uiso   1.00
H110   H     0.66140   0.56620   0.77280   0.01267  Uiso   1.00
H111   H     0.57630   0.40180   0.69870   0.01267  Uiso   1.00
H112   H     0.50460   0.37200   0.73400   0.01267  Uiso   1.00
H113   H     0.59790   0.35130   0.74640   0.01267  Uiso   1.00
H114   H     0.65410   0.37850   0.88760   0.01267  Uiso   1.00
H115   H     0.61640   0.44070   0.85390   0.01267  Uiso   1.00
H116   H     0.70630   0.41520   0.83370   0.01267  Uiso   1.00
H117   H     0.69410   0.52000   0.84750   0.01267  Uiso   1.00
H118   H     0.82460   0.49950   0.82430   0.01267  Uiso   1.00
H119   H     0.76920   0.54700   0.81980   0.01267  Uiso   1.00
H120   H     0.79590   0.54810   0.88340   0.01267  Uiso   1.00
H121   H     0.12610   0.46400   0.91010   0.01267  Uiso   1.00
H122   H     0.23200   0.53030   0.91550   0.01267  Uiso   1.00
H123   H     0.19020   0.56080   0.99580   0.01267  Uiso   1.00
H124   H     0.32880   0.62860   0.04780   0.01267  Uiso   1.00
H125   H     0.28430   0.53100   0.01330   0.01267  Uiso   1.00
H126   H     0.22980   0.54920   0.08940   0.01267  Uiso   1.00
H127   H     0.21710   0.43510   0.01220   0.01267  Uiso   1.00
H128   H     0.17050   0.48380   0.13790   0.01267  Uiso   1.00
H129   H     0.14060   0.39120   0.03540   0.01267  Uiso   1.00
H130   H     0.20660   0.43380   0.09520   0.01267  Uiso   1.00
H131   H     0.29690   0.59820   0.17450   0.01267  Uiso   1.00
H132   H     0.36200   0.62800   0.13260   0.01267  Uiso   1.00
H133   H     0.39510   0.64870   0.24660   0.01267  Uiso   1.00
H134   H     0.50910   0.62150   0.27560   0.01267  Uiso   1.00
H135   H     0.41320   0.55930   0.17570   0.01267  Uiso   1.00
H136   H     0.41850   0.58480   0.29110   0.01267  Uiso   1.00
H137   H     0.32750   0.48000   0.17410   0.01267  Uiso   1.00
H138   H     0.32480   0.50050   0.32510   0.01267  Uiso   1.00
H139   H     0.27280   0.45300   0.22220   0.01267  Uiso   1.00
H140   H     0.33530   0.45190   0.24780   0.01267  Uiso   1.00
H141   H     0.87390   0.78400   0.33790   0.01267  Uiso   1.00
H142   H     0.76800   0.68350   0.29830   0.01267  Uiso   1.00
H143   H     0.80980   0.80560   0.37060   0.01267  Uiso   1.00
H144   H     0.67120   0.71900   0.29980   0.01267  Uiso   1.00
H145   H     0.71570   0.72900   0.24670   0.01267  Uiso   1.00
H146   H     0.77020   0.85960   0.31940   0.01267  Uiso   1.00
H147   H     0.78290   0.79510   0.21800   0.01267  Uiso   1.00
H148   H     0.82950   0.96740   0.31330   0.01267  Uiso   1.00
H149   H     0.85940   0.89480   0.25060   0.01267  Uiso   1.00
H150   H     0.79340   0.88860   0.22720   0.01267  Uiso   1.00
H151   H     0.70310   0.87760   0.30130   0.01267  Uiso   1.00
H152   H     0.63800   0.77060   0.26600   0.01267  Uiso   1.00
H153   H     0.60490   0.85150   0.25360   0.01267  Uiso   1.00
H154   H     0.49090   0.76650   0.11240   0.01267  Uiso   1.00
H155   H     0.58680   0.76250   0.14610   0.01267  Uiso   1.00
H156   H     0.58150   0.87260   0.16630   0.01267  Uiso   1.00
H157   H     0.67250   0.84660   0.15250   0.01267  Uiso   1.00
H158   H     0.67520   0.00030   0.17570   0.01267  Uiso   1.00
H159   H     0.72720   0.94940   0.18020   0.01267  Uiso   1.00
H160   H     0.66470   0.91250   0.11660   0.01267  Uiso   1.00
H161   H     0.33790   0.87390   0.78400   0.01267  Uiso   1.00
H162   H     0.29830   0.76800   0.68350   0.01267  Uiso   1.00
H163   H     0.37060   0.80980   0.80560   0.01267  Uiso   1.00
H164   H     0.29980   0.67120   0.71900   0.01267  Uiso   1.00
H165   H     0.24670   0.71570   0.72900   0.01267  Uiso   1.00
H166   H     0.31940   0.77020   0.85960   0.01267  Uiso   1.00
H167   H     0.21800   0.78290   0.79510   0.01267  Uiso   1.00
H168   H     0.31330   0.82950   0.96740   0.01267  Uiso   1.00
H169   H     0.25060   0.85940   0.89480   0.01267  Uiso   1.00
H170   H     0.22720   0.79340   0.88860   0.01267  Uiso   1.00
H171   H     0.30130   0.70310   0.87760   0.01267  Uiso   1.00
H172   H     0.26600   0.63800   0.77060   0.01267  Uiso   1.00
H173   H     0.25360   0.60490   0.85150   0.01267  Uiso   1.00
H174   H     0.11240   0.49090   0.76650   0.01267  Uiso   1.00
H175   H     0.14610   0.58680   0.76250   0.01267  Uiso   1.00
H176   H     0.16630   0.58150   0.87260   0.01267  Uiso   1.00
H177   H     0.15250   0.67250   0.84660   0.01267  Uiso   1.00
H178   H     0.17570   0.67520   0.00030   0.01267  Uiso   1.00
H179   H     0.18020   0.72720   0.94940   0.01267  Uiso   1.00
H180   H     0.11660   0.66470   0.91250   0.01267  Uiso   1.00
H181   H     0.91010   0.12610   0.46400   0.01267  Uiso   1.00
H182   H     0.91550   0.23200   0.53030   0.01267  Uiso   1.00
H183   H     0.99580   0.19020   0.56080   0.01267  Uiso   1.00
H184   H     0.04780   0.32880   0.62860   0.01267  Uiso   1.00
H185   H     0.01330   0.28430   0.53100   0.01267  Uiso   1.00
H186   H     0.08940   0.22980   0.54920   0.01267  Uiso   1.00
H187   H     0.01220   0.21710   0.43510   0.01267  Uiso   1.00
H188   H     0.13790   0.17050   0.48380   0.01267  Uiso   1.00
H189   H     0.03540   0.14060   0.39120   0.01267  Uiso   1.00
H190   H     0.09520   0.20660   0.43380   0.01267  Uiso   1.00
H191   H     0.17450   0.29690   0.59820   0.01267  Uiso   1.00
H192   H     0.13260   0.36200   0.62800   0.01267  Uiso   1.00
H193   H     0.24660   0.39510   0.64870   0.01267  Uiso   1.00
H194   H     0.27560   0.50910   0.62150   0.01267  Uiso   1.00
H195   H     0.17570   0.41320   0.55930   0.01267  Uiso   1.00
H196   H     0.29110   0.41850   0.58480   0.01267  Uiso   1.00
H197   H     0.17410   0.32750   0.48000   0.01267  Uiso   1.00
H198   H     0.32510   0.32480   0.50050   0.01267  Uiso   1.00
H199   H     0.22220   0.27280   0.45300   0.01267  Uiso   1.00
H200   H     0.24780   0.33530   0.45190   0.01267  Uiso   1.00
H201   H     0.66210   0.44610   0.53600   0.01267  Uiso   1.00
H202   H     0.70170   0.38520   0.46970   0.01267  Uiso   1.00
H203   H     0.62940   0.43500   0.43920   0.01267  Uiso   1.00
H204   H     0.70020   0.41920   0.37140   0.01267  Uiso   1.00
H205   H     0.75330   0.48230   0.46900   0.01267  Uiso   1.00
H206   H     0.68060   0.54020   0.45080   0.01267  Uiso   1.00
H207   H     0.78200   0.57710   0.56490   0.01267  Uiso   1.00
H208   H     0.68670   0.65410   0.51620   0.01267  Uiso   1.00
H209   H     0.74940   0.64420   0.60880   0.01267  Uiso   1.00
H210   H     0.77280   0.66140   0.56620   0.01267  Uiso   1.00
H211   H     0.69870   0.57630   0.40180   0.01267  Uiso   1.00
H212   H     0.73400   0.50460   0.37200   0.01267  Uiso   1.00
H213   H     0.74640   0.59790   0.35130   0.01267  Uiso   1.00
H214   H     0.88760   0.65410   0.37850   0.01267  Uiso   1.00
H215   H     0.85390   0.61640   0.44070   0.01267  Uiso   1.00
H216   H     0.83370   0.70630   0.41520   0.01267  Uiso   1.00
H217   H     0.84750   0.69410   0.52000   0.01267  Uiso   1.00
H218   H     0.82430   0.82460   0.49950   0.01267  Uiso   1.00
H219   H     0.81980   0.76920   0.54700   0.01267  Uiso   1.00
H220   H     0.88340   0.79590   0.54810   0.01267  Uiso   1.00
H221   H     0.08990   0.55390   0.21600   0.01267  Uiso   1.00
H222   H     0.08450   0.61480   0.31650   0.01267  Uiso   1.00
H223   H     0.00420   0.56500   0.19440   0.01267  Uiso   1.00
H224   H     0.95220   0.58080   0.28100   0.01267  Uiso   1.00
H225   H     0.98670   0.51770   0.27100   0.01267  Uiso   1.00
H226   H     0.91060   0.45980   0.14040   0.01267  Uiso   1.00
H227   H     0.98780   0.42290   0.20490   0.01267  Uiso   1.00
H228   H     0.86210   0.34590   0.03260   0.01267  Uiso   1.00
H229   H     0.96460   0.35580   0.10520   0.01267  Uiso   1.00
H230   H     0.90480   0.33860   0.11140   0.01267  Uiso   1.00
H231   H     0.82550   0.42370   0.12240   0.01267  Uiso   1.00
H232   H     0.86740   0.49540   0.22940   0.01267  Uiso   1.00
H233   H     0.75340   0.40210   0.14850   0.01267  Uiso   1.00
H234   H     0.72440   0.34590   0.23350   0.01267  Uiso   1.00
H235   H     0.82430   0.38360   0.23750   0.01267  Uiso   1.00
H236   H     0.70890   0.29370   0.12740   0.01267  Uiso   1.00
H237   H     0.82590   0.30590   0.15340   0.01267  Uiso   1.00
H238   H     0.67490   0.17540   0.99970   0.01267  Uiso   1.00
H239   H     0.77780   0.23080   0.05060   0.01267  Uiso   1.00
H240   H     0.75220   0.20410   0.08750   0.01267  Uiso   1.00
H241   H     0.08990   0.53600   0.87390   0.01267  Uiso   1.00
H242   H     0.08450   0.46970   0.76800   0.01267  Uiso   1.00
H243   H     0.00420   0.43920   0.80980   0.01267  Uiso   1.00
H244   H     0.95220   0.37140   0.67120   0.01267  Uiso   1.00
H245   H     0.98670   0.46900   0.71570   0.01267  Uiso   1.00
H246   H     0.91060   0.45080   0.77020   0.01267  Uiso   1.00
H247   H     0.98780   0.56490   0.78290   0.01267  Uiso   1.00
H248   H     0.86210   0.51620   0.82950   0.01267  Uiso   1.00
H249   H     0.96460   0.60880   0.85940   0.01267  Uiso   1.00
H250   H     0.90480   0.56620   0.79340   0.01267  Uiso   1.00
H251   H     0.82550   0.40180   0.70310   0.01267  Uiso   1.00
H252   H     0.86740   0.37200   0.63800   0.01267  Uiso   1.00
H253   H     0.75340   0.35130   0.60490   0.01267  Uiso   1.00
H254   H     0.72440   0.37850   0.49090   0.01267  Uiso   1.00
H255   H     0.82430   0.44070   0.58680   0.01267  Uiso   1.00
H256   H     0.70890   0.41520   0.58150   0.01267  Uiso   1.00
H257   H     0.82590   0.52000   0.67250   0.01267  Uiso   1.00
H258   H     0.67490   0.49950   0.67520   0.01267  Uiso   1.00
H259   H     0.77780   0.54700   0.72720   0.01267  Uiso   1.00
H260   H     0.75220   0.54810   0.66470   0.01267  Uiso   1.00
H261   H     0.66210   0.21600   0.12610   0.01267  Uiso   1.00
H262   H     0.70170   0.31650   0.23200   0.01267  Uiso   1.00
H263   H     0.62940   0.19440   0.19020   0.01267  Uiso   1.00
H264   H     0.70020   0.28100   0.32880   0.01267  Uiso   1.00
H265   H     0.75330   0.27100   0.28430   0.01267  Uiso   1.00
H266   H     0.68060   0.14040   0.22980   0.01267  Uiso   1.00
H267   H     0.78200   0.20490   0.21710   0.01267  Uiso   1.00
H268   H     0.68670   0.03260   0.17050   0.01267  Uiso   1.00
H269   H     0.74940   0.10520   0.14060   0.01267  Uiso   1.00
H270   H     0.77280   0.11140   0.20660   0.01267  Uiso   1.00
H271   H     0.69870   0.12240   0.29690   0.01267  Uiso   1.00
H272   H     0.73400   0.22940   0.36200   0.01267  Uiso   1.00
H273   H     0.74640   0.14850   0.39510   0.01267  Uiso   1.00
H274   H     0.88760   0.23350   0.50910   0.01267  Uiso   1.00
H275   H     0.85390   0.23750   0.41320   0.01267  Uiso   1.00
H276   H     0.83370   0.12740   0.41850   0.01267  Uiso   1.00
H277   H     0.84750   0.15340   0.32750   0.01267  Uiso   1.00
H278   H     0.82430   0.99970   0.32480   0.01267  Uiso   1.00
H279   H     0.81980   0.05060   0.27280   0.01267  Uiso   1.00
H280   H     0.88340   0.08750   0.33530   0.01267  Uiso   1.00
H281   H     0.91010   0.78400   0.44610   0.01267  Uiso   1.00
H282   H     0.91550   0.68350   0.38520   0.01267  Uiso   1.00
H283   H     0.99580   0.80560   0.43500   0.01267  Uiso   1.00
H284   H     0.04780   0.71900   0.41920   0.01267  Uiso   1.00
H285   H     0.01330   0.72900   0.48230   0.01267  Uiso   1.00
H286   H     0.08940   0.85960   0.54020   0.01267  Uiso   1.00
H287   H     0.01220   0.79510   0.57710   0.01267  Uiso   1.00
H288   H     0.13790   0.96740   0.65410   0.01267  Uiso   1.00
H289   H     0.03540   0.89480   0.64420   0.01267  Uiso   1.00
H290   H     0.09520   0.88860   0.66140   0.01267  Uiso   1.00
H291   H     0.17450   0.87760   0.57630   0.01267  Uiso   1.00
H292   H     0.13260   0.77060   0.50460   0.01267  Uiso   1.00
H293   H     0.24660   0.85150   0.59790   0.01267  Uiso   1.00
H294   H     0.27560   0.76650   0.65410   0.01267  Uiso   1.00
H295   H     0.17570   0.76250   0.61640   0.01267  Uiso   1.00
H296   H     0.29110   0.87260   0.70630   0.01267  Uiso   1.00
H297   H     0.17410   0.84660   0.69410   0.01267  Uiso   1.00
H298   H     0.32510   0.00030   0.82460   0.01267  Uiso   1.00
H299   H     0.22220   0.94940   0.76920   0.01267  Uiso   1.00
H300   H     0.24780   0.91250   0.79590   0.01267  Uiso   1.00
H301   H     0.33790   0.46400   0.55390   0.01267  Uiso   1.00
H302   H     0.29830   0.53030   0.61480   0.01267  Uiso   1.00
H303   H     0.37060   0.56080   0.56500   0.01267  Uiso   1.00
H304   H     0.29980   0.62860   0.58080   0.01267  Uiso   1.00
H305   H     0.24670   0.53100   0.51770   0.01267  Uiso   1.00
H306   H     0.31940   0.54920   0.45980   0.01267  Uiso   1.00
H307   H     0.21800   0.43510   0.42290   0.01267  Uiso   1.00
H308   H     0.31330   0.48380   0.34590   0.01267  Uiso   1.00
H309   H     0.25060   0.39120   0.35580   0.01267  Uiso   1.00
H310   H     0.22720   0.43380   0.33860   0.01267  Uiso   1.00
H311   H     0.30130   0.59820   0.42370   0.01267  Uiso   1.00
H312   H     0.26600   0.62800   0.49540   0.01267  Uiso   1.00
H313   H     0.25360   0.64870   0.40210   0.01267  Uiso   1.00
H314   H     0.11240   0.62150   0.34590   0.01267  Uiso   1.00
H315   H     0.14610   0.55930   0.38360   0.01267  Uiso   1.00
H316   H     0.16630   0.58480   0.29370   0.01267  Uiso   1.00
H317   H     0.15250   0.48000   0.30590   0.01267  Uiso   1.00
H318   H     0.17570   0.50050   0.17540   0.01267  Uiso   1.00
H319   H     0.18020   0.45300   0.23080   0.01267  Uiso   1.00
H320   H     0.11660   0.45190   0.20410   0.01267  Uiso   1.00
H321   H     0.78400   0.44610   0.91010   0.01267  Uiso   1.00
H322   H     0.68350   0.38520   0.91550   0.01267  Uiso   1.00
H323   H     0.80560   0.43500   0.99580   0.01267  Uiso   1.00
H324   H     0.71900   0.41920   0.04780   0.01267  Uiso   1.00
H325   H     0.72900   0.48230   0.01330   0.01267  Uiso   1.00
H326   H     0.85960   0.54020   0.08940   0.01267  Uiso   1.00
H327   H     0.79510   0.57710   0.01220   0.01267  Uiso   1.00
H328   H     0.96740   0.65410   0.13790   0.01267  Uiso   1.00
H329   H     0.89480   0.64420   0.03540   0.01267  Uiso   1.00
H330   H     0.88860   0.66140   0.09520   0.01267  Uiso   1.00
H331   H     0.87760   0.57630   0.17450   0.01267  Uiso   1.00
H332   H     0.77060   0.50460   0.13260   0.01267  Uiso   1.00
H333   H     0.85150   0.59790   0.24660   0.01267  Uiso   1.00
H334   H     0.76650   0.65410   0.27560   0.01267  Uiso   1.00
H335   H     0.76250   0.61640   0.17570   0.01267  Uiso   1.00
H336   H     0.87260   0.70630   0.29110   0.01267  Uiso   1.00
H337   H     0.84660   0.69410   0.17410   0.01267  Uiso   1.00
H338   H     0.00030   0.82460   0.32510   0.01267  Uiso   1.00
H339   H     0.94940   0.76920   0.22220   0.01267  Uiso   1.00
H340   H     0.91250   0.79590   0.24780   0.01267  Uiso   1.00
H341   H     0.46400   0.55390   0.33790   0.01267  Uiso   1.00
H342   H     0.53030   0.61480   0.29830   0.01267  Uiso   1.00
H343   H     0.56080   0.56500   0.37060   0.01267  Uiso   1.00
H344   H     0.62860   0.58080   0.29980   0.01267  Uiso   1.00
H345   H     0.53100   0.51770   0.24670   0.01267  Uiso   1.00
H346   H     0.54920   0.45980   0.31940   0.01267  Uiso   1.00
H347   H     0.43510   0.42290   0.21800   0.01267  Uiso   1.00
H348   H     0.48380   0.34590   0.31330   0.01267  Uiso   1.00
H349   H     0.39120   0.35580   0.25060   0.01267  Uiso   1.00
H350   H     0.43380   0.33860   0.22720   0.01267  Uiso   1.00
H351   H     0.59820   0.42370   0.30130   0.01267  Uiso   1.00
H352   H     0.62800   0.49540   0.26600   0.01267  Uiso   1.00
H353   H     0.64870   0.40210   0.25360   0.01267  Uiso   1.00
H354   H     0.62150   0.34590   0.11240   0.01267  Uiso   1.00
H355   H     0.55930   0.38360   0.14610   0.01267  Uiso   1.00
H356   H     0.58480   0.29370   0.16630   0.01267  Uiso   1.00
H357   H     0.48000   0.30590   0.15250   0.01267  Uiso   1.00
H358   H     0.50050   0.17540   0.17570   0.01267  Uiso   1.00
H359   H     0.45300   0.23080   0.18020   0.01267  Uiso   1.00
H360   H     0.45190   0.20410   0.11660   0.01267  Uiso   1.00
H361   H     0.53600   0.87390   0.08990   0.01267  Uiso   1.00
H362   H     0.46970   0.76800   0.08450   0.01267  Uiso   1.00
H363   H     0.43920   0.80980   0.00420   0.01267  Uiso   1.00
H364   H     0.37140   0.67120   0.95220   0.01267  Uiso   1.00
H365   H     0.46900   0.71570   0.98670   0.01267  Uiso   1.00
H366   H     0.45080   0.77020   0.91060   0.01267  Uiso   1.00
H367   H     0.56490   0.78290   0.98780   0.01267  Uiso   1.00
H368   H     0.51620   0.82950   0.86210   0.01267  Uiso   1.00
H369   H     0.60880   0.85940   0.96460   0.01267  Uiso   1.00
H370   H     0.56620   0.79340   0.90480   0.01267  Uiso   1.00
H371   H     0.40180   0.70310   0.82550   0.01267  Uiso   1.00
H372   H     0.37200   0.63800   0.86740   0.01267  Uiso   1.00
H373   H     0.35130   0.60490   0.75340   0.01267  Uiso   1.00
H374   H     0.37850   0.49090   0.72440   0.01267  Uiso   1.00
H375   H     0.44070   0.58680   0.82430   0.01267  Uiso   1.00
H376   H     0.41520   0.58150   0.70890   0.01267  Uiso   1.00
H377   H     0.52000   0.67250   0.82590   0.01267  Uiso   1.00
H378   H     0.49950   0.67520   0.67490   0.01267  Uiso   1.00
H379   H     0.54700   0.72720   0.77780   0.01267  Uiso   1.00
H380   H     0.54810   0.66470   0.75220   0.01267  Uiso   1.00
H381   H     0.21600   0.12610   0.66210   0.01267  Uiso   1.00
H382   H     0.31650   0.23200   0.70170   0.01267  Uiso   1.00
H383   H     0.19440   0.19020   0.62940   0.01267  Uiso   1.00
H384   H     0.28100   0.32880   0.70020   0.01267  Uiso   1.00
H385   H     0.27100   0.28430   0.75330   0.01267  Uiso   1.00
H386   H     0.14040   0.22980   0.68060   0.01267  Uiso   1.00
H387   H     0.20490   0.21710   0.78200   0.01267  Uiso   1.00
H388   H     0.03260   0.17050   0.68670   0.01267  Uiso   1.00
H389   H     0.10520   0.14060   0.74940   0.01267  Uiso   1.00
H390   H     0.11140   0.20660   0.77280   0.01267  Uiso   1.00
H391   H     0.12240   0.29690   0.69870   0.01267  Uiso   1.00
H392   H     0.22940   0.36200   0.73400   0.01267  Uiso   1.00
H393   H     0.14850   0.39510   0.74640   0.01267  Uiso   1.00
H394   H     0.23350   0.50910   0.88760   0.01267  Uiso   1.00
H395   H     0.23750   0.41320   0.85390   0.01267  Uiso   1.00
H396   H     0.12740   0.41850   0.83370   0.01267  Uiso   1.00
H397   H     0.15340   0.32750   0.84750   0.01267  Uiso   1.00
H398   H     0.99970   0.32480   0.82430   0.01267  Uiso   1.00
H399   H     0.05060   0.27280   0.81980   0.01267  Uiso   1.00
H400   H     0.08750   0.33530   0.88340   0.01267  Uiso   1.00
H401   H     0.12610   0.66210   0.21600   0.01267  Uiso   1.00
H402   H     0.23200   0.70170   0.31650   0.01267  Uiso   1.00
H403   H     0.19020   0.62940   0.19440   0.01267  Uiso   1.00
H404   H     0.32880   0.70020   0.28100   0.01267  Uiso   1.00
H405   H     0.28430   0.75330   0.27100   0.01267  Uiso   1.00
H406   H     0.22980   0.68060   0.14040   0.01267  Uiso   1.00
H407   H     0.21710   0.78200   0.20490   0.01267  Uiso   1.00
H408   H     0.17050   0.68670   0.03260   0.01267  Uiso   1.00
H409   H     0.14060   0.74940   0.10520   0.01267  Uiso   1.00
H410   H     0.20660   0.77280   0.11140   0.01267  Uiso   1.00
H411   H     0.29690   0.69870   0.12240   0.01267  Uiso   1.00
H412   H     0.36200   0.73400   0.22940   0.01267  Uiso   1.00
H413   H     0.39510   0.74640   0.14850   0.01267  Uiso   1.00
H414   H     0.50910   0.88760   0.23350   0.01267  Uiso   1.00
H415   H     0.41320   0.85390   0.23750   0.01267  Uiso   1.00
H416   H     0.41850   0.83370   0.12740   0.01267  Uiso   1.00
H417   H     0.32750   0.84750   0.15340   0.01267  Uiso   1.00
H418   H     0.32480   0.82430   0.99970   0.01267  Uiso   1.00
H419   H     0.27280   0.81980   0.05060   0.01267  Uiso   1.00
H420   H     0.33530   0.88340   0.08750   0.01267  Uiso   1.00
H421   H     0.87390   0.08990   0.53600   0.01267  Uiso   1.00
H422   H     0.76800   0.08450   0.46970   0.01267  Uiso   1.00
H423   H     0.80980   0.00420   0.43920   0.01267  Uiso   1.00
H424   H     0.67120   0.95220   0.37140   0.01267  Uiso   1.00
H425   H     0.71570   0.98670   0.46900   0.01267  Uiso   1.00
H426   H     0.77020   0.91060   0.45080   0.01267  Uiso   1.00
H427   H     0.78290   0.98780   0.56490   0.01267  Uiso   1.00
H428   H     0.82950   0.86210   0.51620   0.01267  Uiso   1.00
H429   H     0.85940   0.96460   0.60880   0.01267  Uiso   1.00
H430   H     0.79340   0.90480   0.56620   0.01267  Uiso   1.00
H431   H     0.70310   0.82550   0.40180   0.01267  Uiso   1.00
H432   H     0.63800   0.86740   0.37200   0.01267  Uiso   1.00
H433   H     0.60490   0.75340   0.35130   0.01267  Uiso   1.00
H434   H     0.49090   0.72440   0.37850   0.01267  Uiso   1.00
H435   H     0.58680   0.82430   0.44070   0.01267  Uiso   1.00
H436   H     0.58150   0.70890   0.41520   0.01267  Uiso   1.00
H437   H     0.67250   0.82590   0.52000   0.01267  Uiso   1.00
H438   H     0.67520   0.67490   0.49950   0.01267  Uiso   1.00
H439   H     0.72720   0.77780   0.54700   0.01267  Uiso   1.00
H440   H     0.66470   0.75220   0.54810   0.01267  Uiso   1.00
H441   H     0.55390   0.33790   0.46400   0.01267  Uiso   1.00
H442   H     0.61480   0.29830   0.53030   0.01267  Uiso   1.00
H443   H     0.56500   0.37060   0.56080   0.01267  Uiso   1.00
H444   H     0.58080   0.29980   0.62860   0.01267  Uiso   1.00
H445   H     0.51770   0.24670   0.53100   0.01267  Uiso   1.00
H446   H     0.45980   0.31940   0.54920   0.01267  Uiso   1.00
H447   H     0.42290   0.21800   0.43510   0.01267  Uiso   1.00
H448   H     0.34590   0.31330   0.48380   0.01267  Uiso   1.00
H449   H     0.35580   0.25060   0.39120   0.01267  Uiso   1.00
H450   H     0.33860   0.22720   0.43380   0.01267  Uiso   1.00
H451   H     0.42370   0.30130   0.59820   0.01267  Uiso   1.00
H452   H     0.49540   0.26600   0.62800   0.01267  Uiso   1.00
H453   H     0.40210   0.25360   0.64870   0.01267  Uiso   1.00
H454   H     0.34590   0.11240   0.62150   0.01267  Uiso   1.00
H455   H     0.38360   0.14610   0.55930   0.01267  Uiso   1.00
H456   H     0.29370   0.16630   0.58480   0.01267  Uiso   1.00
H457   H     0.30590   0.15250   0.48000   0.01267  Uiso   1.00
H458   H     0.17540   0.17570   0.50050   0.01267  Uiso   1.00
H459   H     0.23080   0.18020   0.45300   0.01267  Uiso   1.00
H460   H     0.20410   0.11660   0.45190   0.01267  Uiso   1.00
H461   H     0.44610   0.91010   0.78400   0.01267  Uiso   1.00
H462   H     0.38520   0.91550   0.68350   0.01267  Uiso   1.00
H463   H     0.43500   0.99580   0.80560   0.01267  Uiso   1.00
H464   H     0.41920   0.04780   0.71900   0.01267  Uiso   1.00
H465   H     0.48230   0.01330   0.72900   0.01267  Uiso   1.00
H466   H     0.54020   0.08940   0.85960   0.01267  Uiso   1.00
H467   H     0.57710   0.01220   0.79510   0.01267  Uiso   1.00
H468   H     0.65410   0.13790   0.96740   0.01267  Uiso   1.00
H469   H     0.64420   0.03540   0.89480   0.01267  Uiso   1.00
H470   H     0.66140   0.09520   0.88860   0.01267  Uiso   1.00
H471   H     0.57630   0.17450   0.87760   0.01267  Uiso   1.00
H472   H     0.50460   0.13260   0.77060   0.01267  Uiso   1.00
H473   H     0.59790   0.24660   0.85150   0.01267  Uiso   1.00
H474   H     0.65410   0.27560   0.76650   0.01267  Uiso   1.00
H475   H     0.61640   0.17570   0.76250   0.01267  Uiso   1.00
H476   H     0.70630   0.29110   0.87260   0.01267  Uiso   1.00
H477   H     0.69410   0.17410   0.84660   0.01267  Uiso   1.00
H478   H     0.82460   0.32510   0.00030   0.01267  Uiso   1.00
H479   H     0.76920   0.22220   0.94940   0.01267  Uiso   1.00
H480   H     0.79590   0.24780   0.91250   0.01267  Uiso   1.00
C1     C     0.47140   0.94320   0.16360   0.01267  Uiso   1.00
C2     C     0.53840   0.97870   0.20890   0.01267  Uiso   1.00
C3     C     0.55150   0.03010   0.26420   0.01267  Uiso   1.00
C4     C     0.52670   0.06970   0.24700   0.01267  Uiso   1.00
C5     C     0.45870   0.02930   0.19920   0.01267  Uiso   1.00
C6     C     0.43380   0.06390   0.17410   0.01267  Uiso   1.00
C7     C     0.57490   0.17510   0.31920   0.01267  Uiso   1.00
C8     C     0.61760   0.20550   0.38370   0.01267  Uiso   1.00
C9     C     0.58890   0.21580   0.42150   0.01267  Uiso   1.00
C10    C     0.55490   0.24890   0.40580   0.01267  Uiso   1.00
C11    C     0.51100   0.21500   0.33880   0.01267  Uiso   1.00
C12    C     0.47870   0.24570   0.31780   0.01267  Uiso   1.00
C13    C     0.77960   0.30780   0.83640   0.01267  Uiso   1.00
C14    C     0.76980   0.32950   0.79110   0.01267  Uiso   1.00
C15    C     0.76590   0.28730   0.73580   0.01267  Uiso   1.00
C16    C     0.82270   0.27970   0.75300   0.01267  Uiso   1.00
C17    C     0.83010   0.25950   0.80080   0.01267  Uiso   1.00
C18    C     0.88980   0.25970   0.82590   0.01267  Uiso   1.00
C19    C     0.85590   0.25570   0.68080   0.01267  Uiso   1.00
C20    C     0.82180   0.23390   0.61630   0.01267  Uiso   1.00
C21    C     0.79430   0.16740   0.57850   0.01267  Uiso   1.00
C22    C     0.84310   0.14910   0.59420   0.01267  Uiso   1.00
C23    C     0.87620   0.17220   0.66120   0.01267  Uiso   1.00
C24    C     0.92790   0.16090   0.68220   0.01267  Uiso   1.00
C25    C     0.22040   0.05680   0.52820   0.01267  Uiso   1.00
C26    C     0.23020   0.02130   0.55970   0.01267  Uiso   1.00
C27    C     0.23410   0.96990   0.52140   0.01267  Uiso   1.00
C28    C     0.17730   0.93030   0.45700   0.01267  Uiso   1.00
C29    C     0.16990   0.97070   0.42940   0.01267  Uiso   1.00
C30    C     0.11020   0.93610   0.36990   0.01267  Uiso   1.00
C31    C     0.14410   0.82490   0.39980   0.01267  Uiso   1.00
C32    C     0.17820   0.79450   0.41210   0.01267  Uiso   1.00
C33    C     0.20570   0.78420   0.37310   0.01267  Uiso   1.00
C34    C     0.15690   0.75110   0.30600   0.01267  Uiso   1.00
C35    C     0.12380   0.78500   0.29600   0.01267  Uiso   1.00
C36    C     0.07210   0.75430   0.23300   0.01267  Uiso   1.00
C37    C     0.52860   0.69220   0.47180   0.01267  Uiso   1.00
C38    C     0.46160   0.67050   0.44030   0.01267  Uiso   1.00
C39    C     0.44850   0.71270   0.47860   0.01267  Uiso   1.00
C40    C     0.47330   0.72030   0.54300   0.01267  Uiso   1.00
C41    C     0.54130   0.74050   0.57060   0.01267  Uiso   1.00
C42    C     0.56620   0.74030   0.63010   0.01267  Uiso   1.00
C43    C     0.42510   0.74430   0.60020   0.01267  Uiso   1.00
C44    C     0.38240   0.76610   0.58790   0.01267  Uiso   1.00
C45    C     0.41110   0.83260   0.62690   0.01267  Uiso   1.00
C46    C     0.44510   0.85090   0.69400   0.01267  Uiso   1.00
C47    C     0.48900   0.82780   0.70400   0.01267  Uiso   1.00
C48    C     0.52130   0.83910   0.76700   0.01267  Uiso   1.00
C49    C     0.52820   0.22040   0.05680   0.01267  Uiso   1.00
C50    C     0.55970   0.23020   0.02130   0.01267  Uiso   1.00
C51    C     0.52140   0.23410   0.96990   0.01267  Uiso   1.00
C52    C     0.45700   0.17730   0.93030   0.01267  Uiso   1.00
C53    C     0.42940   0.16990   0.97070   0.01267  Uiso   1.00
C54    C     0.36990   0.11020   0.93610   0.01267  Uiso   1.00
C55    C     0.39980   0.14410   0.82490   0.01267  Uiso   1.00
C56    C     0.41210   0.17820   0.79450   0.01267  Uiso   1.00
C57    C     0.37310   0.20570   0.78420   0.01267  Uiso   1.00
C58    C     0.30600   0.15690   0.75110   0.01267  Uiso   1.00
C59    C     0.29600   0.12380   0.78500   0.01267  Uiso   1.00
C60    C     0.23300   0.07210   0.75430   0.01267  Uiso   1.00
C61    C     0.47180   0.52860   0.69220   0.01267  Uiso   1.00
C62    C     0.44030   0.46160   0.67050   0.01267  Uiso   1.00
C63    C     0.47860   0.44850   0.71270   0.01267  Uiso   1.00
C64    C     0.54300   0.47330   0.72030   0.01267  Uiso   1.00
C65    C     0.57060   0.54130   0.74050   0.01267  Uiso   1.00
C66    C     0.63010   0.56620   0.74030   0.01267  Uiso   1.00
C67    C     0.60020   0.42510   0.74430   0.01267  Uiso   1.00
C68    C     0.58790   0.38240   0.76610   0.01267  Uiso   1.00
C69    C     0.62690   0.41110   0.83260   0.01267  Uiso   1.00
C70    C     0.69400   0.44510   0.85090   0.01267  Uiso   1.00
C71    C     0.70400   0.48900   0.82780   0.01267  Uiso   1.00
C72    C     0.76700   0.52130   0.83910   0.01267  Uiso   1.00
C73    C     0.16360   0.47140   0.94320   0.01267  Uiso   1.00
C74    C     0.20890   0.53840   0.97870   0.01267  Uiso   1.00
C75    C     0.26420   0.55150   0.03010   0.01267  Uiso   1.00
C76    C     0.24700   0.52670   0.06970   0.01267  Uiso   1.00
C77    C     0.19920   0.45870   0.02930   0.01267  Uiso   1.00
C78    C     0.17410   0.43380   0.06390   0.01267  Uiso   1.00
C79    C     0.31920   0.57490   0.17510   0.01267  Uiso   1.00
C80    C     0.38370   0.61760   0.20550   0.01267  Uiso   1.00
C81    C     0.42150   0.58890   0.21580   0.01267  Uiso   1.00
C82    C     0.40580   0.55490   0.24890   0.01267  Uiso   1.00
C83    C     0.33880   0.51100   0.21500   0.01267  Uiso   1.00
C84    C     0.31780   0.47870   0.24570   0.01267  Uiso   1.00
C85    C     0.83640   0.77960   0.30780   0.01267  Uiso   1.00
C86    C     0.79110   0.76980   0.32950   0.01267  Uiso   1.00
C87    C     0.73580   0.76590   0.28730   0.01267  Uiso   1.00
C88    C     0.75300   0.82270   0.27970   0.01267  Uiso   1.00
C89    C     0.80080   0.83010   0.25950   0.01267  Uiso   1.00
C90    C     0.82590   0.88980   0.25970   0.01267  Uiso   1.00
C91    C     0.68080   0.85590   0.25570   0.01267  Uiso   1.00
C92    C     0.61630   0.82180   0.23390   0.01267  Uiso   1.00
C93    C     0.57850   0.79430   0.16740   0.01267  Uiso   1.00
C94    C     0.59420   0.84310   0.14910   0.01267  Uiso   1.00
C95    C     0.66120   0.87620   0.17220   0.01267  Uiso   1.00
C96    C     0.68220   0.92790   0.16090   0.01267  Uiso   1.00
C97    C     0.30780   0.83640   0.77960   0.01267  Uiso   1.00
C98    C     0.32950   0.79110   0.76980   0.01267  Uiso   1.00
C99    C     0.28730   0.73580   0.76590   0.01267  Uiso   1.00
C100   C     0.27970   0.75300   0.82270   0.01267  Uiso   1.00
C101   C     0.25950   0.80080   0.83010   0.01267  Uiso   1.00
C102   C     0.25970   0.82590   0.88980   0.01267  Uiso   1.00
C103   C     0.25570   0.68080   0.85590   0.01267  Uiso   1.00
C104   C     0.23390   0.61630   0.82180   0.01267  Uiso   1.00
C105   C     0.16740   0.57850   0.79430   0.01267  Uiso   1.00
C106   C     0.14910   0.59420   0.84310   0.01267  Uiso   1.00
C107   C     0.17220   0.66120   0.87620   0.01267  Uiso   1.00
C108   C     0.16090   0.68220   0.92790   0.01267  Uiso   1.00
C109   C     0.94320   0.16360   0.47140   0.01267  Uiso   1.00
C110   C     0.97870   0.20890   0.53840   0.01267  Uiso   1.00
C111   C     0.03010   0.26420   0.55150   0.01267  Uiso   1.00
C112   C     0.06970   0.24700   0.52670   0.01267  Uiso   1.00
C113   C     0.02930   0.19920   0.45870   0.01267  Uiso   1.00
C114   C     0.06390   0.17410   0.43380   0.01267  Uiso   1.00
C115   C     0.17510   0.31920   0.57490   0.01267  Uiso   1.00
C116   C     0.20550   0.38370   0.61760   0.01267  Uiso   1.00
C117   C     0.21580   0.42150   0.58890   0.01267  Uiso   1.00
C118   C     0.24890   0.40580   0.55490   0.01267  Uiso   1.00
C119   C     0.21500   0.33880   0.51100   0.01267  Uiso   1.00
C120   C     0.24570   0.31780   0.47870   0.01267  Uiso   1.00
C121   C     0.69220   0.47180   0.52860   0.01267  Uiso   1.00
C122   C     0.67050   0.44030   0.46160   0.01267  Uiso   1.00
C123   C     0.71270   0.47860   0.44850   0.01267  Uiso   1.00
C124   C     0.72030   0.54300   0.47330   0.01267  Uiso   1.00
C125   C     0.74050   0.57060   0.54130   0.01267  Uiso   1.00
C126   C     0.74030   0.63010   0.56620   0.01267  Uiso   1.00
C127   C     0.74430   0.60020   0.42510   0.01267  Uiso   1.00
C128   C     0.76610   0.58790   0.38240   0.01267  Uiso   1.00
C129   C     0.83260   0.62690   0.41110   0.01267  Uiso   1.00
C130   C     0.85090   0.69400   0.44510   0.01267  Uiso   1.00
C131   C     0.82780   0.70400   0.48900   0.01267  Uiso   1.00
C132   C     0.83910   0.76700   0.52130   0.01267  Uiso   1.00
C133   C     0.05680   0.52820   0.22040   0.01267  Uiso   1.00
C134   C     0.02130   0.55970   0.23020   0.01267  Uiso   1.00
C135   C     0.96990   0.52140   0.23410   0.01267  Uiso   1.00
C136   C     0.93030   0.45700   0.17730   0.01267  Uiso   1.00
C137   C     0.97070   0.42940   0.16990   0.01267  Uiso   1.00
C138   C     0.93610   0.36990   0.11020   0.01267  Uiso   1.00
C139   C     0.82490   0.39980   0.14410   0.01267  Uiso   1.00
C140   C     0.79450   0.41210   0.17820   0.01267  Uiso   1.00
C141   C     0.78420   0.37310   0.20570   0.01267  Uiso   1.00
C142   C     0.75110   0.30600   0.15690   0.01267  Uiso   1.00
C143   C     0.78500   0.29600   0.12380   0.01267  Uiso   1.00
C144   C     0.75430   0.23300   0.07210   0.01267  Uiso   1.00
C145   C     0.05680   0.52860   0.83640   0.01267  Uiso   1.00
C146   C     0.02130   0.46160   0.79110   0.01267  Uiso   1.00
C147   C     0.96990   0.44850   0.73580   0.01267  Uiso   1.00
C148   C     0.93030   0.47330   0.75300   0.01267  Uiso   1.00
C149   C     0.97070   0.54130   0.80080   0.01267  Uiso   1.00
C150   C     0.93610   0.56620   0.82590   0.01267  Uiso   1.00
C151   C     0.82490   0.42510   0.68080   0.01267  Uiso   1.00
C152   C     0.79450   0.38240   0.61630   0.01267  Uiso   1.00
C153   C     0.78420   0.41110   0.57850   0.01267  Uiso   1.00
C154   C     0.75110   0.44510   0.59420   0.01267  Uiso   1.00
C155   C     0.78500   0.48900   0.66120   0.01267  Uiso   1.00
C156   C     0.75430   0.52130   0.68220   0.01267  Uiso   1.00
C157   C     0.69220   0.22040   0.16360   0.01267  Uiso   1.00
C158   C     0.67050   0.23020   0.20890   0.01267  Uiso   1.00
C159   C     0.71270   0.23410   0.26420   0.01267  Uiso   1.00
C160   C     0.72030   0.17730   0.24700   0.01267  Uiso   1.00
C161   C     0.74050   0.16990   0.19920   0.01267  Uiso   1.00
C162   C     0.74030   0.11020   0.17410   0.01267  Uiso   1.00
C163   C     0.74430   0.14410   0.31920   0.01267  Uiso   1.00
C164   C     0.76610   0.17820   0.38370   0.01267  Uiso   1.00
C165   C     0.83260   0.20570   0.42150   0.01267  Uiso   1.00
C166   C     0.85090   0.15690   0.40580   0.01267  Uiso   1.00
C167   C     0.82780   0.12380   0.33880   0.01267  Uiso   1.00
C168   C     0.83910   0.07210   0.31780   0.01267  Uiso   1.00
C169   C     0.94320   0.77960   0.47180   0.01267  Uiso   1.00
C170   C     0.97870   0.76980   0.44030   0.01267  Uiso   1.00
C171   C     0.03010   0.76590   0.47860   0.01267  Uiso   1.00
C172   C     0.06970   0.82270   0.54300   0.01267  Uiso   1.00
C173   C     0.02930   0.83010   0.57060   0.01267  Uiso   1.00
C174   C     0.06390   0.88980   0.63010   0.01267  Uiso   1.00
C175   C     0.17510   0.85590   0.60020   0.01267  Uiso   1.00
C176   C     0.20550   0.82180   0.58790   0.01267  Uiso   1.00
C177   C     0.21580   0.79430   0.62690   0.01267  Uiso   1.00
C178   C     0.24890   0.84310   0.69400   0.01267  Uiso   1.00
C179   C     0.21500   0.87620   0.70400   0.01267  Uiso   1.00
C180   C     0.24570   0.92790   0.76700   0.01267  Uiso   1.00
C181   C     0.30780   0.47140   0.52820   0.01267  Uiso   1.00
C182   C     0.32950   0.53840   0.55970   0.01267  Uiso   1.00
C183   C     0.28730   0.55150   0.52140   0.01267  Uiso   1.00
C184   C     0.27970   0.52670   0.45700   0.01267  Uiso   1.00
C185   C     0.25950   0.45870   0.42940   0.01267  Uiso   1.00
C186   C     0.25970   0.43380   0.36990   0.01267  Uiso   1.00
C187   C     0.25570   0.57490   0.39980   0.01267  Uiso   1.00
C188   C     0.23390   0.61760   0.41210   0.01267  Uiso   1.00
C189   C     0.16740   0.58890   0.37310   0.01267  Uiso   1.00
C190   C     0.14910   0.55490   0.30600   0.01267  Uiso   1.00
C191   C     0.17220   0.51100   0.29600   0.01267  Uiso   1.00
C192   C     0.16090   0.47870   0.23300   0.01267  Uiso   1.00
C193   C     0.77960   0.47180   0.94320   0.01267  Uiso   1.00
C194   C     0.76980   0.44030   0.97870   0.01267  Uiso   1.00
C195   C     0.76590   0.47860   0.03010   0.01267  Uiso   1.00
C196   C     0.82270   0.54300   0.06970   0.01267  Uiso   1.00
C197   C     0.83010   0.57060   0.02930   0.01267  Uiso   1.00
C198   C     0.88980   0.63010   0.06390   0.01267  Uiso   1.00
C199   C     0.85590   0.60020   0.17510   0.01267  Uiso   1.00
C200   C     0.82180   0.58790   0.20550   0.01267  Uiso   1.00
C201   C     0.79430   0.62690   0.21580   0.01267  Uiso   1.00
C202   C     0.84310   0.69400   0.24890   0.01267  Uiso   1.00
C203   C     0.87620   0.70400   0.21500   0.01267  Uiso   1.00
C204   C     0.92790   0.76700   0.24570   0.01267  Uiso   1.00
C205   C     0.47140   0.52820   0.30780   0.01267  Uiso   1.00
C206   C     0.53840   0.55970   0.32950   0.01267  Uiso   1.00
C207   C     0.55150   0.52140   0.28730   0.01267  Uiso   1.00
C208   C     0.52670   0.45700   0.27970   0.01267  Uiso   1.00
C209   C     0.45870   0.42940   0.25950   0.01267  Uiso   1.00
C210   C     0.43380   0.36990   0.25970   0.01267  Uiso   1.00
C211   C     0.57490   0.39980   0.25570   0.01267  Uiso   1.00
C212   C     0.61760   0.41210   0.23390   0.01267  Uiso   1.00
C213   C     0.58890   0.37310   0.16740   0.01267  Uiso   1.00
C214   C     0.55490   0.30600   0.14910   0.01267  Uiso   1.00
C215   C     0.51100   0.29600   0.17220   0.01267  Uiso   1.00
C216   C     0.47870   0.23300   0.16090   0.01267  Uiso   1.00
C217   C     0.52860   0.83640   0.05680   0.01267  Uiso   1.00
C218   C     0.46160   0.79110   0.02130   0.01267  Uiso   1.00
C219   C     0.44850   0.73580   0.96990   0.01267  Uiso   1.00
C220   C     0.47330   0.75300   0.93030   0.01267  Uiso   1.00
C221   C     0.54130   0.80080   0.97070   0.01267  Uiso   1.00
C222   C     0.56620   0.82590   0.93610   0.01267  Uiso   1.00
C223   C     0.42510   0.68080   0.82490   0.01267  Uiso   1.00
C224   C     0.38240   0.61630   0.79450   0.01267  Uiso   1.00
C225   C     0.41110   0.57850   0.78420   0.01267  Uiso   1.00
C226   C     0.44510   0.59420   0.75110   0.01267  Uiso   1.00
C227   C     0.48900   0.66120   0.78500   0.01267  Uiso   1.00
C228   C     0.52130   0.68220   0.75430   0.01267  Uiso   1.00
C229   C     0.22040   0.16360   0.69220   0.01267  Uiso   1.00
C230   C     0.23020   0.20890   0.67050   0.01267  Uiso   1.00
C231   C     0.23410   0.26420   0.71270   0.01267  Uiso   1.00
C232   C     0.17730   0.24700   0.72030   0.01267  Uiso   1.00
C233   C     0.16990   0.19920   0.74050   0.01267  Uiso   1.00
C234   C     0.11020   0.17410   0.74030   0.01267  Uiso   1.00
C235   C     0.14410   0.31920   0.74430   0.01267  Uiso   1.00
C236   C     0.17820   0.38370   0.76610   0.01267  Uiso   1.00
C237   C     0.20570   0.42150   0.83260   0.01267  Uiso   1.00
C238   C     0.15690   0.40580   0.85090   0.01267  Uiso   1.00
C239   C     0.12380   0.33880   0.82780   0.01267  Uiso   1.00
C240   C     0.07210   0.31780   0.83910   0.01267  Uiso   1.00
C241   C     0.16360   0.69220   0.22040   0.01267  Uiso   1.00
C242   C     0.20890   0.67050   0.23020   0.01267  Uiso   1.00
C243   C     0.26420   0.71270   0.23410   0.01267  Uiso   1.00
C244   C     0.24700   0.72030   0.17730   0.01267  Uiso   1.00
C245   C     0.19920   0.74050   0.16990   0.01267  Uiso   1.00
C246   C     0.17410   0.74030   0.11020   0.01267  Uiso   1.00
C247   C     0.31920   0.74430   0.14410   0.01267  Uiso   1.00
C248   C     0.38370   0.76610   0.17820   0.01267  Uiso   1.00
C249   C     0.42150   0.83260   0.20570   0.01267  Uiso   1.00
C250   C     0.40580   0.85090   0.15690   0.01267  Uiso   1.00
C251   C     0.33880   0.82780   0.12380   0.01267  Uiso   1.00
C252   C     0.31780   0.83910   0.07210   0.01267  Uiso   1.00
C253   C     0.83640   0.05680   0.52860   0.01267  Uiso   1.00
C254   C     0.79110   0.02130   0.46160   0.01267  Uiso   1.00
C255   C     0.73580   0.96990   0.44850   0.01267  Uiso   1.00
C256   C     0.75300   0.93030   0.47330   0.01267  Uiso   1.00
C257   C     0.80080   0.97070   0.54130   0.01267  Uiso   1.00
C258   C     0.82590   0.93610   0.56620   0.01267  Uiso   1.00
C259   C     0.68080   0.82490   0.42510   0.01267  Uiso   1.00
C260   C     0.61630   0.79450   0.38240   0.01267  Uiso   1.00
C261   C     0.57850   0.78420   0.41110   0.01267  Uiso   1.00
C262   C     0.59420   0.75110   0.44510   0.01267  Uiso   1.00
C263   C     0.66120   0.78500   0.48900   0.01267  Uiso   1.00
C264   C     0.68220   0.75430   0.52130   0.01267  Uiso   1.00
C265   C     0.52820   0.30780   0.47140   0.01267  Uiso   1.00
C266   C     0.55970   0.32950   0.53840   0.01267  Uiso   1.00
C267   C     0.52140   0.28730   0.55150   0.01267  Uiso   1.00
C268   C     0.45700   0.27970   0.52670   0.01267  Uiso   1.00
C269   C     0.42940   0.25950   0.45870   0.01267  Uiso   1.00
C270   C     0.36990   0.25970   0.43380   0.01267  Uiso   1.00
C271   C     0.39980   0.25570   0.57490   0.01267  Uiso   1.00
C272   C     0.41210   0.23390   0.61760   0.01267  Uiso   1.00
C273   C     0.37310   0.16740   0.58890   0.01267  Uiso   1.00
C274   C     0.30600   0.14910   0.55490   0.01267  Uiso   1.00
C275   C     0.29600   0.17220   0.51100   0.01267  Uiso   1.00
C276   C     0.23300   0.16090   0.47870   0.01267  Uiso   1.00
C277   C     0.47180   0.94320   0.77960   0.01267  Uiso   1.00
C278   C     0.44030   0.97870   0.76980   0.01267  Uiso   1.00
C279   C     0.47860   0.03010   0.76590   0.01267  Uiso   1.00
C280   C     0.54300   0.06970   0.82270   0.01267  Uiso   1.00
C281   C     0.57060   0.02930   0.83010   0.01267  Uiso   1.00
C282   C     0.63010   0.06390   0.88980   0.01267  Uiso   1.00
C283   C     0.60020   0.17510   0.85590   0.01267  Uiso   1.00
C284   C     0.58790   0.20550   0.82180   0.01267  Uiso   1.00
C285   C     0.62690   0.21580   0.79430   0.01267  Uiso   1.00
C286   C     0.69400   0.24890   0.84310   0.01267  Uiso   1.00
C287   C     0.70400   0.21500   0.87620   0.01267  Uiso   1.00
C288   C     0.76700   0.24570   0.92790   0.01267  Uiso   1.00
O1     O     0.45020   0.98010   0.14710   0.01267  Uiso   1.00
O2     O     0.55860   0.94080   0.22380   0.01267  Uiso   1.00
O3     O     0.61550   0.06730   0.30620   0.01267  Uiso   1.00
O4     O     0.53339   0.11509   0.29850   0.01267  Uiso   1.00
O5     O     0.47070   0.09440   0.15090   0.01267  Uiso   1.00
O6     O     0.54274   0.20698   0.30604   0.01267  Uiso   1.00
O7     O     0.64980   0.17400   0.39660   0.01267  Uiso   1.00
O8     O     0.63540   0.25240   0.48620   0.01267  Uiso   1.00
O9     O     0.43934   0.91634   0.18760   0.01267  Uiso   1.00
O10    O     0.52130   0.30370   0.33620   0.01267  Uiso   1.00
O11    O     0.83300   0.30310   0.85290   0.01267  Uiso   1.00
O12    O     0.71700   0.33480   0.77620   0.01267  Uiso   1.00
O13    O     0.76110   0.30930   0.69380   0.01267  Uiso   1.00
O14    O     0.81659   0.23489   0.70150   0.01267  Uiso   1.00
O15    O     0.94350   0.31980   0.84910   0.01267  Uiso   1.00
O16    O     0.90094   0.23670   0.69396   0.01267  Uiso   1.00
O17    O     0.77740   0.25320   0.60340   0.01267  Uiso   1.00
O18    O     0.76620   0.14920   0.51380   0.01267  Uiso   1.00
O19    O     0.72874   0.25174   0.81240   0.01267  Uiso   1.00
O20    O     0.96750   0.18510   0.66380   0.01267  Uiso   1.00
O21    O     0.16700   0.01990   0.47010   0.01267  Uiso   1.00
O22    O     0.28300   0.05920   0.61780   0.01267  Uiso   1.00
O23    O     0.23890   0.93270   0.54820   0.01267  Uiso   1.00
O24    O     0.18341   0.88491   0.41830   0.01267  Uiso   1.00
O25    O     0.05650   0.90560   0.37630   0.01267  Uiso   1.00
O26    O     0.09906   0.79302   0.33576   0.01267  Uiso   1.00
O27    O     0.22260   0.82600   0.47580   0.01267  Uiso   1.00
O28    O     0.23380   0.74760   0.38300   0.01267  Uiso   1.00
O29    O     0.27126   0.08366   0.52300   0.01267  Uiso   1.00
O30    O     0.03250   0.69630   0.21760   0.01267  Uiso   1.00
O31    O     0.54980   0.69690   0.52990   0.01267  Uiso   1.00
O32    O     0.44140   0.66520   0.38220   0.01267  Uiso   1.00
O33    O     0.38450   0.69070   0.45180   0.01267  Uiso   1.00
O34    O     0.46661   0.76511   0.58170   0.01267  Uiso   1.00
O35    O     0.52930   0.68020   0.62370   0.01267  Uiso   1.00
O36    O     0.45726   0.76330   0.66424   0.01267  Uiso   1.00
O37    O     0.35020   0.74680   0.52420   0.01267  Uiso   1.00
O38    O     0.36460   0.85080   0.61700   0.01267  Uiso   1.00
O39    O     0.56066   0.74826   0.47700   0.01267  Uiso   1.00
O40    O     0.47870   0.81490   0.78240   0.01267  Uiso   1.00
O41    O     0.47010   0.16700   0.01990   0.01267  Uiso   1.00
O42    O     0.61780   0.28300   0.05920   0.01267  Uiso   1.00
O43    O     0.54820   0.23890   0.93270   0.01267  Uiso   1.00
O44    O     0.41830   0.18341   0.88491   0.01267  Uiso   1.00
O45    O     0.37630   0.05650   0.90560   0.01267  Uiso   1.00
O46    O     0.33576   0.09906   0.79302   0.01267  Uiso   1.00
O47    O     0.47580   0.22260   0.82600   0.01267  Uiso   1.00
O48    O     0.38300   0.23380   0.74760   0.01267  Uiso   1.00
O49    O     0.52300   0.27126   0.08366   0.01267  Uiso   1.00
O50    O     0.21760   0.03250   0.69630   0.01267  Uiso   1.00
O51    O     0.52990   0.54980   0.69690   0.01267  Uiso   1.00
O52    O     0.38220   0.44140   0.66520   0.01267  Uiso   1.00
O53    O     0.45180   0.38450   0.69070   0.01267  Uiso   1.00
O54    O     0.58170   0.46661   0.76511   0.01267  Uiso   1.00
O55    O     0.62370   0.52930   0.68020   0.01267  Uiso   1.00
O56    O     0.66424   0.45726   0.76330   0.01267  Uiso   1.00
O57    O     0.52420   0.35020   0.74680   0.01267  Uiso   1.00
O58    O     0.61700   0.36460   0.85080   0.01267  Uiso   1.00
O59    O     0.47700   0.56066   0.74826   0.01267  Uiso   1.00
O60    O     0.78240   0.47870   0.81490   0.01267  Uiso   1.00
O61    O     0.14710   0.45020   0.98010   0.01267  Uiso   1.00
O62    O     0.22380   0.55860   0.94080   0.01267  Uiso   1.00
O63    O     0.30620   0.61550   0.06730   0.01267  Uiso   1.00
O64    O     0.29850   0.53339   0.11509   0.01267  Uiso   1.00
O65    O     0.15090   0.47070   0.09440   0.01267  Uiso   1.00
O66    O     0.30604   0.54274   0.20698   0.01267  Uiso   1.00
O67    O     0.39660   0.64980   0.17400   0.01267  Uiso   1.00
O68    O     0.48620   0.63540   0.25240   0.01267  Uiso   1.00
O69    O     0.18760   0.43934   0.91634   0.01267  Uiso   1.00
O70    O     0.33620   0.52130   0.30370   0.01267  Uiso   1.00
O71    O     0.85290   0.83300   0.30310   0.01267  Uiso   1.00
O72    O     0.77620   0.71700   0.33480   0.01267  Uiso   1.00
O73    O     0.69380   0.76110   0.30930   0.01267  Uiso   1.00
O74    O     0.70150   0.81659   0.23489   0.01267  Uiso   1.00
O75    O     0.84910   0.94350   0.31980   0.01267  Uiso   1.00
O76    O     0.69396   0.90094   0.23670   0.01267  Uiso   1.00
O77    O     0.60340   0.77740   0.25320   0.01267  Uiso   1.00
O78    O     0.51380   0.76620   0.14920   0.01267  Uiso   1.00
O79    O     0.81240   0.72874   0.25174   0.01267  Uiso   1.00
O80    O     0.66380   0.96750   0.18510   0.01267  Uiso   1.00
O81    O     0.30310   0.85290   0.83300   0.01267  Uiso   1.00
O82    O     0.33480   0.77620   0.71700   0.01267  Uiso   1.00
O83    O     0.30930   0.69380   0.76110   0.01267  Uiso   1.00
O84    O     0.23489   0.70150   0.81659   0.01267  Uiso   1.00
O85    O     0.31980   0.84910   0.94350   0.01267  Uiso   1.00
O86    O     0.23670   0.69396   0.90094   0.01267  Uiso   1.00
O87    O     0.25320   0.60340   0.77740   0.01267  Uiso   1.00
O88    O     0.14920   0.51380   0.76620   0.01267  Uiso   1.00
O89    O     0.25174   0.81240   0.72874   0.01267  Uiso   1.00
O90    O     0.18510   0.66380   0.96750   0.01267  Uiso   1.00
O91    O     0.98010   0.14710   0.45020   0.01267  Uiso   1.00
O92    O     0.94080   0.22380   0.55860   0.01267  Uiso   1.00
O93    O     0.06730   0.30620   0.61550   0.01267  Uiso   1.00
O94    O     0.11509   0.29850   0.53339   0.01267  Uiso   1.00
O95    O     0.09440   0.15090   0.47070   0.01267  Uiso   1.00
O96    O     0.20698   0.30604   0.54274   0.01267  Uiso   1.00
O97    O     0.17400   0.39660   0.64980   0.01267  Uiso   1.00
O98    O     0.25240   0.48620   0.63540   0.01267  Uiso   1.00
O99    O     0.91634   0.18760   0.43934   0.01267  Uiso   1.00
O100   O     0.30370   0.33620   0.52130   0.01267  Uiso   1.00
O101   O     0.69690   0.52990   0.54980   0.01267  Uiso   1.00
O102   O     0.66520   0.38220   0.44140   0.01267  Uiso   1.00
O103   O     0.69070   0.45180   0.38450   0.01267  Uiso   1.00
O104   O     0.76511   0.58170   0.46661   0.01267  Uiso   1.00
O105   O     0.68020   0.62370   0.52930   0.01267  Uiso   1.00
O106   O     0.76330   0.66424   0.45726   0.01267  Uiso   1.00
O107   O     0.74680   0.52420   0.35020   0.01267  Uiso   1.00
O108   O     0.85080   0.61700   0.36460   0.01267  Uiso   1.00
O109   O     0.74826   0.47700   0.56066   0.01267  Uiso   1.00
O110   O     0.81490   0.78240   0.47870   0.01267  Uiso   1.00
O111   O     0.01990   0.47010   0.16700   0.01267  Uiso   1.00
O112   O     0.05920   0.61780   0.28300   0.01267  Uiso   1.00
O113   O     0.93270   0.54820   0.23890   0.01267  Uiso   1.00
O114   O     0.88491   0.41830   0.18341   0.01267  Uiso   1.00
O115   O     0.90560   0.37630   0.05650   0.01267  Uiso   1.00
O116   O     0.79302   0.33576   0.09906   0.01267  Uiso   1.00
O117   O     0.82600   0.47580   0.22260   0.01267  Uiso   1.00
O118   O     0.74760   0.38300   0.23380   0.01267  Uiso   1.00
O119   O     0.08366   0.52300   0.27126   0.01267  Uiso   1.00
O120   O     0.69630   0.21760   0.03250   0.01267  Uiso   1.00
O121   O     0.01990   0.54980   0.85290   0.01267  Uiso   1.00
O122   O     0.05920   0.44140   0.77620   0.01267  Uiso   1.00
O123   O     0.93270   0.38450   0.69380   0.01267  Uiso   1.00
O124   O     0.88491   0.46661   0.70150   0.01267  Uiso   1.00
O125   O     0.90560   0.52930   0.84910   0.01267  Uiso   1.00
O126   O     0.79302   0.45726   0.69396   0.01267  Uiso   1.00
O127   O     0.82600   0.35020   0.60340   0.01267  Uiso   1.00
O128   O     0.74760   0.36460   0.51380   0.01267  Uiso   1.00
O129   O     0.08366   0.56066   0.81240   0.01267  Uiso   1.00
O130   O     0.69630   0.47870   0.66380   0.01267  Uiso   1.00
O131   O     0.69690   0.16700   0.14710   0.01267  Uiso   1.00
O132   O     0.66520   0.28300   0.22380   0.01267  Uiso   1.00
O133   O     0.69070   0.23890   0.30620   0.01267  Uiso   1.00
O134   O     0.76511   0.18341   0.29850   0.01267  Uiso   1.00
O135   O     0.68020   0.05650   0.15090   0.01267  Uiso   1.00
O136   O     0.76330   0.09906   0.30604   0.01267  Uiso   1.00
O137   O     0.74680   0.22260   0.39660   0.01267  Uiso   1.00
O138   O     0.85080   0.23380   0.48620   0.01267  Uiso   1.00
O139   O     0.74826   0.27126   0.18760   0.01267  Uiso   1.00
O140   O     0.81490   0.03250   0.33620   0.01267  Uiso   1.00
O141   O     0.98010   0.83300   0.52990   0.01267  Uiso   1.00
O142   O     0.94080   0.71700   0.38220   0.01267  Uiso   1.00
O143   O     0.06730   0.76110   0.45180   0.01267  Uiso   1.00
O144   O     0.11509   0.81659   0.58170   0.01267  Uiso   1.00
O145   O     0.09440   0.94350   0.62370   0.01267  Uiso   1.00
O146   O     0.20698   0.90094   0.66424   0.01267  Uiso   1.00
O147   O     0.17400   0.77740   0.52420   0.01267  Uiso   1.00
O148   O     0.25240   0.76620   0.61700   0.01267  Uiso   1.00
O149   O     0.91634   0.72874   0.47700   0.01267  Uiso   1.00
O150   O     0.30370   0.96750   0.78240   0.01267  Uiso   1.00
O151   O     0.30310   0.45020   0.47010   0.01267  Uiso   1.00
O152   O     0.33480   0.55860   0.61780   0.01267  Uiso   1.00
O153   O     0.30930   0.61550   0.54820   0.01267  Uiso   1.00
O154   O     0.23489   0.53339   0.41830   0.01267  Uiso   1.00
O155   O     0.31980   0.47070   0.37630   0.01267  Uiso   1.00
O156   O     0.23670   0.54274   0.33576   0.01267  Uiso   1.00
O157   O     0.25320   0.64980   0.47580   0.01267  Uiso   1.00
O158   O     0.14920   0.63540   0.38300   0.01267  Uiso   1.00
O159   O     0.25174   0.43934   0.52300   0.01267  Uiso   1.00
O160   O     0.18510   0.52130   0.21760   0.01267  Uiso   1.00
O161   O     0.83300   0.52990   0.98010   0.01267  Uiso   1.00
O162   O     0.71700   0.38220   0.94080   0.01267  Uiso   1.00
O163   O     0.76110   0.45180   0.06730   0.01267  Uiso   1.00
O164   O     0.81659   0.58170   0.11509   0.01267  Uiso   1.00
O165   O     0.94350   0.62370   0.09440   0.01267  Uiso   1.00
O166   O     0.90094   0.66424   0.20698   0.01267  Uiso   1.00
O167   O     0.77740   0.52420   0.17400   0.01267  Uiso   1.00
O168   O     0.76620   0.61700   0.25240   0.01267  Uiso   1.00
O169   O     0.72874   0.47700   0.91634   0.01267  Uiso   1.00
O170   O     0.96750   0.78240   0.30370   0.01267  Uiso   1.00
O171   O     0.45020   0.47010   0.30310   0.01267  Uiso   1.00
O172   O     0.55860   0.61780   0.33480   0.01267  Uiso   1.00
O173   O     0.61550   0.54820   0.30930   0.01267  Uiso   1.00
O174   O     0.53339   0.41830   0.23489   0.01267  Uiso   1.00
O175   O     0.47070   0.37630   0.31980   0.01267  Uiso   1.00
O176   O     0.54274   0.33576   0.23670   0.01267  Uiso   1.00
O177   O     0.64980   0.47580   0.25320   0.01267  Uiso   1.00
O178   O     0.63540   0.38300   0.14920   0.01267  Uiso   1.00
O179   O     0.43934   0.52300   0.25174   0.01267  Uiso   1.00
O180   O     0.52130   0.21760   0.18510   0.01267  Uiso   1.00
O181   O     0.54980   0.85290   0.01990   0.01267  Uiso   1.00
O182   O     0.44140   0.77620   0.05920   0.01267  Uiso   1.00
O183   O     0.38450   0.69380   0.93270   0.01267  Uiso   1.00
O184   O     0.46661   0.70150   0.88491   0.01267  Uiso   1.00
O185   O     0.52930   0.84910   0.90560   0.01267  Uiso   1.00
O186   O     0.45726   0.69396   0.79302   0.01267  Uiso   1.00
O187   O     0.35020   0.60340   0.82600   0.01267  Uiso   1.00
O188   O     0.36460   0.51380   0.74760   0.01267  Uiso   1.00
O189   O     0.56066   0.81240   0.08366   0.01267  Uiso   1.00
O190   O     0.47870   0.66380   0.69630   0.01267  Uiso   1.00
O191   O     0.16700   0.14710   0.69690   0.01267  Uiso   1.00
O192   O     0.28300   0.22380   0.66520   0.01267  Uiso   1.00
O193   O     0.23890   0.30620   0.69070   0.01267  Uiso   1.00
O194   O     0.18341   0.29850   0.76511   0.01267  Uiso   1.00
O195   O     0.05650   0.15090   0.68020   0.01267  Uiso   1.00
O196   O     0.09906   0.30604   0.76330   0.01267  Uiso   1.00
O197   O     0.22260   0.39660   0.74680   0.01267  Uiso   1.00
O198   O     0.23380   0.48620   0.85080   0.01267  Uiso   1.00
O199   O     0.27126   0.18760   0.74826   0.01267  Uiso   1.00
O200   O     0.03250   0.33620   0.81490   0.01267  Uiso   1.00
O201   O     0.14710   0.69690   0.16700   0.01267  Uiso   1.00
O202   O     0.22380   0.66520   0.28300   0.01267  Uiso   1.00
O203   O     0.30620   0.69070   0.23890   0.01267  Uiso   1.00
O204   O     0.29850   0.76511   0.18341   0.01267  Uiso   1.00
O205   O     0.15090   0.68020   0.05650   0.01267  Uiso   1.00
O206   O     0.30604   0.76330   0.09906   0.01267  Uiso   1.00
O207   O     0.39660   0.74680   0.22260   0.01267  Uiso   1.00
O208   O     0.48620   0.85080   0.23380   0.01267  Uiso   1.00
O209   O     0.18760   0.74826   0.27126   0.01267  Uiso   1.00
O210   O     0.33620   0.81490   0.03250   0.01267  Uiso   1.00
O211   O     0.85290   0.01990   0.54980   0.01267  Uiso   1.00
O212   O     0.77620   0.05920   0.44140   0.01267  Uiso   1.00
O213   O     0.69380   0.93270   0.38450   0.01267  Uiso   1.00
O214   O     0.70150   0.88491   0.46661   0.01267  Uiso   1.00
O215   O     0.84910   0.90560   0.52930   0.01267  Uiso   1.00
O216   O     0.69396   0.79302   0.45726   0.01267  Uiso   1.00
O217   O     0.60340   0.82600   0.35020   0.01267  Uiso   1.00
O218   O     0.51380   0.74760   0.36460   0.01267  Uiso   1.00
O219   O     0.81240   0.08366   0.56066   0.01267  Uiso   1.00
O220   O     0.66380   0.69630   0.47870   0.01267  Uiso   1.00
O221   O     0.47010   0.30310   0.45020   0.01267  Uiso   1.00
O222   O     0.61780   0.33480   0.55860   0.01267  Uiso   1.00
O223   O     0.54820   0.30930   0.61550   0.01267  Uiso   1.00
O224   O     0.41830   0.23489   0.53339   0.01267  Uiso   1.00
O225   O     0.37630   0.31980   0.47070   0.01267  Uiso   1.00
O226   O     0.33576   0.23670   0.54274   0.01267  Uiso   1.00
O227   O     0.47580   0.25320   0.64980   0.01267  Uiso   1.00
O228   O     0.38300   0.14920   0.63540   0.01267  Uiso   1.00
O229   O     0.52300   0.25174   0.43934   0.01267  Uiso   1.00
O230   O     0.21760   0.18510   0.52130   0.01267  Uiso   1.00
O231   O     0.52990   0.98010   0.83300   0.01267  Uiso   1.00
O232   O     0.38220   0.94080   0.71700   0.01267  Uiso   1.00
O233   O     0.45180   0.06730   0.76110   0.01267  Uiso   1.00
O234   O     0.58170   0.11509   0.81659   0.01267  Uiso   1.00
O235   O     0.62370   0.09440   0.94350   0.01267  Uiso   1.00
O236   O     0.66424   0.20698   0.90094   0.01267  Uiso   1.00
O237   O     0.52420   0.17400   0.77740   0.01267  Uiso   1.00
O238   O     0.61700   0.25240   0.76620   0.01267  Uiso   1.00
O239   O     0.47700   0.91634   0.72874   0.01267  Uiso   1.00
O240   O     0.78240   0.30370   0.96750   0.01267  Uiso   1.00
