data_LAJLAL_charged
_audit_creation_date              2014-07-02
_audit_creation_method            'Materials Studio'
_symmetry_space_group_name_H-M    'P1'
_symmetry_Int_Tables_number       1
_symmetry_cell_setting            triclinic
loop_
_symmetry_equiv_pos_as_xyz
  x,y,z
_cell_length_a                    26.8520
_cell_length_b                    26.8520
_cell_length_c                    26.8520
_cell_angle_alpha                 109.4710
_cell_angle_beta                  109.4710
_cell_angle_gamma                 109.4710
loop_
_atom_site_label
_atom_site_type_symbol
_atom_site_fract_x
_atom_site_fract_y
_atom_site_fract_z
_atom_site_U_iso_or_equiv
_atom_site_adp_type
_atom_site_occupancy
K1     K     0.68884   1.00000   0.31116   0.01267  Uiso   1.00
K2     K     0.68884   0.37768   0.68884   0.01267  Uiso   1.00
K3     K     0.31116   1.00000   0.68884   0.01267  Uiso   1.00
K4     K     0.31116   0.62232   0.31116   0.01267  Uiso   1.00
K5     K     0.68884   0.31116  -0.00000   0.01267  Uiso   1.00
K6     K     0.31116   0.31116   0.62232   0.01267  Uiso   1.00
K7     K     0.31116   0.68884  -0.00000   0.01267  Uiso   1.00
K8     K     0.68884   0.68884   0.37768   0.01267  Uiso   1.00
K9     K     0.37768   0.68884   0.68884   0.01267  Uiso   1.00
K10    K     0.00000   0.31116   0.68884   0.01267  Uiso   1.00
K11    K     0.62232   0.31116   0.31116   0.01267  Uiso   1.00
K12    K     0.00000   0.68884   0.31116   0.01267  Uiso   1.00
H1     H     0.46430   0.91110   0.12860   0.01267  Uiso   1.00
H2     H     0.53360   0.91260   0.23320   0.01267  Uiso   1.00
H3     H     0.57230   0.99900   0.20590   0.01267  Uiso   1.00
H4     H     0.63100   0.04270   0.33330   0.01267  Uiso   1.00
H5     H     0.53670   0.01500   0.29090   0.01267  Uiso   1.00
H6     H     0.55030   0.09180   0.23110   0.01267  Uiso   1.00
H7     H     0.43230   0.01490   0.21960   0.01267  Uiso   1.00
H8     H     0.48180   0.07140   0.13100   0.01267  Uiso   1.00
H9     H     0.43150   0.09620   0.20730   0.01267  Uiso   1.00
H10    H     0.39370   0.03880   0.13970   0.01267  Uiso   1.00
H11    H     0.60260   0.17530   0.30410   0.01267  Uiso   1.00
H12    H     0.63490   0.13370   0.36820   0.01267  Uiso   1.00
H13    H     0.65000   0.24540   0.39640   0.01267  Uiso   1.00
H14    H     0.61870   0.27690   0.50980   0.01267  Uiso   1.00
H15    H     0.55840   0.17490   0.41670   0.01267  Uiso   1.00
H16    H     0.58400   0.28730   0.41590   0.01267  Uiso   1.00
H17    H     0.47760   0.17460   0.32520   0.01267  Uiso   1.00
H18    H     0.50420   0.32550   0.32670   0.01267  Uiso   1.00
H19    H     0.46130   0.22570   0.27540   0.01267  Uiso   1.00
H20    H     0.46000   0.25260   0.33740   0.01267  Uiso   1.00
H21    H     0.78250   0.33570   0.87140   0.01267  Uiso   1.00
H22    H     0.67940   0.30040   0.76680   0.01267  Uiso   1.00
H23    H     0.79310   0.36640   0.79410   0.01267  Uiso   1.00
H24    H     0.70940   0.29770   0.66670   0.01267  Uiso   1.00
H25    H     0.72410   0.24580   0.70910   0.01267  Uiso   1.00
H26    H     0.86070   0.31920   0.76890   0.01267  Uiso   1.00
H27    H     0.79530   0.21270   0.78040   0.01267  Uiso   1.00
H28    H     0.94040   0.35080   0.86900   0.01267  Uiso   1.00
H29    H     0.88890   0.22420   0.79270   0.01267  Uiso   1.00
H30    H     0.89910   0.25400   0.86030   0.01267  Uiso   1.00
H31    H     0.87120   0.29850   0.69590   0.01267  Uiso   1.00
H32    H     0.76550   0.26670   0.63180   0.01267  Uiso   1.00
H33    H     0.84900   0.25360   0.60360   0.01267  Uiso   1.00
H34    H     0.76710   0.10890   0.49020   0.01267  Uiso   1.00
H35    H     0.75820   0.14170   0.58330   0.01267  Uiso   1.00
H36    H     0.87140   0.16810   0.58410   0.01267  Uiso   1.00
H37    H     0.84940   0.15240   0.67480   0.01267  Uiso   1.00
H38    H     0.99880   0.17750   0.67330   0.01267  Uiso   1.00
H39    H     0.95030   0.18590   0.72460   0.01267  Uiso   1.00
H40    H     0.91520   0.12260   0.66260   0.01267  Uiso   1.00
H41    H     0.21750   0.08890   0.55320   0.01267  Uiso   1.00
H42    H     0.32060   0.08740   0.62100   0.01267  Uiso   1.00
H43    H     0.20690   0.00100   0.57330   0.01267  Uiso   1.00
H44    H     0.29060   0.95730   0.58830   0.01267  Uiso   1.00
H45    H     0.27590   0.98500   0.52170   0.01267  Uiso   1.00
H46    H     0.13930   0.90820   0.45850   0.01267  Uiso   1.00
H47    H     0.20470   0.98510   0.41740   0.01267  Uiso   1.00
H48    H     0.05960   0.92860   0.41040   0.01267  Uiso   1.00
H49    H     0.11110   0.90380   0.33530   0.01267  Uiso   1.00
H50    H     0.10090   0.96120   0.35490   0.01267  Uiso   1.00
H51    H     0.12880   0.82470   0.42730   0.01267  Uiso   1.00
H52    H     0.23450   0.86630   0.50120   0.01267  Uiso   1.00
H53    H     0.15100   0.75460   0.40460   0.01267  Uiso   1.00
H54    H     0.23290   0.72310   0.34180   0.01267  Uiso   1.00
H55    H     0.24180   0.82510   0.38350   0.01267  Uiso   1.00
H56    H     0.12860   0.71270   0.29670   0.01267  Uiso   1.00
H57    H     0.15060   0.82540   0.30300   0.01267  Uiso   1.00
H58    H     0.00120   0.67450   0.17870   0.01267  Uiso   1.00
H59    H     0.04970   0.77430   0.23560   0.01267  Uiso   1.00
H60    H     0.08480   0.74740   0.20740   0.01267  Uiso   1.00
H61    H     0.53570   0.66430   0.44680   0.01267  Uiso   1.00
H62    H     0.46640   0.69960   0.37900   0.01267  Uiso   1.00
H63    H     0.42770   0.63360   0.42670   0.01267  Uiso   1.00
H64    H     0.36900   0.70230   0.41170   0.01267  Uiso   1.00
H65    H     0.46330   0.75420   0.47830   0.01267  Uiso   1.00
H66    H     0.44970   0.68080   0.54150   0.01267  Uiso   1.00
H67    H     0.56770   0.78730   0.58260   0.01267  Uiso   1.00
H68    H     0.51820   0.64920   0.58960   0.01267  Uiso   1.00
H69    H     0.56850   0.77580   0.66470   0.01267  Uiso   1.00
H70    H     0.60630   0.74600   0.64510   0.01267  Uiso   1.00
H71    H     0.39740   0.70150   0.57270   0.01267  Uiso   1.00
H72    H     0.36510   0.73330   0.49880   0.01267  Uiso   1.00
H73    H     0.35000   0.74640   0.59540   0.01267  Uiso   1.00
H74    H     0.38130   0.89110   0.65820   0.01267  Uiso   1.00
H75    H     0.44160   0.85830   0.61650   0.01267  Uiso   1.00
H76    H     0.41600   0.83190   0.70330   0.01267  Uiso   1.00
H77    H     0.52240   0.84760   0.69700   0.01267  Uiso   1.00
H78    H     0.49580   0.82250   0.82130   0.01267  Uiso   1.00
H79    H     0.53870   0.81410   0.76440   0.01267  Uiso   1.00
H80    H     0.54000   0.87740   0.79260   0.01267  Uiso   1.00
H81    H     0.55320   0.21750   0.08890   0.01267  Uiso   1.00
H82    H     0.62100   0.32060   0.08740   0.01267  Uiso   1.00
H83    H     0.57330   0.20690   0.00100   0.01267  Uiso   1.00
H84    H     0.58830   0.29060   0.95730   0.01267  Uiso   1.00
H85    H     0.52170   0.27590   0.98500   0.01267  Uiso   1.00
H86    H     0.45850   0.13930   0.90820   0.01267  Uiso   1.00
H87    H     0.41740   0.20470   0.98510   0.01267  Uiso   1.00
H88    H     0.41040   0.05960   0.92860   0.01267  Uiso   1.00
H89    H     0.33530   0.11110   0.90380   0.01267  Uiso   1.00
H90    H     0.35490   0.10090   0.96120   0.01267  Uiso   1.00
H91    H     0.42730   0.12880   0.82470   0.01267  Uiso   1.00
H92    H     0.50120   0.23450   0.86630   0.01267  Uiso   1.00
H93    H     0.40460   0.15100   0.75460   0.01267  Uiso   1.00
H94    H     0.34180   0.23290   0.72310   0.01267  Uiso   1.00
H95    H     0.38350   0.24180   0.82510   0.01267  Uiso   1.00
H96    H     0.29670   0.12860   0.71270   0.01267  Uiso   1.00
H97    H     0.30300   0.15060   0.82540   0.01267  Uiso   1.00
H98    H     0.17870   0.00120   0.67450   0.01267  Uiso   1.00
H99    H     0.23560   0.04970   0.77430   0.01267  Uiso   1.00
H100   H     0.20740   0.08480   0.74740   0.01267  Uiso   1.00
H101   H     0.44680   0.53570   0.66430   0.01267  Uiso   1.00
H102   H     0.37900   0.46640   0.69960   0.01267  Uiso   1.00
H103   H     0.42670   0.42770   0.63360   0.01267  Uiso   1.00
H104   H     0.41170   0.36900   0.70230   0.01267  Uiso   1.00
H105   H     0.47830   0.46330   0.75420   0.01267  Uiso   1.00
H106   H     0.54150   0.44970   0.68080   0.01267  Uiso   1.00
H107   H     0.58260   0.56770   0.78730   0.01267  Uiso   1.00
H108   H     0.58960   0.51820   0.64920   0.01267  Uiso   1.00
H109   H     0.66470   0.56850   0.77580   0.01267  Uiso   1.00
H110   H     0.64510   0.60630   0.74600   0.01267  Uiso   1.00
H111   H     0.57270   0.39740   0.70150   0.01267  Uiso   1.00
H112   H     0.49880   0.36510   0.73330   0.01267  Uiso   1.00
H113   H     0.59540   0.35000   0.74640   0.01267  Uiso   1.00
H114   H     0.65820   0.38130   0.89110   0.01267  Uiso   1.00
H115   H     0.61650   0.44160   0.85830   0.01267  Uiso   1.00
H116   H     0.70330   0.41600   0.83190   0.01267  Uiso   1.00
H117   H     0.69700   0.52240   0.84760   0.01267  Uiso   1.00
H118   H     0.82130   0.49580   0.82250   0.01267  Uiso   1.00
H119   H     0.76440   0.53870   0.81410   0.01267  Uiso   1.00
H120   H     0.79260   0.54000   0.87740   0.01267  Uiso   1.00
H121   H     0.12860   0.46430   0.91110   0.01267  Uiso   1.00
H122   H     0.23320   0.53360   0.91260   0.01267  Uiso   1.00
H123   H     0.20590   0.57230   0.99900   0.01267  Uiso   1.00
H124   H     0.33330   0.63100   0.04270   0.01267  Uiso   1.00
H125   H     0.29090   0.53670   0.01500   0.01267  Uiso   1.00
H126   H     0.23110   0.55030   0.09180   0.01267  Uiso   1.00
H127   H     0.21960   0.43230   0.01490   0.01267  Uiso   1.00
H128   H     0.13100   0.48180   0.07140   0.01267  Uiso   1.00
H129   H     0.20730   0.43150   0.09620   0.01267  Uiso   1.00
H130   H     0.13970   0.39370   0.03880   0.01267  Uiso   1.00
H131   H     0.30410   0.60260   0.17530   0.01267  Uiso   1.00
H132   H     0.36820   0.63490   0.13370   0.01267  Uiso   1.00
H133   H     0.39640   0.65000   0.24540   0.01267  Uiso   1.00
H134   H     0.50980   0.61870   0.27690   0.01267  Uiso   1.00
H135   H     0.41670   0.55840   0.17490   0.01267  Uiso   1.00
H136   H     0.41590   0.58400   0.28730   0.01267  Uiso   1.00
H137   H     0.32520   0.47760   0.17460   0.01267  Uiso   1.00
H138   H     0.32670   0.50420   0.32550   0.01267  Uiso   1.00
H139   H     0.27540   0.46130   0.22570   0.01267  Uiso   1.00
H140   H     0.33740   0.46000   0.25260   0.01267  Uiso   1.00
H141   H     0.87140   0.78250   0.33570   0.01267  Uiso   1.00
H142   H     0.76680   0.67940   0.30040   0.01267  Uiso   1.00
H143   H     0.79410   0.79310   0.36640   0.01267  Uiso   1.00
H144   H     0.66670   0.70940   0.29770   0.01267  Uiso   1.00
H145   H     0.70910   0.72410   0.24580   0.01267  Uiso   1.00
H146   H     0.76890   0.86070   0.31920   0.01267  Uiso   1.00
H147   H     0.78040   0.79530   0.21270   0.01267  Uiso   1.00
H148   H     0.86900   0.94040   0.35080   0.01267  Uiso   1.00
H149   H     0.79270   0.88890   0.22420   0.01267  Uiso   1.00
H150   H     0.86030   0.89910   0.25400   0.01267  Uiso   1.00
H151   H     0.69590   0.87120   0.29850   0.01267  Uiso   1.00
H152   H     0.63180   0.76550   0.26670   0.01267  Uiso   1.00
H153   H     0.60360   0.84900   0.25360   0.01267  Uiso   1.00
H154   H     0.49020   0.76710   0.10890   0.01267  Uiso   1.00
H155   H     0.58330   0.75820   0.14170   0.01267  Uiso   1.00
H156   H     0.58410   0.87140   0.16810   0.01267  Uiso   1.00
H157   H     0.67480   0.84940   0.15240   0.01267  Uiso   1.00
H158   H     0.67330   0.99880   0.17750   0.01267  Uiso   1.00
H159   H     0.72460   0.95030   0.18590   0.01267  Uiso   1.00
H160   H     0.66260   0.91520   0.12260   0.01267  Uiso   1.00
H161   H     0.33570   0.87140   0.78250   0.01267  Uiso   1.00
H162   H     0.30040   0.76680   0.67940   0.01267  Uiso   1.00
H163   H     0.36640   0.79410   0.79310   0.01267  Uiso   1.00
H164   H     0.29770   0.66670   0.70940   0.01267  Uiso   1.00
H165   H     0.24580   0.70910   0.72410   0.01267  Uiso   1.00
H166   H     0.31920   0.76890   0.86070   0.01267  Uiso   1.00
H167   H     0.21270   0.78040   0.79530   0.01267  Uiso   1.00
H168   H     0.35080   0.86900   0.94040   0.01267  Uiso   1.00
H169   H     0.22420   0.79270   0.88890   0.01267  Uiso   1.00
H170   H     0.25400   0.86030   0.89910   0.01267  Uiso   1.00
H171   H     0.29850   0.69590   0.87120   0.01267  Uiso   1.00
H172   H     0.26670   0.63180   0.76550   0.01267  Uiso   1.00
H173   H     0.25360   0.60360   0.84900   0.01267  Uiso   1.00
H174   H     0.10890   0.49020   0.76710   0.01267  Uiso   1.00
H175   H     0.14170   0.58330   0.75820   0.01267  Uiso   1.00
H176   H     0.16810   0.58410   0.87140   0.01267  Uiso   1.00
H177   H     0.15240   0.67480   0.84940   0.01267  Uiso   1.00
H178   H     0.17750   0.67330   0.99880   0.01267  Uiso   1.00
H179   H     0.18590   0.72460   0.95030   0.01267  Uiso   1.00
H180   H     0.12260   0.66260   0.91520   0.01267  Uiso   1.00
H181   H     0.91110   0.12860   0.46430   0.01267  Uiso   1.00
H182   H     0.91260   0.23320   0.53360   0.01267  Uiso   1.00
H183   H     0.99900   0.20590   0.57230   0.01267  Uiso   1.00
H184   H     0.04270   0.33330   0.63100   0.01267  Uiso   1.00
H185   H     0.01500   0.29090   0.53670   0.01267  Uiso   1.00
H186   H     0.09180   0.23110   0.55030   0.01267  Uiso   1.00
H187   H     0.01490   0.21960   0.43230   0.01267  Uiso   1.00
H188   H     0.07140   0.13100   0.48180   0.01267  Uiso   1.00
H189   H     0.09620   0.20730   0.43150   0.01267  Uiso   1.00
H190   H     0.03880   0.13970   0.39370   0.01267  Uiso   1.00
H191   H     0.17530   0.30410   0.60260   0.01267  Uiso   1.00
H192   H     0.13370   0.36820   0.63490   0.01267  Uiso   1.00
H193   H     0.24540   0.39640   0.65000   0.01267  Uiso   1.00
H194   H     0.27690   0.50980   0.61870   0.01267  Uiso   1.00
H195   H     0.17490   0.41670   0.55840   0.01267  Uiso   1.00
H196   H     0.28730   0.41590   0.58400   0.01267  Uiso   1.00
H197   H     0.17460   0.32520   0.47760   0.01267  Uiso   1.00
H198   H     0.32550   0.32670   0.50420   0.01267  Uiso   1.00
H199   H     0.22570   0.27540   0.46130   0.01267  Uiso   1.00
H200   H     0.25260   0.33740   0.46000   0.01267  Uiso   1.00
H201   H     0.66430   0.44680   0.53570   0.01267  Uiso   1.00
H202   H     0.69960   0.37900   0.46640   0.01267  Uiso   1.00
H203   H     0.63360   0.42670   0.42770   0.01267  Uiso   1.00
H204   H     0.70230   0.41170   0.36900   0.01267  Uiso   1.00
H205   H     0.75420   0.47830   0.46330   0.01267  Uiso   1.00
H206   H     0.68080   0.54150   0.44970   0.01267  Uiso   1.00
H207   H     0.78730   0.58260   0.56770   0.01267  Uiso   1.00
H208   H     0.64920   0.58960   0.51820   0.01267  Uiso   1.00
H209   H     0.77580   0.66470   0.56850   0.01267  Uiso   1.00
H210   H     0.74600   0.64510   0.60630   0.01267  Uiso   1.00
H211   H     0.70150   0.57270   0.39740   0.01267  Uiso   1.00
H212   H     0.73330   0.49880   0.36510   0.01267  Uiso   1.00
H213   H     0.74640   0.59540   0.35000   0.01267  Uiso   1.00
H214   H     0.89110   0.65820   0.38130   0.01267  Uiso   1.00
H215   H     0.85830   0.61650   0.44160   0.01267  Uiso   1.00
H216   H     0.83190   0.70330   0.41600   0.01267  Uiso   1.00
H217   H     0.84760   0.69700   0.52240   0.01267  Uiso   1.00
H218   H     0.82250   0.82130   0.49580   0.01267  Uiso   1.00
H219   H     0.81410   0.76440   0.53870   0.01267  Uiso   1.00
H220   H     0.87740   0.79260   0.54000   0.01267  Uiso   1.00
H221   H     0.08890   0.55320   0.21750   0.01267  Uiso   1.00
H222   H     0.08740   0.62100   0.32060   0.01267  Uiso   1.00
H223   H     0.00100   0.57330   0.20690   0.01267  Uiso   1.00
H224   H     0.95730   0.58830   0.29060   0.01267  Uiso   1.00
H225   H     0.98500   0.52170   0.27590   0.01267  Uiso   1.00
H226   H     0.90820   0.45850   0.13930   0.01267  Uiso   1.00
H227   H     0.98510   0.41740   0.20470   0.01267  Uiso   1.00
H228   H     0.92860   0.41040   0.05960   0.01267  Uiso   1.00
H229   H     0.90380   0.33530   0.11110   0.01267  Uiso   1.00
H230   H     0.96120   0.35490   0.10090   0.01267  Uiso   1.00
H231   H     0.82470   0.42730   0.12880   0.01267  Uiso   1.00
H232   H     0.86630   0.50120   0.23450   0.01267  Uiso   1.00
H233   H     0.75460   0.40460   0.15100   0.01267  Uiso   1.00
H234   H     0.72310   0.34180   0.23290   0.01267  Uiso   1.00
H235   H     0.82510   0.38350   0.24180   0.01267  Uiso   1.00
H236   H     0.71270   0.29670   0.12860   0.01267  Uiso   1.00
H237   H     0.82540   0.30300   0.15060   0.01267  Uiso   1.00
H238   H     0.67450   0.17870   0.00120   0.01267  Uiso   1.00
H239   H     0.77430   0.23560   0.04970   0.01267  Uiso   1.00
H240   H     0.74740   0.20740   0.08480   0.01267  Uiso   1.00
H241   H     0.08890   0.53570   0.87140   0.01267  Uiso   1.00
H242   H     0.08740   0.46640   0.76680   0.01267  Uiso   1.00
H243   H     0.00100   0.42770   0.79410   0.01267  Uiso   1.00
H244   H     0.95730   0.36900   0.66670   0.01267  Uiso   1.00
H245   H     0.98500   0.46330   0.70910   0.01267  Uiso   1.00
H246   H     0.90820   0.44970   0.76890   0.01267  Uiso   1.00
H247   H     0.98510   0.56770   0.78040   0.01267  Uiso   1.00
H248   H     0.92860   0.51820   0.86900   0.01267  Uiso   1.00
H249   H     0.90380   0.56850   0.79270   0.01267  Uiso   1.00
H250   H     0.96120   0.60630   0.86030   0.01267  Uiso   1.00
H251   H     0.82470   0.39740   0.69590   0.01267  Uiso   1.00
H252   H     0.86630   0.36510   0.63180   0.01267  Uiso   1.00
H253   H     0.75460   0.35000   0.60360   0.01267  Uiso   1.00
H254   H     0.72310   0.38130   0.49020   0.01267  Uiso   1.00
H255   H     0.82510   0.44160   0.58330   0.01267  Uiso   1.00
H256   H     0.71270   0.41600   0.58410   0.01267  Uiso   1.00
H257   H     0.82540   0.52240   0.67480   0.01267  Uiso   1.00
H258   H     0.67450   0.49580   0.67330   0.01267  Uiso   1.00
H259   H     0.77430   0.53870   0.72460   0.01267  Uiso   1.00
H260   H     0.74740   0.54000   0.66260   0.01267  Uiso   1.00
H261   H     0.66430   0.21750   0.12860   0.01267  Uiso   1.00
H262   H     0.69960   0.32060   0.23320   0.01267  Uiso   1.00
H263   H     0.63360   0.20690   0.20590   0.01267  Uiso   1.00
H264   H     0.70230   0.29060   0.33330   0.01267  Uiso   1.00
H265   H     0.75420   0.27590   0.29090   0.01267  Uiso   1.00
H266   H     0.68080   0.13930   0.23110   0.01267  Uiso   1.00
H267   H     0.78730   0.20470   0.21960   0.01267  Uiso   1.00
H268   H     0.64920   0.05960   0.13100   0.01267  Uiso   1.00
H269   H     0.77580   0.11110   0.20730   0.01267  Uiso   1.00
H270   H     0.74600   0.10090   0.13970   0.01267  Uiso   1.00
H271   H     0.70150   0.12880   0.30410   0.01267  Uiso   1.00
H272   H     0.73330   0.23450   0.36820   0.01267  Uiso   1.00
H273   H     0.74640   0.15100   0.39640   0.01267  Uiso   1.00
H274   H     0.89110   0.23290   0.50980   0.01267  Uiso   1.00
H275   H     0.85830   0.24180   0.41670   0.01267  Uiso   1.00
H276   H     0.83190   0.12860   0.41590   0.01267  Uiso   1.00
H277   H     0.84760   0.15060   0.32520   0.01267  Uiso   1.00
H278   H     0.82250   0.00120   0.32670   0.01267  Uiso   1.00
H279   H     0.81410   0.04970   0.27540   0.01267  Uiso   1.00
H280   H     0.87740   0.08480   0.33740   0.01267  Uiso   1.00
H281   H     0.91110   0.78250   0.44680   0.01267  Uiso   1.00
H282   H     0.91260   0.67940   0.37900   0.01267  Uiso   1.00
H283   H     0.99900   0.79310   0.42670   0.01267  Uiso   1.00
H284   H     0.04270   0.70940   0.41170   0.01267  Uiso   1.00
H285   H     0.01500   0.72410   0.47830   0.01267  Uiso   1.00
H286   H     0.09180   0.86070   0.54150   0.01267  Uiso   1.00
H287   H     0.01490   0.79530   0.58260   0.01267  Uiso   1.00
H288   H     0.07140   0.94040   0.58960   0.01267  Uiso   1.00
H289   H     0.09620   0.88890   0.66470   0.01267  Uiso   1.00
H290   H     0.03880   0.89910   0.64510   0.01267  Uiso   1.00
H291   H     0.17530   0.87120   0.57270   0.01267  Uiso   1.00
H292   H     0.13370   0.76550   0.49880   0.01267  Uiso   1.00
H293   H     0.24540   0.84900   0.59540   0.01267  Uiso   1.00
H294   H     0.27690   0.76710   0.65820   0.01267  Uiso   1.00
H295   H     0.17490   0.75820   0.61650   0.01267  Uiso   1.00
H296   H     0.28730   0.87140   0.70330   0.01267  Uiso   1.00
H297   H     0.17460   0.84940   0.69700   0.01267  Uiso   1.00
H298   H     0.32550   0.99880   0.82130   0.01267  Uiso   1.00
H299   H     0.22570   0.95030   0.76440   0.01267  Uiso   1.00
H300   H     0.25260   0.91520   0.79260   0.01267  Uiso   1.00
H301   H     0.33570   0.46430   0.55320   0.01267  Uiso   1.00
H302   H     0.30040   0.53360   0.62100   0.01267  Uiso   1.00
H303   H     0.36640   0.57230   0.57330   0.01267  Uiso   1.00
H304   H     0.29770   0.63100   0.58830   0.01267  Uiso   1.00
H305   H     0.24580   0.53670   0.52170   0.01267  Uiso   1.00
H306   H     0.31920   0.55030   0.45850   0.01267  Uiso   1.00
H307   H     0.21270   0.43230   0.41740   0.01267  Uiso   1.00
H308   H     0.35080   0.48180   0.41040   0.01267  Uiso   1.00
H309   H     0.22420   0.43150   0.33530   0.01267  Uiso   1.00
H310   H     0.25400   0.39370   0.35490   0.01267  Uiso   1.00
H311   H     0.29850   0.60260   0.42730   0.01267  Uiso   1.00
H312   H     0.26670   0.63490   0.50120   0.01267  Uiso   1.00
H313   H     0.25360   0.65000   0.40460   0.01267  Uiso   1.00
H314   H     0.10890   0.61870   0.34180   0.01267  Uiso   1.00
H315   H     0.14170   0.55840   0.38350   0.01267  Uiso   1.00
H316   H     0.16810   0.58400   0.29670   0.01267  Uiso   1.00
H317   H     0.15240   0.47760   0.30300   0.01267  Uiso   1.00
H318   H     0.17750   0.50420   0.17870   0.01267  Uiso   1.00
H319   H     0.18590   0.46130   0.23560   0.01267  Uiso   1.00
H320   H     0.12260   0.46000   0.20740   0.01267  Uiso   1.00
H321   H     0.78250   0.44680   0.91110   0.01267  Uiso   1.00
H322   H     0.67940   0.37900   0.91260   0.01267  Uiso   1.00
H323   H     0.79310   0.42670   0.99900   0.01267  Uiso   1.00
H324   H     0.70940   0.41170   0.04270   0.01267  Uiso   1.00
H325   H     0.72410   0.47830   0.01500   0.01267  Uiso   1.00
H326   H     0.86070   0.54150   0.09180   0.01267  Uiso   1.00
H327   H     0.79530   0.58260   0.01490   0.01267  Uiso   1.00
H328   H     0.94040   0.58960   0.07140   0.01267  Uiso   1.00
H329   H     0.88890   0.66470   0.09620   0.01267  Uiso   1.00
H330   H     0.89910   0.64510   0.03880   0.01267  Uiso   1.00
H331   H     0.87120   0.57270   0.17530   0.01267  Uiso   1.00
H332   H     0.76550   0.49880   0.13370   0.01267  Uiso   1.00
H333   H     0.84900   0.59540   0.24540   0.01267  Uiso   1.00
H334   H     0.76710   0.65820   0.27690   0.01267  Uiso   1.00
H335   H     0.75820   0.61650   0.17490   0.01267  Uiso   1.00
H336   H     0.87140   0.70330   0.28730   0.01267  Uiso   1.00
H337   H     0.84940   0.69700   0.17460   0.01267  Uiso   1.00
H338   H     0.99880   0.82130   0.32550   0.01267  Uiso   1.00
H339   H     0.95030   0.76440   0.22570   0.01267  Uiso   1.00
H340   H     0.91520   0.79260   0.25260   0.01267  Uiso   1.00
H341   H     0.46430   0.55320   0.33570   0.01267  Uiso   1.00
H342   H     0.53360   0.62100   0.30040   0.01267  Uiso   1.00
H343   H     0.57230   0.57330   0.36640   0.01267  Uiso   1.00
H344   H     0.63100   0.58830   0.29770   0.01267  Uiso   1.00
H345   H     0.53670   0.52170   0.24580   0.01267  Uiso   1.00
H346   H     0.55030   0.45850   0.31920   0.01267  Uiso   1.00
H347   H     0.43230   0.41740   0.21270   0.01267  Uiso   1.00
H348   H     0.48180   0.41040   0.35080   0.01267  Uiso   1.00
H349   H     0.43150   0.33530   0.22420   0.01267  Uiso   1.00
H350   H     0.39370   0.35490   0.25400   0.01267  Uiso   1.00
H351   H     0.60260   0.42730   0.29850   0.01267  Uiso   1.00
H352   H     0.63490   0.50120   0.26670   0.01267  Uiso   1.00
H353   H     0.65000   0.40460   0.25360   0.01267  Uiso   1.00
H354   H     0.61870   0.34180   0.10890   0.01267  Uiso   1.00
H355   H     0.55840   0.38350   0.14170   0.01267  Uiso   1.00
H356   H     0.58400   0.29670   0.16810   0.01267  Uiso   1.00
H357   H     0.47760   0.30300   0.15240   0.01267  Uiso   1.00
H358   H     0.50420   0.17870   0.17750   0.01267  Uiso   1.00
H359   H     0.46130   0.23560   0.18590   0.01267  Uiso   1.00
H360   H     0.46000   0.20740   0.12260   0.01267  Uiso   1.00
H361   H     0.53570   0.87140   0.08890   0.01267  Uiso   1.00
H362   H     0.46640   0.76680   0.08740   0.01267  Uiso   1.00
H363   H     0.42770   0.79410   0.00100   0.01267  Uiso   1.00
H364   H     0.36900   0.66670   0.95730   0.01267  Uiso   1.00
H365   H     0.46330   0.70910   0.98500   0.01267  Uiso   1.00
H366   H     0.44970   0.76890   0.90820   0.01267  Uiso   1.00
H367   H     0.56770   0.78040   0.98510   0.01267  Uiso   1.00
H368   H     0.51820   0.86900   0.92860   0.01267  Uiso   1.00
H369   H     0.56850   0.79270   0.90380   0.01267  Uiso   1.00
H370   H     0.60630   0.86030   0.96120   0.01267  Uiso   1.00
H371   H     0.39740   0.69590   0.82470   0.01267  Uiso   1.00
H372   H     0.36510   0.63180   0.86630   0.01267  Uiso   1.00
H373   H     0.35000   0.60360   0.75460   0.01267  Uiso   1.00
H374   H     0.38130   0.49020   0.72310   0.01267  Uiso   1.00
H375   H     0.44160   0.58330   0.82510   0.01267  Uiso   1.00
H376   H     0.41600   0.58410   0.71270   0.01267  Uiso   1.00
H377   H     0.52240   0.67480   0.82540   0.01267  Uiso   1.00
H378   H     0.49580   0.67330   0.67450   0.01267  Uiso   1.00
H379   H     0.53870   0.72460   0.77430   0.01267  Uiso   1.00
H380   H     0.54000   0.66260   0.74740   0.01267  Uiso   1.00
H381   H     0.21750   0.12860   0.66430   0.01267  Uiso   1.00
H382   H     0.32060   0.23320   0.69960   0.01267  Uiso   1.00
H383   H     0.20690   0.20590   0.63360   0.01267  Uiso   1.00
H384   H     0.29060   0.33330   0.70230   0.01267  Uiso   1.00
H385   H     0.27590   0.29090   0.75420   0.01267  Uiso   1.00
H386   H     0.13930   0.23110   0.68080   0.01267  Uiso   1.00
H387   H     0.20470   0.21960   0.78730   0.01267  Uiso   1.00
H388   H     0.05960   0.13100   0.64920   0.01267  Uiso   1.00
H389   H     0.11110   0.20730   0.77580   0.01267  Uiso   1.00
H390   H     0.10090   0.13970   0.74600   0.01267  Uiso   1.00
H391   H     0.12880   0.30410   0.70150   0.01267  Uiso   1.00
H392   H     0.23450   0.36820   0.73330   0.01267  Uiso   1.00
H393   H     0.15100   0.39640   0.74640   0.01267  Uiso   1.00
H394   H     0.23290   0.50980   0.89110   0.01267  Uiso   1.00
H395   H     0.24180   0.41670   0.85830   0.01267  Uiso   1.00
H396   H     0.12860   0.41590   0.83190   0.01267  Uiso   1.00
H397   H     0.15060   0.32520   0.84760   0.01267  Uiso   1.00
H398   H     0.00120   0.32670   0.82250   0.01267  Uiso   1.00
H399   H     0.04970   0.27540   0.81410   0.01267  Uiso   1.00
H400   H     0.08480   0.33740   0.87740   0.01267  Uiso   1.00
H401   H     0.12860   0.66430   0.21750   0.01267  Uiso   1.00
H402   H     0.23320   0.69960   0.32060   0.01267  Uiso   1.00
H403   H     0.20590   0.63360   0.20690   0.01267  Uiso   1.00
H404   H     0.33330   0.70230   0.29060   0.01267  Uiso   1.00
H405   H     0.29090   0.75420   0.27590   0.01267  Uiso   1.00
H406   H     0.23110   0.68080   0.13930   0.01267  Uiso   1.00
H407   H     0.21960   0.78730   0.20470   0.01267  Uiso   1.00
H408   H     0.13100   0.64920   0.05960   0.01267  Uiso   1.00
H409   H     0.20730   0.77580   0.11110   0.01267  Uiso   1.00
H410   H     0.13970   0.74600   0.10090   0.01267  Uiso   1.00
H411   H     0.30410   0.70150   0.12880   0.01267  Uiso   1.00
H412   H     0.36820   0.73330   0.23450   0.01267  Uiso   1.00
H413   H     0.39640   0.74640   0.15100   0.01267  Uiso   1.00
H414   H     0.50980   0.89110   0.23290   0.01267  Uiso   1.00
H415   H     0.41670   0.85830   0.24180   0.01267  Uiso   1.00
H416   H     0.41590   0.83190   0.12860   0.01267  Uiso   1.00
H417   H     0.32520   0.84760   0.15060   0.01267  Uiso   1.00
H418   H     0.32670   0.82250   0.00120   0.01267  Uiso   1.00
H419   H     0.27540   0.81410   0.04970   0.01267  Uiso   1.00
H420   H     0.33740   0.87740   0.08480   0.01267  Uiso   1.00
H421   H     0.87140   0.08890   0.53570   0.01267  Uiso   1.00
H422   H     0.76680   0.08740   0.46640   0.01267  Uiso   1.00
H423   H     0.79410   0.00100   0.42770   0.01267  Uiso   1.00
H424   H     0.66670   0.95730   0.36900   0.01267  Uiso   1.00
H425   H     0.70910   0.98500   0.46330   0.01267  Uiso   1.00
H426   H     0.76890   0.90820   0.44970   0.01267  Uiso   1.00
H427   H     0.78040   0.98510   0.56770   0.01267  Uiso   1.00
H428   H     0.86900   0.92860   0.51820   0.01267  Uiso   1.00
H429   H     0.79270   0.90380   0.56850   0.01267  Uiso   1.00
H430   H     0.86030   0.96120   0.60630   0.01267  Uiso   1.00
H431   H     0.69590   0.82470   0.39740   0.01267  Uiso   1.00
H432   H     0.63180   0.86630   0.36510   0.01267  Uiso   1.00
H433   H     0.60360   0.75460   0.35000   0.01267  Uiso   1.00
H434   H     0.49020   0.72310   0.38130   0.01267  Uiso   1.00
H435   H     0.58330   0.82510   0.44160   0.01267  Uiso   1.00
H436   H     0.58410   0.71270   0.41600   0.01267  Uiso   1.00
H437   H     0.67480   0.82540   0.52240   0.01267  Uiso   1.00
H438   H     0.67330   0.67450   0.49580   0.01267  Uiso   1.00
H439   H     0.72460   0.77430   0.53870   0.01267  Uiso   1.00
H440   H     0.66260   0.74740   0.54000   0.01267  Uiso   1.00
H441   H     0.55320   0.33570   0.46430   0.01267  Uiso   1.00
H442   H     0.62100   0.30040   0.53360   0.01267  Uiso   1.00
H443   H     0.57330   0.36640   0.57230   0.01267  Uiso   1.00
H444   H     0.58830   0.29770   0.63100   0.01267  Uiso   1.00
H445   H     0.52170   0.24580   0.53670   0.01267  Uiso   1.00
H446   H     0.45850   0.31920   0.55030   0.01267  Uiso   1.00
H447   H     0.41740   0.21270   0.43230   0.01267  Uiso   1.00
H448   H     0.41040   0.35080   0.48180   0.01267  Uiso   1.00
H449   H     0.33530   0.22420   0.43150   0.01267  Uiso   1.00
H450   H     0.35490   0.25400   0.39370   0.01267  Uiso   1.00
H451   H     0.42730   0.29850   0.60260   0.01267  Uiso   1.00
H452   H     0.50120   0.26670   0.63490   0.01267  Uiso   1.00
H453   H     0.40460   0.25360   0.65000   0.01267  Uiso   1.00
H454   H     0.34180   0.10890   0.61870   0.01267  Uiso   1.00
H455   H     0.38350   0.14170   0.55840   0.01267  Uiso   1.00
H456   H     0.29670   0.16810   0.58400   0.01267  Uiso   1.00
H457   H     0.30300   0.15240   0.47760   0.01267  Uiso   1.00
H458   H     0.17870   0.17750   0.50420   0.01267  Uiso   1.00
H459   H     0.23560   0.18590   0.46130   0.01267  Uiso   1.00
H460   H     0.20740   0.12260   0.46000   0.01267  Uiso   1.00
H461   H     0.44680   0.91110   0.78250   0.01267  Uiso   1.00
H462   H     0.37900   0.91260   0.67940   0.01267  Uiso   1.00
H463   H     0.42670   0.99900   0.79310   0.01267  Uiso   1.00
H464   H     0.41170   0.04270   0.70940   0.01267  Uiso   1.00
H465   H     0.47830   0.01500   0.72410   0.01267  Uiso   1.00
H466   H     0.54150   0.09180   0.86070   0.01267  Uiso   1.00
H467   H     0.58260   0.01490   0.79530   0.01267  Uiso   1.00
H468   H     0.58960   0.07140   0.94040   0.01267  Uiso   1.00
H469   H     0.66470   0.09620   0.88890   0.01267  Uiso   1.00
H470   H     0.64510   0.03880   0.89910   0.01267  Uiso   1.00
H471   H     0.57270   0.17530   0.87120   0.01267  Uiso   1.00
H472   H     0.49880   0.13370   0.76550   0.01267  Uiso   1.00
H473   H     0.59540   0.24540   0.84900   0.01267  Uiso   1.00
H474   H     0.65820   0.27690   0.76710   0.01267  Uiso   1.00
H475   H     0.61650   0.17490   0.75820   0.01267  Uiso   1.00
H476   H     0.70330   0.28730   0.87140   0.01267  Uiso   1.00
H477   H     0.69700   0.17460   0.84940   0.01267  Uiso   1.00
H478   H     0.82130   0.32550   0.99880   0.01267  Uiso   1.00
H479   H     0.76440   0.22570   0.95030   0.01267  Uiso   1.00
H480   H     0.79260   0.25260   0.91520   0.01267  Uiso   1.00
C1     C     0.47190   0.94440   0.16610   0.01267  Uiso   1.00
C2     C     0.54850   0.98120   0.22330   0.01267  Uiso   1.00
C3     C     0.55850   0.03130   0.27120   0.01267  Uiso   1.00
C4     C     0.52820   0.07120   0.24820   0.01267  Uiso   1.00
C5     C     0.45580   0.03080   0.20100   0.01267  Uiso   1.00
C6     C     0.43470   0.06670   0.17640   0.01267  Uiso   1.00
C7     C     0.57890   0.17660   0.32590   0.01267  Uiso   1.00
C8     C     0.61810   0.20470   0.38480   0.01267  Uiso   1.00
C9     C     0.58850   0.21550   0.42600   0.01267  Uiso   1.00
C10    C     0.55350   0.24500   0.40270   0.01267  Uiso   1.00
C11    C     0.51140   0.21530   0.33870   0.01267  Uiso   1.00
C12    C     0.48710   0.24920   0.32050   0.01267  Uiso   1.00
C13    C     0.77830   0.30580   0.83390   0.01267  Uiso   1.00
C14    C     0.75790   0.32520   0.77670   0.01267  Uiso   1.00
C15    C     0.76010   0.28730   0.72880   0.01267  Uiso   1.00
C16    C     0.82300   0.28000   0.75180   0.01267  Uiso   1.00
C17    C     0.82980   0.25480   0.79900   0.01267  Uiso   1.00
C18    C     0.89030   0.25830   0.82360   0.01267  Uiso   1.00
C19    C     0.85070   0.25300   0.67410   0.01267  Uiso   1.00
C20    C     0.81990   0.23330   0.61520   0.01267  Uiso   1.00
C21    C     0.78950   0.16250   0.57400   0.01267  Uiso   1.00
C22    C     0.84230   0.15080   0.59730   0.01267  Uiso   1.00
C23    C     0.87660   0.17270   0.66130   0.01267  Uiso   1.00
C24    C     0.92870   0.16660   0.67950   0.01267  Uiso   1.00
C25    C     0.22170   0.05560   0.52750   0.01267  Uiso   1.00
C26    C     0.24210   0.01880   0.56730   0.01267  Uiso   1.00
C27    C     0.23990   0.96870   0.52720   0.01267  Uiso   1.00
C28    C     0.17700   0.92880   0.45700   0.01267  Uiso   1.00
C29    C     0.17020   0.96920   0.42500   0.01267  Uiso   1.00
C30    C     0.10970   0.93330   0.36800   0.01267  Uiso   1.00
C31    C     0.14930   0.82340   0.40230   0.01267  Uiso   1.00
C32    C     0.18010   0.79530   0.41340   0.01267  Uiso   1.00
C33    C     0.21050   0.78450   0.37300   0.01267  Uiso   1.00
C34    C     0.15770   0.75500   0.30850   0.01267  Uiso   1.00
C35    C     0.12340   0.78470   0.29610   0.01267  Uiso   1.00
C36    C     0.07130   0.75080   0.23790   0.01267  Uiso   1.00
C37    C     0.52810   0.69420   0.47250   0.01267  Uiso   1.00
C38    C     0.45150   0.67480   0.43270   0.01267  Uiso   1.00
C39    C     0.44150   0.71270   0.47280   0.01267  Uiso   1.00
C40    C     0.47180   0.72000   0.54300   0.01267  Uiso   1.00
C41    C     0.54420   0.74520   0.57500   0.01267  Uiso   1.00
C42    C     0.56530   0.74170   0.63200   0.01267  Uiso   1.00
C43    C     0.42110   0.74700   0.59770   0.01267  Uiso   1.00
C44    C     0.38190   0.76670   0.58660   0.01267  Uiso   1.00
C45    C     0.41150   0.83750   0.62700   0.01267  Uiso   1.00
C46    C     0.44650   0.84920   0.69150   0.01267  Uiso   1.00
C47    C     0.48860   0.82730   0.70390   0.01267  Uiso   1.00
C48    C     0.51290   0.83340   0.76210   0.01267  Uiso   1.00
C49    C     0.52750   0.22170   0.05560   0.01267  Uiso   1.00
C50    C     0.56730   0.24210   0.01880   0.01267  Uiso   1.00
C51    C     0.52720   0.23990   0.96870   0.01267  Uiso   1.00
C52    C     0.45700   0.17700   0.92880   0.01267  Uiso   1.00
C53    C     0.42500   0.17020   0.96920   0.01267  Uiso   1.00
C54    C     0.36800   0.10970   0.93330   0.01267  Uiso   1.00
C55    C     0.40230   0.14930   0.82340   0.01267  Uiso   1.00
C56    C     0.41340   0.18010   0.79530   0.01267  Uiso   1.00
C57    C     0.37300   0.21050   0.78450   0.01267  Uiso   1.00
C58    C     0.30850   0.15770   0.75500   0.01267  Uiso   1.00
C59    C     0.29610   0.12340   0.78470   0.01267  Uiso   1.00
C60    C     0.23790   0.07130   0.75080   0.01267  Uiso   1.00
C61    C     0.47250   0.52810   0.69420   0.01267  Uiso   1.00
C62    C     0.43270   0.45150   0.67480   0.01267  Uiso   1.00
C63    C     0.47280   0.44150   0.71270   0.01267  Uiso   1.00
C64    C     0.54300   0.47180   0.72000   0.01267  Uiso   1.00
C65    C     0.57500   0.54420   0.74520   0.01267  Uiso   1.00
C66    C     0.63200   0.56530   0.74170   0.01267  Uiso   1.00
C67    C     0.59770   0.42110   0.74700   0.01267  Uiso   1.00
C68    C     0.58660   0.38190   0.76670   0.01267  Uiso   1.00
C69    C     0.62700   0.41150   0.83750   0.01267  Uiso   1.00
C70    C     0.69150   0.44650   0.84920   0.01267  Uiso   1.00
C71    C     0.70390   0.48860   0.82730   0.01267  Uiso   1.00
C72    C     0.76210   0.51290   0.83340   0.01267  Uiso   1.00
C73    C     0.16610   0.47190   0.94440   0.01267  Uiso   1.00
C74    C     0.22330   0.54850   0.98120   0.01267  Uiso   1.00
C75    C     0.27120   0.55850   0.03130   0.01267  Uiso   1.00
C76    C     0.24820   0.52820   0.07120   0.01267  Uiso   1.00
C77    C     0.20100   0.45580   0.03080   0.01267  Uiso   1.00
C78    C     0.17640   0.43470   0.06670   0.01267  Uiso   1.00
C79    C     0.32590   0.57890   0.17660   0.01267  Uiso   1.00
C80    C     0.38480   0.61810   0.20470   0.01267  Uiso   1.00
C81    C     0.42600   0.58850   0.21550   0.01267  Uiso   1.00
C82    C     0.40270   0.55350   0.24500   0.01267  Uiso   1.00
C83    C     0.33870   0.51140   0.21530   0.01267  Uiso   1.00
C84    C     0.32050   0.48710   0.24920   0.01267  Uiso   1.00
C85    C     0.83390   0.77830   0.30580   0.01267  Uiso   1.00
C86    C     0.77670   0.75790   0.32520   0.01267  Uiso   1.00
C87    C     0.72880   0.76010   0.28730   0.01267  Uiso   1.00
C88    C     0.75180   0.82300   0.28000   0.01267  Uiso   1.00
C89    C     0.79900   0.82980   0.25480   0.01267  Uiso   1.00
C90    C     0.82360   0.89030   0.25830   0.01267  Uiso   1.00
C91    C     0.67410   0.85070   0.25300   0.01267  Uiso   1.00
C92    C     0.61520   0.81990   0.23330   0.01267  Uiso   1.00
C93    C     0.57400   0.78950   0.16250   0.01267  Uiso   1.00
C94    C     0.59730   0.84230   0.15080   0.01267  Uiso   1.00
C95    C     0.66130   0.87660   0.17270   0.01267  Uiso   1.00
C96    C     0.67950   0.92870   0.16660   0.01267  Uiso   1.00
C97    C     0.30580   0.83390   0.77830   0.01267  Uiso   1.00
C98    C     0.32520   0.77670   0.75790   0.01267  Uiso   1.00
C99    C     0.28730   0.72880   0.76010   0.01267  Uiso   1.00
C100   C     0.28000   0.75180   0.82300   0.01267  Uiso   1.00
C101   C     0.25480   0.79900   0.82980   0.01267  Uiso   1.00
C102   C     0.25830   0.82360   0.89030   0.01267  Uiso   1.00
C103   C     0.25300   0.67410   0.85070   0.01267  Uiso   1.00
C104   C     0.23330   0.61520   0.81990   0.01267  Uiso   1.00
C105   C     0.16250   0.57400   0.78950   0.01267  Uiso   1.00
C106   C     0.15080   0.59730   0.84230   0.01267  Uiso   1.00
C107   C     0.17270   0.66130   0.87660   0.01267  Uiso   1.00
C108   C     0.16660   0.67950   0.92870   0.01267  Uiso   1.00
C109   C     0.94440   0.16610   0.47190   0.01267  Uiso   1.00
C110   C     0.98120   0.22330   0.54850   0.01267  Uiso   1.00
C111   C     0.03130   0.27120   0.55850   0.01267  Uiso   1.00
C112   C     0.07120   0.24820   0.52820   0.01267  Uiso   1.00
C113   C     0.03080   0.20100   0.45580   0.01267  Uiso   1.00
C114   C     0.06670   0.17640   0.43470   0.01267  Uiso   1.00
C115   C     0.17660   0.32590   0.57890   0.01267  Uiso   1.00
C116   C     0.20470   0.38480   0.61810   0.01267  Uiso   1.00
C117   C     0.21550   0.42600   0.58850   0.01267  Uiso   1.00
C118   C     0.24500   0.40270   0.55350   0.01267  Uiso   1.00
C119   C     0.21530   0.33870   0.51140   0.01267  Uiso   1.00
C120   C     0.24920   0.32050   0.48710   0.01267  Uiso   1.00
C121   C     0.69420   0.47250   0.52810   0.01267  Uiso   1.00
C122   C     0.67480   0.43270   0.45150   0.01267  Uiso   1.00
C123   C     0.71270   0.47280   0.44150   0.01267  Uiso   1.00
C124   C     0.72000   0.54300   0.47180   0.01267  Uiso   1.00
C125   C     0.74520   0.57500   0.54420   0.01267  Uiso   1.00
C126   C     0.74170   0.63200   0.56530   0.01267  Uiso   1.00
C127   C     0.74700   0.59770   0.42110   0.01267  Uiso   1.00
C128   C     0.76670   0.58660   0.38190   0.01267  Uiso   1.00
C129   C     0.83750   0.62700   0.41150   0.01267  Uiso   1.00
C130   C     0.84920   0.69150   0.44650   0.01267  Uiso   1.00
C131   C     0.82730   0.70390   0.48860   0.01267  Uiso   1.00
C132   C     0.83340   0.76210   0.51290   0.01267  Uiso   1.00
C133   C     0.05560   0.52750   0.22170   0.01267  Uiso   1.00
C134   C     0.01880   0.56730   0.24210   0.01267  Uiso   1.00
C135   C     0.96870   0.52720   0.23990   0.01267  Uiso   1.00
C136   C     0.92880   0.45700   0.17700   0.01267  Uiso   1.00
C137   C     0.96920   0.42500   0.17020   0.01267  Uiso   1.00
C138   C     0.93330   0.36800   0.10970   0.01267  Uiso   1.00
C139   C     0.82340   0.40230   0.14930   0.01267  Uiso   1.00
C140   C     0.79530   0.41340   0.18010   0.01267  Uiso   1.00
C141   C     0.78450   0.37300   0.21050   0.01267  Uiso   1.00
C142   C     0.75500   0.30850   0.15770   0.01267  Uiso   1.00
C143   C     0.78470   0.29610   0.12340   0.01267  Uiso   1.00
C144   C     0.75080   0.23790   0.07130   0.01267  Uiso   1.00
C145   C     0.05560   0.52810   0.83390   0.01267  Uiso   1.00
C146   C     0.01880   0.45150   0.77670   0.01267  Uiso   1.00
C147   C     0.96870   0.44150   0.72880   0.01267  Uiso   1.00
C148   C     0.92880   0.47180   0.75180   0.01267  Uiso   1.00
C149   C     0.96920   0.54420   0.79900   0.01267  Uiso   1.00
C150   C     0.93330   0.56530   0.82360   0.01267  Uiso   1.00
C151   C     0.82340   0.42110   0.67410   0.01267  Uiso   1.00
C152   C     0.79530   0.38190   0.61520   0.01267  Uiso   1.00
C153   C     0.78450   0.41150   0.57400   0.01267  Uiso   1.00
C154   C     0.75500   0.44650   0.59730   0.01267  Uiso   1.00
C155   C     0.78470   0.48860   0.66130   0.01267  Uiso   1.00
C156   C     0.75080   0.51290   0.67950   0.01267  Uiso   1.00
C157   C     0.69420   0.22170   0.16610   0.01267  Uiso   1.00
C158   C     0.67480   0.24210   0.22330   0.01267  Uiso   1.00
C159   C     0.71270   0.23990   0.27120   0.01267  Uiso   1.00
C160   C     0.72000   0.17700   0.24820   0.01267  Uiso   1.00
C161   C     0.74520   0.17020   0.20100   0.01267  Uiso   1.00
C162   C     0.74170   0.10970   0.17640   0.01267  Uiso   1.00
C163   C     0.74700   0.14930   0.32590   0.01267  Uiso   1.00
C164   C     0.76670   0.18010   0.38480   0.01267  Uiso   1.00
C165   C     0.83750   0.21050   0.42600   0.01267  Uiso   1.00
C166   C     0.84920   0.15770   0.40270   0.01267  Uiso   1.00
C167   C     0.82730   0.12340   0.33870   0.01267  Uiso   1.00
C168   C     0.83340   0.07130   0.32050   0.01267  Uiso   1.00
C169   C     0.94440   0.77830   0.47250   0.01267  Uiso   1.00
C170   C     0.98120   0.75790   0.43270   0.01267  Uiso   1.00
C171   C     0.03130   0.76010   0.47280   0.01267  Uiso   1.00
C172   C     0.07120   0.82300   0.54300   0.01267  Uiso   1.00
C173   C     0.03080   0.82980   0.57500   0.01267  Uiso   1.00
C174   C     0.06670   0.89030   0.63200   0.01267  Uiso   1.00
C175   C     0.17660   0.85070   0.59770   0.01267  Uiso   1.00
C176   C     0.20470   0.81990   0.58660   0.01267  Uiso   1.00
C177   C     0.21550   0.78950   0.62700   0.01267  Uiso   1.00
C178   C     0.24500   0.84230   0.69150   0.01267  Uiso   1.00
C179   C     0.21530   0.87660   0.70390   0.01267  Uiso   1.00
C180   C     0.24920   0.92870   0.76210   0.01267  Uiso   1.00
C181   C     0.30580   0.47190   0.52750   0.01267  Uiso   1.00
C182   C     0.32520   0.54850   0.56730   0.01267  Uiso   1.00
C183   C     0.28730   0.55850   0.52720   0.01267  Uiso   1.00
C184   C     0.28000   0.52820   0.45700   0.01267  Uiso   1.00
C185   C     0.25480   0.45580   0.42500   0.01267  Uiso   1.00
C186   C     0.25830   0.43470   0.36800   0.01267  Uiso   1.00
C187   C     0.25300   0.57890   0.40230   0.01267  Uiso   1.00
C188   C     0.23330   0.61810   0.41340   0.01267  Uiso   1.00
C189   C     0.16250   0.58850   0.37300   0.01267  Uiso   1.00
C190   C     0.15080   0.55350   0.30850   0.01267  Uiso   1.00
C191   C     0.17270   0.51140   0.29610   0.01267  Uiso   1.00
C192   C     0.16660   0.48710   0.23790   0.01267  Uiso   1.00
C193   C     0.77830   0.47250   0.94440   0.01267  Uiso   1.00
C194   C     0.75790   0.43270   0.98120   0.01267  Uiso   1.00
C195   C     0.76010   0.47280   0.03130   0.01267  Uiso   1.00
C196   C     0.82300   0.54300   0.07120   0.01267  Uiso   1.00
C197   C     0.82980   0.57500   0.03080   0.01267  Uiso   1.00
C198   C     0.89030   0.63200   0.06670   0.01267  Uiso   1.00
C199   C     0.85070   0.59770   0.17660   0.01267  Uiso   1.00
C200   C     0.81990   0.58660   0.20470   0.01267  Uiso   1.00
C201   C     0.78950   0.62700   0.21550   0.01267  Uiso   1.00
C202   C     0.84230   0.69150   0.24500   0.01267  Uiso   1.00
C203   C     0.87660   0.70390   0.21530   0.01267  Uiso   1.00
C204   C     0.92870   0.76210   0.24920   0.01267  Uiso   1.00
C205   C     0.47190   0.52750   0.30580   0.01267  Uiso   1.00
C206   C     0.54850   0.56730   0.32520   0.01267  Uiso   1.00
C207   C     0.55850   0.52720   0.28730   0.01267  Uiso   1.00
C208   C     0.52820   0.45700   0.28000   0.01267  Uiso   1.00
C209   C     0.45580   0.42500   0.25480   0.01267  Uiso   1.00
C210   C     0.43470   0.36800   0.25830   0.01267  Uiso   1.00
C211   C     0.57890   0.40230   0.25300   0.01267  Uiso   1.00
C212   C     0.61810   0.41340   0.23330   0.01267  Uiso   1.00
C213   C     0.58850   0.37300   0.16250   0.01267  Uiso   1.00
C214   C     0.55350   0.30850   0.15080   0.01267  Uiso   1.00
C215   C     0.51140   0.29610   0.17270   0.01267  Uiso   1.00
C216   C     0.48710   0.23790   0.16660   0.01267  Uiso   1.00
C217   C     0.52810   0.83390   0.05560   0.01267  Uiso   1.00
C218   C     0.45150   0.77670   0.01880   0.01267  Uiso   1.00
C219   C     0.44150   0.72880   0.96870   0.01267  Uiso   1.00
C220   C     0.47180   0.75180   0.92880   0.01267  Uiso   1.00
C221   C     0.54420   0.79900   0.96920   0.01267  Uiso   1.00
C222   C     0.56530   0.82360   0.93330   0.01267  Uiso   1.00
C223   C     0.42110   0.67410   0.82340   0.01267  Uiso   1.00
C224   C     0.38190   0.61520   0.79530   0.01267  Uiso   1.00
C225   C     0.41150   0.57400   0.78450   0.01267  Uiso   1.00
C226   C     0.44650   0.59730   0.75500   0.01267  Uiso   1.00
C227   C     0.48860   0.66130   0.78470   0.01267  Uiso   1.00
C228   C     0.51290   0.67950   0.75080   0.01267  Uiso   1.00
C229   C     0.22170   0.16610   0.69420   0.01267  Uiso   1.00
C230   C     0.24210   0.22330   0.67480   0.01267  Uiso   1.00
C231   C     0.23990   0.27120   0.71270   0.01267  Uiso   1.00
C232   C     0.17700   0.24820   0.72000   0.01267  Uiso   1.00
C233   C     0.17020   0.20100   0.74520   0.01267  Uiso   1.00
C234   C     0.10970   0.17640   0.74170   0.01267  Uiso   1.00
C235   C     0.14930   0.32590   0.74700   0.01267  Uiso   1.00
C236   C     0.18010   0.38480   0.76670   0.01267  Uiso   1.00
C237   C     0.21050   0.42600   0.83750   0.01267  Uiso   1.00
C238   C     0.15770   0.40270   0.84920   0.01267  Uiso   1.00
C239   C     0.12340   0.33870   0.82730   0.01267  Uiso   1.00
C240   C     0.07130   0.32050   0.83340   0.01267  Uiso   1.00
C241   C     0.16610   0.69420   0.22170   0.01267  Uiso   1.00
C242   C     0.22330   0.67480   0.24210   0.01267  Uiso   1.00
C243   C     0.27120   0.71270   0.23990   0.01267  Uiso   1.00
C244   C     0.24820   0.72000   0.17700   0.01267  Uiso   1.00
C245   C     0.20100   0.74520   0.17020   0.01267  Uiso   1.00
C246   C     0.17640   0.74170   0.10970   0.01267  Uiso   1.00
C247   C     0.32590   0.74700   0.14930   0.01267  Uiso   1.00
C248   C     0.38480   0.76670   0.18010   0.01267  Uiso   1.00
C249   C     0.42600   0.83750   0.21050   0.01267  Uiso   1.00
C250   C     0.40270   0.84920   0.15770   0.01267  Uiso   1.00
C251   C     0.33870   0.82730   0.12340   0.01267  Uiso   1.00
C252   C     0.32050   0.83340   0.07130   0.01267  Uiso   1.00
C253   C     0.83390   0.05560   0.52810   0.01267  Uiso   1.00
C254   C     0.77670   0.01880   0.45150   0.01267  Uiso   1.00
C255   C     0.72880   0.96870   0.44150   0.01267  Uiso   1.00
C256   C     0.75180   0.92880   0.47180   0.01267  Uiso   1.00
C257   C     0.79900   0.96920   0.54420   0.01267  Uiso   1.00
C258   C     0.82360   0.93330   0.56530   0.01267  Uiso   1.00
C259   C     0.67410   0.82340   0.42110   0.01267  Uiso   1.00
C260   C     0.61520   0.79530   0.38190   0.01267  Uiso   1.00
C261   C     0.57400   0.78450   0.41150   0.01267  Uiso   1.00
C262   C     0.59730   0.75500   0.44650   0.01267  Uiso   1.00
C263   C     0.66130   0.78470   0.48860   0.01267  Uiso   1.00
C264   C     0.67950   0.75080   0.51290   0.01267  Uiso   1.00
C265   C     0.52750   0.30580   0.47190   0.01267  Uiso   1.00
C266   C     0.56730   0.32520   0.54850   0.01267  Uiso   1.00
C267   C     0.52720   0.28730   0.55850   0.01267  Uiso   1.00
C268   C     0.45700   0.28000   0.52820   0.01267  Uiso   1.00
C269   C     0.42500   0.25480   0.45580   0.01267  Uiso   1.00
C270   C     0.36800   0.25830   0.43470   0.01267  Uiso   1.00
C271   C     0.40230   0.25300   0.57890   0.01267  Uiso   1.00
C272   C     0.41340   0.23330   0.61810   0.01267  Uiso   1.00
C273   C     0.37300   0.16250   0.58850   0.01267  Uiso   1.00
C274   C     0.30850   0.15080   0.55350   0.01267  Uiso   1.00
C275   C     0.29610   0.17270   0.51140   0.01267  Uiso   1.00
C276   C     0.23790   0.16660   0.48710   0.01267  Uiso   1.00
C277   C     0.47250   0.94440   0.77830   0.01267  Uiso   1.00
C278   C     0.43270   0.98120   0.75790   0.01267  Uiso   1.00
C279   C     0.47280   0.03130   0.76010   0.01267  Uiso   1.00
C280   C     0.54300   0.07120   0.82300   0.01267  Uiso   1.00
C281   C     0.57500   0.03080   0.82980   0.01267  Uiso   1.00
C282   C     0.63200   0.06670   0.89030   0.01267  Uiso   1.00
C283   C     0.59770   0.17660   0.85070   0.01267  Uiso   1.00
C284   C     0.58660   0.20470   0.81990   0.01267  Uiso   1.00
C285   C     0.62700   0.21550   0.78950   0.01267  Uiso   1.00
C286   C     0.69150   0.24500   0.84230   0.01267  Uiso   1.00
C287   C     0.70390   0.21530   0.87660   0.01267  Uiso   1.00
C288   C     0.76210   0.24920   0.92870   0.01267  Uiso   1.00
O1     O     0.45490   0.98010   0.15240   0.01267  Uiso   1.00
O2     O     0.56420   0.94170   0.22990   0.01267  Uiso   1.00
O3     O     0.61970   0.06550   0.31420   0.01267  Uiso   1.00
O4     O     0.53418   0.11558   0.30200   0.01267  Uiso   1.00
O5     O     0.47700   0.10020   0.16020   0.01267  Uiso   1.00
O6     O     0.54479   0.20749   0.30830   0.01267  Uiso   1.00
O7     O     0.64970   0.17240   0.40390   0.01267  Uiso   1.00
O8     O     0.63100   0.24990   0.48890   0.01267  Uiso   1.00
O9     O     0.44215   0.91905   0.19230   0.01267  Uiso   1.00
O10    O     0.52610   0.30410   0.33620   0.01267  Uiso   1.00
O11    O     0.82770   0.30250   0.84760   0.01267  Uiso   1.00
O12    O     0.71180   0.33430   0.77010   0.01267  Uiso   1.00
O13    O     0.75130   0.30550   0.68580   0.01267  Uiso   1.00
O14    O     0.81358   0.23218   0.69800   0.01267  Uiso   1.00
O15    O     0.94000   0.31680   0.83980   0.01267  Uiso   1.00
O16    O     0.89919   0.23649   0.69170   0.01267  Uiso   1.00
O17    O     0.76850   0.24580   0.59610   0.01267  Uiso   1.00
O18    O     0.76100   0.14210   0.51110   0.01267  Uiso   1.00
O19    O     0.72675   0.24985   0.80770   0.01267  Uiso   1.00
O20    O     0.96790   0.18990   0.66380   0.01267  Uiso   1.00
O21    O     0.17230   0.01990   0.47480   0.01267  Uiso   1.00
O22    O     0.28820   0.05830   0.62250   0.01267  Uiso   1.00
O23    O     0.24870   0.93450   0.55420   0.01267  Uiso   1.00
O24    O     0.18642   0.88442   0.41860   0.01267  Uiso   1.00
O25    O     0.06000   0.89980   0.37680   0.01267  Uiso   1.00
O26    O     0.10081   0.79251   0.33730   0.01267  Uiso   1.00
O27    O     0.23150   0.82760   0.47730   0.01267  Uiso   1.00
O28    O     0.23900   0.75010   0.38110   0.01267  Uiso   1.00
O29    O     0.27325   0.08095   0.52310   0.01267  Uiso   1.00
O30    O     0.03210   0.69590   0.22200   0.01267  Uiso   1.00
O31    O     0.54510   0.69750   0.52520   0.01267  Uiso   1.00
O32    O     0.43580   0.66570   0.37750   0.01267  Uiso   1.00
O33    O     0.38030   0.69450   0.44580   0.01267  Uiso   1.00
O34    O     0.46582   0.76782   0.58140   0.01267  Uiso   1.00
O35    O     0.52300   0.68320   0.62320   0.01267  Uiso   1.00
O36    O     0.45521   0.76351   0.66270   0.01267  Uiso   1.00
O37    O     0.35030   0.75420   0.52270   0.01267  Uiso   1.00
O38    O     0.36900   0.85790   0.61890   0.01267  Uiso   1.00
O39    O     0.55785   0.75015   0.47690   0.01267  Uiso   1.00
O40    O     0.47390   0.81010   0.77800   0.01267  Uiso   1.00
O41    O     0.47480   0.17230   0.01990   0.01267  Uiso   1.00
O42    O     0.62250   0.28820   0.05830   0.01267  Uiso   1.00
O43    O     0.55420   0.24870   0.93450   0.01267  Uiso   1.00
O44    O     0.41860   0.18642   0.88442   0.01267  Uiso   1.00
O45    O     0.37680   0.06000   0.89980   0.01267  Uiso   1.00
O46    O     0.33730   0.10081   0.79251   0.01267  Uiso   1.00
O47    O     0.47730   0.23150   0.82760   0.01267  Uiso   1.00
O48    O     0.38110   0.23900   0.75010   0.01267  Uiso   1.00
O49    O     0.52310   0.27325   0.08095   0.01267  Uiso   1.00
O50    O     0.22200   0.03210   0.69590   0.01267  Uiso   1.00
O51    O     0.52520   0.54510   0.69750   0.01267  Uiso   1.00
O52    O     0.37750   0.43580   0.66570   0.01267  Uiso   1.00
O53    O     0.44580   0.38030   0.69450   0.01267  Uiso   1.00
O54    O     0.58140   0.46582   0.76782   0.01267  Uiso   1.00
O55    O     0.62320   0.52300   0.68320   0.01267  Uiso   1.00
O56    O     0.66270   0.45521   0.76351   0.01267  Uiso   1.00
O57    O     0.52270   0.35030   0.75420   0.01267  Uiso   1.00
O58    O     0.61890   0.36900   0.85790   0.01267  Uiso   1.00
O59    O     0.47690   0.55785   0.75015   0.01267  Uiso   1.00
O60    O     0.77800   0.47390   0.81010   0.01267  Uiso   1.00
O61    O     0.15240   0.45490   0.98010   0.01267  Uiso   1.00
O62    O     0.22990   0.56420   0.94170   0.01267  Uiso   1.00
O63    O     0.31420   0.61970   0.06550   0.01267  Uiso   1.00
O64    O     0.30200   0.53418   0.11558   0.01267  Uiso   1.00
O65    O     0.16020   0.47700   0.10020   0.01267  Uiso   1.00
O66    O     0.30830   0.54479   0.20749   0.01267  Uiso   1.00
O67    O     0.40390   0.64970   0.17240   0.01267  Uiso   1.00
O68    O     0.48890   0.63100   0.24990   0.01267  Uiso   1.00
O69    O     0.19230   0.44215   0.91905   0.01267  Uiso   1.00
O70    O     0.33620   0.52610   0.30410   0.01267  Uiso   1.00
O71    O     0.84760   0.82770   0.30250   0.01267  Uiso   1.00
O72    O     0.77010   0.71180   0.33430   0.01267  Uiso   1.00
O73    O     0.68580   0.75130   0.30550   0.01267  Uiso   1.00
O74    O     0.69800   0.81358   0.23218   0.01267  Uiso   1.00
O75    O     0.83980   0.94000   0.31680   0.01267  Uiso   1.00
O76    O     0.69170   0.89919   0.23649   0.01267  Uiso   1.00
O77    O     0.59610   0.76850   0.24580   0.01267  Uiso   1.00
O78    O     0.51110   0.76100   0.14210   0.01267  Uiso   1.00
O79    O     0.80770   0.72675   0.24985   0.01267  Uiso   1.00
O80    O     0.66380   0.96790   0.18990   0.01267  Uiso   1.00
O81    O     0.30250   0.84760   0.82770   0.01267  Uiso   1.00
O82    O     0.33430   0.77010   0.71180   0.01267  Uiso   1.00
O83    O     0.30550   0.68580   0.75130   0.01267  Uiso   1.00
O84    O     0.23218   0.69800   0.81358   0.01267  Uiso   1.00
O85    O     0.31680   0.83980   0.94000   0.01267  Uiso   1.00
O86    O     0.23649   0.69170   0.89919   0.01267  Uiso   1.00
O87    O     0.24580   0.59610   0.76850   0.01267  Uiso   1.00
O88    O     0.14210   0.51110   0.76100   0.01267  Uiso   1.00
O89    O     0.24985   0.80770   0.72675   0.01267  Uiso   1.00
O90    O     0.18990   0.66380   0.96790   0.01267  Uiso   1.00
O91    O     0.98010   0.15240   0.45490   0.01267  Uiso   1.00
O92    O     0.94170   0.22990   0.56420   0.01267  Uiso   1.00
O93    O     0.06550   0.31420   0.61970   0.01267  Uiso   1.00
O94    O     0.11558   0.30200   0.53418   0.01267  Uiso   1.00
O95    O     0.10020   0.16020   0.47700   0.01267  Uiso   1.00
O96    O     0.20749   0.30830   0.54479   0.01267  Uiso   1.00
O97    O     0.17240   0.40390   0.64970   0.01267  Uiso   1.00
O98    O     0.24990   0.48890   0.63100   0.01267  Uiso   1.00
O99    O     0.91905   0.19230   0.44215   0.01267  Uiso   1.00
O100   O     0.30410   0.33620   0.52610   0.01267  Uiso   1.00
O101   O     0.69750   0.52520   0.54510   0.01267  Uiso   1.00
O102   O     0.66570   0.37750   0.43580   0.01267  Uiso   1.00
O103   O     0.69450   0.44580   0.38030   0.01267  Uiso   1.00
O104   O     0.76782   0.58140   0.46582   0.01267  Uiso   1.00
O105   O     0.68320   0.62320   0.52300   0.01267  Uiso   1.00
O106   O     0.76351   0.66270   0.45521   0.01267  Uiso   1.00
O107   O     0.75420   0.52270   0.35030   0.01267  Uiso   1.00
O108   O     0.85790   0.61890   0.36900   0.01267  Uiso   1.00
O109   O     0.75015   0.47690   0.55785   0.01267  Uiso   1.00
O110   O     0.81010   0.77800   0.47390   0.01267  Uiso   1.00
O111   O     0.01990   0.47480   0.17230   0.01267  Uiso   1.00
O112   O     0.05830   0.62250   0.28820   0.01267  Uiso   1.00
O113   O     0.93450   0.55420   0.24870   0.01267  Uiso   1.00
O114   O     0.88442   0.41860   0.18642   0.01267  Uiso   1.00
O115   O     0.89980   0.37680   0.06000   0.01267  Uiso   1.00
O116   O     0.79251   0.33730   0.10081   0.01267  Uiso   1.00
O117   O     0.82760   0.47730   0.23150   0.01267  Uiso   1.00
O118   O     0.75010   0.38110   0.23900   0.01267  Uiso   1.00
O119   O     0.08095   0.52310   0.27325   0.01267  Uiso   1.00
O120   O     0.69590   0.22200   0.03210   0.01267  Uiso   1.00
O121   O     0.01990   0.54510   0.84760   0.01267  Uiso   1.00
O122   O     0.05830   0.43580   0.77010   0.01267  Uiso   1.00
O123   O     0.93450   0.38030   0.68580   0.01267  Uiso   1.00
O124   O     0.88442   0.46582   0.69800   0.01267  Uiso   1.00
O125   O     0.89980   0.52300   0.83980   0.01267  Uiso   1.00
O126   O     0.79251   0.45521   0.69170   0.01267  Uiso   1.00
O127   O     0.82760   0.35030   0.59610   0.01267  Uiso   1.00
O128   O     0.75010   0.36900   0.51110   0.01267  Uiso   1.00
O129   O     0.08095   0.55785   0.80770   0.01267  Uiso   1.00
O130   O     0.69590   0.47390   0.66380   0.01267  Uiso   1.00
O131   O     0.69750   0.17230   0.15240   0.01267  Uiso   1.00
O132   O     0.66570   0.28820   0.22990   0.01267  Uiso   1.00
O133   O     0.69450   0.24870   0.31420   0.01267  Uiso   1.00
O134   O     0.76782   0.18642   0.30200   0.01267  Uiso   1.00
O135   O     0.68320   0.06000   0.16020   0.01267  Uiso   1.00
O136   O     0.76351   0.10081   0.30830   0.01267  Uiso   1.00
O137   O     0.75420   0.23150   0.40390   0.01267  Uiso   1.00
O138   O     0.85790   0.23900   0.48890   0.01267  Uiso   1.00
O139   O     0.75015   0.27325   0.19230   0.01267  Uiso   1.00
O140   O     0.81010   0.03210   0.33620   0.01267  Uiso   1.00
O141   O     0.98010   0.82770   0.52520   0.01267  Uiso   1.00
O142   O     0.94170   0.71180   0.37750   0.01267  Uiso   1.00
O143   O     0.06550   0.75130   0.44580   0.01267  Uiso   1.00
O144   O     0.11558   0.81358   0.58140   0.01267  Uiso   1.00
O145   O     0.10020   0.94000   0.62320   0.01267  Uiso   1.00
O146   O     0.20749   0.89919   0.66270   0.01267  Uiso   1.00
O147   O     0.17240   0.76850   0.52270   0.01267  Uiso   1.00
O148   O     0.24990   0.76100   0.61890   0.01267  Uiso   1.00
O149   O     0.91905   0.72675   0.47690   0.01267  Uiso   1.00
O150   O     0.30410   0.96790   0.77800   0.01267  Uiso   1.00
O151   O     0.30250   0.45490   0.47480   0.01267  Uiso   1.00
O152   O     0.33430   0.56420   0.62250   0.01267  Uiso   1.00
O153   O     0.30550   0.61970   0.55420   0.01267  Uiso   1.00
O154   O     0.23218   0.53418   0.41860   0.01267  Uiso   1.00
O155   O     0.31680   0.47700   0.37680   0.01267  Uiso   1.00
O156   O     0.23649   0.54479   0.33730   0.01267  Uiso   1.00
O157   O     0.24580   0.64970   0.47730   0.01267  Uiso   1.00
O158   O     0.14210   0.63100   0.38110   0.01267  Uiso   1.00
O159   O     0.24985   0.44215   0.52310   0.01267  Uiso   1.00
O160   O     0.18990   0.52610   0.22200   0.01267  Uiso   1.00
O161   O     0.82770   0.52520   0.98010   0.01267  Uiso   1.00
O162   O     0.71180   0.37750   0.94170   0.01267  Uiso   1.00
O163   O     0.75130   0.44580   0.06550   0.01267  Uiso   1.00
O164   O     0.81358   0.58140   0.11558   0.01267  Uiso   1.00
O165   O     0.94000   0.62320   0.10020   0.01267  Uiso   1.00
O166   O     0.89919   0.66270   0.20749   0.01267  Uiso   1.00
O167   O     0.76850   0.52270   0.17240   0.01267  Uiso   1.00
O168   O     0.76100   0.61890   0.24990   0.01267  Uiso   1.00
O169   O     0.72675   0.47690   0.91905   0.01267  Uiso   1.00
O170   O     0.96790   0.77800   0.30410   0.01267  Uiso   1.00
O171   O     0.45490   0.47480   0.30250   0.01267  Uiso   1.00
O172   O     0.56420   0.62250   0.33430   0.01267  Uiso   1.00
O173   O     0.61970   0.55420   0.30550   0.01267  Uiso   1.00
O174   O     0.53418   0.41860   0.23218   0.01267  Uiso   1.00
O175   O     0.47700   0.37680   0.31680   0.01267  Uiso   1.00
O176   O     0.54479   0.33730   0.23649   0.01267  Uiso   1.00
O177   O     0.64970   0.47730   0.24580   0.01267  Uiso   1.00
O178   O     0.63100   0.38110   0.14210   0.01267  Uiso   1.00
O179   O     0.44215   0.52310   0.24985   0.01267  Uiso   1.00
O180   O     0.52610   0.22200   0.18990   0.01267  Uiso   1.00
O181   O     0.54510   0.84760   0.01990   0.01267  Uiso   1.00
O182   O     0.43580   0.77010   0.05830   0.01267  Uiso   1.00
O183   O     0.38030   0.68580   0.93450   0.01267  Uiso   1.00
O184   O     0.46582   0.69800   0.88442   0.01267  Uiso   1.00
O185   O     0.52300   0.83980   0.89980   0.01267  Uiso   1.00
O186   O     0.45521   0.69170   0.79251   0.01267  Uiso   1.00
O187   O     0.35030   0.59610   0.82760   0.01267  Uiso   1.00
O188   O     0.36900   0.51110   0.75010   0.01267  Uiso   1.00
O189   O     0.55785   0.80770   0.08095   0.01267  Uiso   1.00
O190   O     0.47390   0.66380   0.69590   0.01267  Uiso   1.00
O191   O     0.17230   0.15240   0.69750   0.01267  Uiso   1.00
O192   O     0.28820   0.22990   0.66570   0.01267  Uiso   1.00
O193   O     0.24870   0.31420   0.69450   0.01267  Uiso   1.00
O194   O     0.18642   0.30200   0.76782   0.01267  Uiso   1.00
O195   O     0.06000   0.16020   0.68320   0.01267  Uiso   1.00
O196   O     0.10081   0.30830   0.76351   0.01267  Uiso   1.00
O197   O     0.23150   0.40390   0.75420   0.01267  Uiso   1.00
O198   O     0.23900   0.48890   0.85790   0.01267  Uiso   1.00
O199   O     0.27325   0.19230   0.75015   0.01267  Uiso   1.00
O200   O     0.03210   0.33620   0.81010   0.01267  Uiso   1.00
O201   O     0.15240   0.69750   0.17230   0.01267  Uiso   1.00
O202   O     0.22990   0.66570   0.28820   0.01267  Uiso   1.00
O203   O     0.31420   0.69450   0.24870   0.01267  Uiso   1.00
O204   O     0.30200   0.76782   0.18642   0.01267  Uiso   1.00
O205   O     0.16020   0.68320   0.06000   0.01267  Uiso   1.00
O206   O     0.30830   0.76351   0.10081   0.01267  Uiso   1.00
O207   O     0.40390   0.75420   0.23150   0.01267  Uiso   1.00
O208   O     0.48890   0.85790   0.23900   0.01267  Uiso   1.00
O209   O     0.19230   0.75015   0.27325   0.01267  Uiso   1.00
O210   O     0.33620   0.81010   0.03210   0.01267  Uiso   1.00
O211   O     0.84760   0.01990   0.54510   0.01267  Uiso   1.00
O212   O     0.77010   0.05830   0.43580   0.01267  Uiso   1.00
O213   O     0.68580   0.93450   0.38030   0.01267  Uiso   1.00
O214   O     0.69800   0.88442   0.46582   0.01267  Uiso   1.00
O215   O     0.83980   0.89980   0.52300   0.01267  Uiso   1.00
O216   O     0.69170   0.79251   0.45521   0.01267  Uiso   1.00
O217   O     0.59610   0.82760   0.35030   0.01267  Uiso   1.00
O218   O     0.51110   0.75010   0.36900   0.01267  Uiso   1.00
O219   O     0.80770   0.08095   0.55785   0.01267  Uiso   1.00
O220   O     0.66380   0.69590   0.47390   0.01267  Uiso   1.00
O221   O     0.47480   0.30250   0.45490   0.01267  Uiso   1.00
O222   O     0.62250   0.33430   0.56420   0.01267  Uiso   1.00
O223   O     0.55420   0.30550   0.61970   0.01267  Uiso   1.00
O224   O     0.41860   0.23218   0.53418   0.01267  Uiso   1.00
O225   O     0.37680   0.31680   0.47700   0.01267  Uiso   1.00
O226   O     0.33730   0.23649   0.54479   0.01267  Uiso   1.00
O227   O     0.47730   0.24580   0.64970   0.01267  Uiso   1.00
O228   O     0.38110   0.14210   0.63100   0.01267  Uiso   1.00
O229   O     0.52310   0.24985   0.44215   0.01267  Uiso   1.00
O230   O     0.22200   0.18990   0.52610   0.01267  Uiso   1.00
O231   O     0.52520   0.98010   0.82770   0.01267  Uiso   1.00
O232   O     0.37750   0.94170   0.71180   0.01267  Uiso   1.00
O233   O     0.44580   0.06550   0.75130   0.01267  Uiso   1.00
O234   O     0.58140   0.11558   0.81358   0.01267  Uiso   1.00
O235   O     0.62320   0.10020   0.94000   0.01267  Uiso   1.00
O236   O     0.66270   0.20749   0.89919   0.01267  Uiso   1.00
O237   O     0.52270   0.17240   0.76850   0.01267  Uiso   1.00
O238   O     0.61890   0.24990   0.76100   0.01267  Uiso   1.00
O239   O     0.47690   0.91905   0.72675   0.01267  Uiso   1.00
O240   O     0.77800   0.30410   0.96790   0.01267  Uiso   1.00
