data_image0
_cell_length_a       15.1046
_cell_length_b       24.5318
_cell_length_c       33.1539
_cell_angle_alpha    90
_cell_angle_beta     90
_cell_angle_gamma    90

_symmetry_space_group_name_H-M    "P 1"
_symmetry_int_tables_number       1

loop_
  _symmetry_equiv_pos_as_xyz
  'x, y, z'

loop_
  _atom_site_label
  _atom_site_occupancy
  _atom_site_fract_x
  _atom_site_fract_y
  _atom_site_fract_z
  _atom_site_thermal_displace_type
  _atom_site_B_iso_or_equiv
  _atom_site_type_symbol
  O1       1.0000 0.35580  0.30980  0.02182  Biso   1.000  O
  O2       1.0000 0.49090  0.33750  0.03377  Biso   1.000  O
  O3       1.0000 0.64660  0.18860  0.86766  Biso   1.000  O
  O4       1.0000 0.51150  0.16420  0.85314  Biso   1.000  O
  N1       1.0000 0.33650  0.21490  0.97650  Biso   1.000  N
  H1       1.0000 0.30560  0.19010  0.96350  Biso   1.000  H
  H2       1.0000 0.31550  0.22940  0.99880  Biso   1.000  H
  C1       1.0000 0.43860  0.30910  0.01300  Biso   1.000  C
  C2       1.0000 0.47080  0.27720  0.97820  Biso   1.000  C
  C3       1.0000 0.53270  0.22200  0.91080  Biso   1.000  C
  C4       1.0000 0.56540  0.19040  0.87480  Biso   1.000  C
  C5       1.0000 0.41910  0.23140  0.96160  Biso   1.000  C
  C6       1.0000 0.44980  0.20700  0.92580  Biso   1.000  C
  H3       1.0000 0.41470  0.18070  0.91210  Biso   1.000  H
  C7       1.0000 0.58810  0.26210  0.92930  Biso   1.000  C
  H4       1.0000 0.64480  0.27080  0.91860  Biso   1.000  H
  C8       1.0000 0.55530  0.28820  0.96390  Biso   1.000  C
  C9       1.0000 0.41190  0.25070  0.95370  Biso   1.000  C
  C10      1.0000 0.44400  0.22450  0.91910  Biso   1.000  C
  H5       1.0000 0.40330  0.20810  0.90090  Biso   1.000  H
  C11      1.0000 0.59210  0.24790  0.93550  Biso   1.000  C
  H6       1.0000 0.65370  0.24710  0.92960  Biso   1.000  H
  C12      1.0000 0.56000  0.27540  0.96960  Biso   1.000  C
  N2       1.0000 0.62700  0.30100  0.99240  Biso   1.000  N
  H7       1.0000 0.61280  0.32050  0.01390  Biso   1.000  H
  H8       1.0000 0.68290  0.29850  0.98510  Biso   1.000  H
  N3       1.0000 0.61000  0.32300  0.98280  Biso   1.000  N
  H9       1.0000 0.59240  0.33920  0.00500  Biso   1.000  H
  H10      1.0000 0.66310  0.32880  0.97300  Biso   1.000  H
  N4       1.0000 0.32290  0.24480  0.96100  Biso   1.000  N
  H11      1.0000 0.29940  0.25870  0.98290  Biso   1.000  H
  H12      1.0000 0.28950  0.22700  0.94360  Biso   1.000  H
  O5       1.0000 0.35580  0.80980  0.52182  Biso   1.000  O
  O6       1.0000 0.49090  0.83750  0.53377  Biso   1.000  O
  O7       1.0000 0.64660  0.68860  0.36766  Biso   1.000  O
  O8       1.0000 0.51150  0.66420  0.35314  Biso   1.000  O
  N5       1.0000 0.33650  0.71490  0.47650  Biso   1.000  N
  H13      1.0000 0.30560  0.69010  0.46350  Biso   1.000  H
  H14      1.0000 0.31550  0.72940  0.49880  Biso   1.000  H
  C13      1.0000 0.43860  0.80910  0.51300  Biso   1.000  C
  C14      1.0000 0.47080  0.77720  0.47820  Biso   1.000  C
  C15      1.0000 0.53270  0.72200  0.41080  Biso   1.000  C
  C16      1.0000 0.56540  0.69040  0.37480  Biso   1.000  C
  C17      1.0000 0.41910  0.73140  0.46160  Biso   1.000  C
  C18      1.0000 0.44980  0.70700  0.42580  Biso   1.000  C
  H15      1.0000 0.41470  0.68070  0.41210  Biso   1.000  H
  C19      1.0000 0.58810  0.76210  0.42930  Biso   1.000  C
  H16      1.0000 0.64480  0.77080  0.41860  Biso   1.000  H
  C20      1.0000 0.55530  0.78820  0.46390  Biso   1.000  C
  C21      1.0000 0.41190  0.75070  0.45370  Biso   1.000  C
  C22      1.0000 0.44400  0.72450  0.41910  Biso   1.000  C
  H17      1.0000 0.40330  0.70810  0.40090  Biso   1.000  H
  C23      1.0000 0.59210  0.74790  0.43550  Biso   1.000  C
  H18      1.0000 0.65370  0.74710  0.42960  Biso   1.000  H
  C24      1.0000 0.56000  0.77540  0.46960  Biso   1.000  C
  N6       1.0000 0.62700  0.80100  0.49240  Biso   1.000  N
  H19      1.0000 0.61280  0.82050  0.51390  Biso   1.000  H
  H20      1.0000 0.68290  0.79850  0.48510  Biso   1.000  H
  N7       1.0000 0.61000  0.82300  0.48280  Biso   1.000  N
  H21      1.0000 0.59240  0.83920  0.50500  Biso   1.000  H
  H22      1.0000 0.66310  0.82880  0.47300  Biso   1.000  H
  N8       1.0000 0.32290  0.74480  0.46100  Biso   1.000  N
  H23      1.0000 0.29940  0.75870  0.48290  Biso   1.000  H
  H24      1.0000 0.28950  0.72700  0.44360  Biso   1.000  H
  O9       1.0000 0.85580  0.30980  0.52182  Biso   1.000  O
  O10      1.0000 0.99090  0.33750  0.53377  Biso   1.000  O
  O11      1.0000 0.14660  0.18860  0.36766  Biso   1.000  O
  O12      1.0000 0.01150  0.16420  0.35314  Biso   1.000  O
  N9       1.0000 0.83650  0.21490  0.47650  Biso   1.000  N
  H25      1.0000 0.80560  0.19010  0.46350  Biso   1.000  H
  H26      1.0000 0.81550  0.22940  0.49880  Biso   1.000  H
  C25      1.0000 0.93860  0.30910  0.51300  Biso   1.000  C
  C26      1.0000 0.97080  0.27720  0.47820  Biso   1.000  C
  C27      1.0000 0.03270  0.22200  0.41080  Biso   1.000  C
  C28      1.0000 0.06540  0.19040  0.37480  Biso   1.000  C
  C29      1.0000 0.91910  0.23140  0.46160  Biso   1.000  C
  C30      1.0000 0.94980  0.20700  0.42580  Biso   1.000  C
  H27      1.0000 0.91470  0.18070  0.41210  Biso   1.000  H
  C31      1.0000 0.08810  0.26210  0.42930  Biso   1.000  C
  H28      1.0000 0.14480  0.27080  0.41860  Biso   1.000  H
  C32      1.0000 0.05530  0.28820  0.46390  Biso   1.000  C
  C33      1.0000 0.91190  0.25070  0.45370  Biso   1.000  C
  C34      1.0000 0.94400  0.22450  0.41910  Biso   1.000  C
  H29      1.0000 0.90330  0.20810  0.40090  Biso   1.000  H
  C35      1.0000 0.09210  0.24790  0.43550  Biso   1.000  C
  H30      1.0000 0.15370  0.24710  0.42960  Biso   1.000  H
  C36      1.0000 0.06000  0.27540  0.46960  Biso   1.000  C
  N10      1.0000 0.12700  0.30100  0.49240  Biso   1.000  N
  H31      1.0000 0.11280  0.32050  0.51390  Biso   1.000  H
  H32      1.0000 0.18290  0.29850  0.48510  Biso   1.000  H
  N11      1.0000 0.11000  0.32300  0.48280  Biso   1.000  N
  H33      1.0000 0.09240  0.33920  0.50500  Biso   1.000  H
  H34      1.0000 0.16310  0.32880  0.47300  Biso   1.000  H
  N12      1.0000 0.82290  0.24480  0.46100  Biso   1.000  N
  H35      1.0000 0.79940  0.25870  0.48290  Biso   1.000  H
  H36      1.0000 0.78950  0.22700  0.44360  Biso   1.000  H
  O13      1.0000 0.85580  0.80980  0.02182  Biso   1.000  O
  O14      1.0000 0.99090  0.83750  0.03377  Biso   1.000  O
  O15      1.0000 0.14660  0.68860  0.86766  Biso   1.000  O
  O16      1.0000 0.01150  0.66420  0.85314  Biso   1.000  O
  N13      1.0000 0.83650  0.71490  0.97650  Biso   1.000  N
  H37      1.0000 0.80560  0.69010  0.96350  Biso   1.000  H
  H38      1.0000 0.81550  0.72940  0.99880  Biso   1.000  H
  C37      1.0000 0.93860  0.80910  0.01300  Biso   1.000  C
  C38      1.0000 0.97080  0.77720  0.97820  Biso   1.000  C
  C39      1.0000 0.03270  0.72200  0.91080  Biso   1.000  C
  C40      1.0000 0.06540  0.69040  0.87480  Biso   1.000  C
  C41      1.0000 0.91910  0.73140  0.96160  Biso   1.000  C
  C42      1.0000 0.94980  0.70700  0.92580  Biso   1.000  C
  H39      1.0000 0.91470  0.68070  0.91210  Biso   1.000  H
  C43      1.0000 0.08810  0.76210  0.92930  Biso   1.000  C
  H40      1.0000 0.14480  0.77080  0.91860  Biso   1.000  H
  C44      1.0000 0.05530  0.78820  0.96390  Biso   1.000  C
  C45      1.0000 0.91190  0.75070  0.95370  Biso   1.000  C
  C46      1.0000 0.94400  0.72450  0.91910  Biso   1.000  C
  H41      1.0000 0.90330  0.70810  0.90090  Biso   1.000  H
  C47      1.0000 0.09210  0.74790  0.93550  Biso   1.000  C
  H42      1.0000 0.15370  0.74710  0.92960  Biso   1.000  H
  C48      1.0000 0.06000  0.77540  0.96960  Biso   1.000  C
  N14      1.0000 0.12700  0.80100  0.99240  Biso   1.000  N
  H43      1.0000 0.11280  0.82050  0.01390  Biso   1.000  H
  H44      1.0000 0.18290  0.79850  0.98510  Biso   1.000  H
  N15      1.0000 0.11000  0.82300  0.98280  Biso   1.000  N
  H45      1.0000 0.09240  0.83920  0.00500  Biso   1.000  H
  H46      1.0000 0.16310  0.82880  0.97300  Biso   1.000  H
  N16      1.0000 0.82290  0.74480  0.96100  Biso   1.000  N
  H47      1.0000 0.79940  0.75870  0.98290  Biso   1.000  H
  H48      1.0000 0.78950  0.72700  0.94360  Biso   1.000  H
  O17      1.0000 0.39420  0.44020  0.02182  Biso   1.000  O
  O18      1.0000 0.25910  0.41250  0.03377  Biso   1.000  O
  O19      1.0000 0.10340  0.56140  0.86766  Biso   1.000  O
  O20      1.0000 0.23850  0.58580  0.85314  Biso   1.000  O
  N17      1.0000 0.41350  0.53510  0.97650  Biso   1.000  N
  H49      1.0000 0.44440  0.55990  0.96350  Biso   1.000  H
  H50      1.0000 0.43450  0.52060  0.99880  Biso   1.000  H
  C49      1.0000 0.31140  0.44090  0.01300  Biso   1.000  C
  C50      1.0000 0.27920  0.47280  0.97820  Biso   1.000  C
  C51      1.0000 0.21730  0.52800  0.91080  Biso   1.000  C
  C52      1.0000 0.18460  0.55960  0.87480  Biso   1.000  C
  C53      1.0000 0.33090  0.51860  0.96160  Biso   1.000  C
  C54      1.0000 0.30020  0.54300  0.92580  Biso   1.000  C
  H51      1.0000 0.33530  0.56930  0.91210  Biso   1.000  H
  C55      1.0000 0.16190  0.48790  0.92930  Biso   1.000  C
  H52      1.0000 0.10520  0.47920  0.91860  Biso   1.000  H
  C56      1.0000 0.19470  0.46180  0.96390  Biso   1.000  C
  C57      1.0000 0.33810  0.49930  0.95370  Biso   1.000  C
  C58      1.0000 0.30600  0.52550  0.91910  Biso   1.000  C
  H53      1.0000 0.34670  0.54190  0.90090  Biso   1.000  H
  C59      1.0000 0.15790  0.50210  0.93550  Biso   1.000  C
  H54      1.0000 0.09630  0.50290  0.92960  Biso   1.000  H
  C60      1.0000 0.19000  0.47460  0.96960  Biso   1.000  C
  N18      1.0000 0.12300  0.44900  0.99240  Biso   1.000  N
  H55      1.0000 0.13720  0.42950  0.01390  Biso   1.000  H
  H56      1.0000 0.06710  0.45150  0.98510  Biso   1.000  H
  N19      1.0000 0.14000  0.42700  0.98280  Biso   1.000  N
  H57      1.0000 0.15760  0.41080  0.00500  Biso   1.000  H
  H58      1.0000 0.08690  0.42120  0.97300  Biso   1.000  H
  N20      1.0000 0.42710  0.50520  0.96100  Biso   1.000  N
  H59      1.0000 0.45060  0.49130  0.98290  Biso   1.000  H
  H60      1.0000 0.46050  0.52300  0.94360  Biso   1.000  H
  O21      1.0000 0.39420  0.94020  0.52182  Biso   1.000  O
  O22      1.0000 0.25910  0.91250  0.53377  Biso   1.000  O
  O23      1.0000 0.10340  0.06140  0.36766  Biso   1.000  O
  O24      1.0000 0.23850  0.08580  0.35314  Biso   1.000  O
  N21      1.0000 0.41350  0.03510  0.47650  Biso   1.000  N
  H61      1.0000 0.44440  0.05990  0.46350  Biso   1.000  H
  H62      1.0000 0.43450  0.02060  0.49880  Biso   1.000  H
  C61      1.0000 0.31140  0.94090  0.51300  Biso   1.000  C
  C62      1.0000 0.27920  0.97280  0.47820  Biso   1.000  C
  C63      1.0000 0.21730  0.02800  0.41080  Biso   1.000  C
  C64      1.0000 0.18460  0.05960  0.37480  Biso   1.000  C
  C65      1.0000 0.33090  0.01860  0.46160  Biso   1.000  C
  C66      1.0000 0.30020  0.04300  0.42580  Biso   1.000  C
  H63      1.0000 0.33530  0.06930  0.41210  Biso   1.000  H
  C67      1.0000 0.16190  0.98790  0.42930  Biso   1.000  C
  H64      1.0000 0.10520  0.97920  0.41860  Biso   1.000  H
  C68      1.0000 0.19470  0.96180  0.46390  Biso   1.000  C
  C69      1.0000 0.33810  0.99930  0.45370  Biso   1.000  C
  C70      1.0000 0.30600  0.02550  0.41910  Biso   1.000  C
  H65      1.0000 0.34670  0.04190  0.40090  Biso   1.000  H
  C71      1.0000 0.15790  0.00210  0.43550  Biso   1.000  C
  H66      1.0000 0.09630  0.00290  0.42960  Biso   1.000  H
  C72      1.0000 0.19000  0.97460  0.46960  Biso   1.000  C
  N22      1.0000 0.12300  0.94900  0.49240  Biso   1.000  N
  H67      1.0000 0.13720  0.92950  0.51390  Biso   1.000  H
  H68      1.0000 0.06710  0.95150  0.48510  Biso   1.000  H
  N23      1.0000 0.14000  0.92700  0.48280  Biso   1.000  N
  H69      1.0000 0.15760  0.91080  0.50500  Biso   1.000  H
  H70      1.0000 0.08690  0.92120  0.47300  Biso   1.000  H
  N24      1.0000 0.42710  0.00520  0.46100  Biso   1.000  N
  H71      1.0000 0.45060  0.99130  0.48290  Biso   1.000  H
  H72      1.0000 0.46050  0.02300  0.44360  Biso   1.000  H
  O25      1.0000 0.89420  0.44020  0.52182  Biso   1.000  O
  O26      1.0000 0.75910  0.41250  0.53377  Biso   1.000  O
  O27      1.0000 0.60340  0.56140  0.36766  Biso   1.000  O
  O28      1.0000 0.73850  0.58580  0.35314  Biso   1.000  O
  N25      1.0000 0.91350  0.53510  0.47650  Biso   1.000  N
  H73      1.0000 0.94440  0.55990  0.46350  Biso   1.000  H
  H74      1.0000 0.93450  0.52060  0.49880  Biso   1.000  H
  C73      1.0000 0.81140  0.44090  0.51300  Biso   1.000  C
  C74      1.0000 0.77920  0.47280  0.47820  Biso   1.000  C
  C75      1.0000 0.71730  0.52800  0.41080  Biso   1.000  C
  C76      1.0000 0.68460  0.55960  0.37480  Biso   1.000  C
  C77      1.0000 0.83090  0.51860  0.46160  Biso   1.000  C
  C78      1.0000 0.80020  0.54300  0.42580  Biso   1.000  C
  H75      1.0000 0.83530  0.56930  0.41210  Biso   1.000  H
  C79      1.0000 0.66190  0.48790  0.42930  Biso   1.000  C
  H76      1.0000 0.60520  0.47920  0.41860  Biso   1.000  H
  C80      1.0000 0.69470  0.46180  0.46390  Biso   1.000  C
  C81      1.0000 0.83810  0.49930  0.45370  Biso   1.000  C
  C82      1.0000 0.80600  0.52550  0.41910  Biso   1.000  C
  H77      1.0000 0.84670  0.54190  0.40090  Biso   1.000  H
  C83      1.0000 0.65790  0.50210  0.43550  Biso   1.000  C
  H78      1.0000 0.59630  0.50290  0.42960  Biso   1.000  H
  C84      1.0000 0.69000  0.47460  0.46960  Biso   1.000  C
  N26      1.0000 0.62300  0.44900  0.49240  Biso   1.000  N
  H79      1.0000 0.63720  0.42950  0.51390  Biso   1.000  H
  H80      1.0000 0.56710  0.45150  0.48510  Biso   1.000  H
  N27      1.0000 0.64000  0.42700  0.48280  Biso   1.000  N
  H81      1.0000 0.65760  0.41080  0.50500  Biso   1.000  H
  H82      1.0000 0.58690  0.42120  0.47300  Biso   1.000  H
  N28      1.0000 0.92710  0.50520  0.46100  Biso   1.000  N
  H83      1.0000 0.95060  0.49130  0.48290  Biso   1.000  H
  H84      1.0000 0.96050  0.52300  0.44360  Biso   1.000  H
  O29      1.0000 0.89420  0.94020  0.02182  Biso   1.000  O
  O30      1.0000 0.75910  0.91250  0.03377  Biso   1.000  O
  O31      1.0000 0.60340  0.06140  0.86766  Biso   1.000  O
  O32      1.0000 0.73850  0.08580  0.85314  Biso   1.000  O
  N29      1.0000 0.91350  0.03510  0.97650  Biso   1.000  N
  H85      1.0000 0.94440  0.05990  0.96350  Biso   1.000  H
  H86      1.0000 0.93450  0.02060  0.99880  Biso   1.000  H
  C85      1.0000 0.81140  0.94090  0.01300  Biso   1.000  C
  C86      1.0000 0.77920  0.97280  0.97820  Biso   1.000  C
  C87      1.0000 0.71730  0.02800  0.91080  Biso   1.000  C
  C88      1.0000 0.68460  0.05960  0.87480  Biso   1.000  C
  C89      1.0000 0.83090  0.01860  0.96160  Biso   1.000  C
  C90      1.0000 0.80020  0.04300  0.92580  Biso   1.000  C
  H87      1.0000 0.83530  0.06930  0.91210  Biso   1.000  H
  C91      1.0000 0.66190  0.98790  0.92930  Biso   1.000  C
  H88      1.0000 0.60520  0.97920  0.91860  Biso   1.000  H
  C92      1.0000 0.69470  0.96180  0.96390  Biso   1.000  C
  C93      1.0000 0.83810  0.99930  0.95370  Biso   1.000  C
  C94      1.0000 0.80600  0.02550  0.91910  Biso   1.000  C
  H89      1.0000 0.84670  0.04190  0.90090  Biso   1.000  H
  C95      1.0000 0.65790  0.00210  0.93550  Biso   1.000  C
  H90      1.0000 0.59630  0.00290  0.92960  Biso   1.000  H
  C96      1.0000 0.69000  0.97460  0.96960  Biso   1.000  C
  N30      1.0000 0.62300  0.94900  0.99240  Biso   1.000  N
  H91      1.0000 0.63720  0.92950  0.01390  Biso   1.000  H
  H92      1.0000 0.56710  0.95150  0.98510  Biso   1.000  H
  N31      1.0000 0.64000  0.92700  0.98280  Biso   1.000  N
  H93      1.0000 0.65760  0.91080  0.00500  Biso   1.000  H
  H94      1.0000 0.58690  0.92120  0.97300  Biso   1.000  H
  N32      1.0000 0.92710  0.00520  0.96100  Biso   1.000  N
  H95      1.0000 0.95060  0.99130  0.98290  Biso   1.000  H
  H96      1.0000 0.96050  0.02300  0.94360  Biso   1.000  H
  O33      1.0000 0.60580  0.69020  0.27182  Biso   1.000  O
  O34      1.0000 0.74090  0.66250  0.28377  Biso   1.000  O
  O35      1.0000 0.89660  0.81140  0.11766  Biso   1.000  O
  O36      1.0000 0.76150  0.83580  0.10314  Biso   1.000  O
  N33      1.0000 0.58650  0.78510  0.22650  Biso   1.000  N
  H97      1.0000 0.55560  0.80990  0.21350  Biso   1.000  H
  H98      1.0000 0.56550  0.77060  0.24880  Biso   1.000  H
  C97      1.0000 0.68860  0.69090  0.26300  Biso   1.000  C
  C98      1.0000 0.72080  0.72280  0.22820  Biso   1.000  C
  C99      1.0000 0.78270  0.77800  0.16080  Biso   1.000  C
  C100     1.0000 0.81540  0.80960  0.12480  Biso   1.000  C
  C101     1.0000 0.66910  0.76860  0.21160  Biso   1.000  C
  C102     1.0000 0.69980  0.79300  0.17580  Biso   1.000  C
  H99      1.0000 0.66470  0.81930  0.16210  Biso   1.000  H
  C103     1.0000 0.83810  0.73790  0.17930  Biso   1.000  C
  H100     1.0000 0.89480  0.72920  0.16860  Biso   1.000  H
  C104     1.0000 0.80530  0.71180  0.21390  Biso   1.000  C
  C105     1.0000 0.66190  0.74930  0.20370  Biso   1.000  C
  C106     1.0000 0.69400  0.77550  0.16910  Biso   1.000  C
  H101     1.0000 0.65330  0.79190  0.15090  Biso   1.000  H
  C107     1.0000 0.84210  0.75210  0.18550  Biso   1.000  C
  H102     1.0000 0.90370  0.75290  0.17960  Biso   1.000  H
  C108     1.0000 0.81000  0.72460  0.21960  Biso   1.000  C
  N34      1.0000 0.87700  0.69900  0.24240  Biso   1.000  N
  H103     1.0000 0.86280  0.67950  0.26390  Biso   1.000  H
  H104     1.0000 0.93290  0.70150  0.23510  Biso   1.000  H
  N35      1.0000 0.86000  0.67700  0.23280  Biso   1.000  N
  H105     1.0000 0.84240  0.66080  0.25500  Biso   1.000  H
  H106     1.0000 0.91310  0.67120  0.22300  Biso   1.000  H
  N36      1.0000 0.57290  0.75520  0.21100  Biso   1.000  N
  H107     1.0000 0.54940  0.74130  0.23290  Biso   1.000  H
  H108     1.0000 0.53950  0.77300  0.19360  Biso   1.000  H
  O37      1.0000 0.60580  0.19020  0.77182  Biso   1.000  O
  O38      1.0000 0.74090  0.16250  0.78377  Biso   1.000  O
  O39      1.0000 0.89660  0.31140  0.61766  Biso   1.000  O
  O40      1.0000 0.76150  0.33580  0.60314  Biso   1.000  O
  N37      1.0000 0.58650  0.28510  0.72650  Biso   1.000  N
  H109     1.0000 0.55560  0.30990  0.71350  Biso   1.000  H
  H110     1.0000 0.56550  0.27060  0.74880  Biso   1.000  H
  C109     1.0000 0.68860  0.19090  0.76300  Biso   1.000  C
  C110     1.0000 0.72080  0.22280  0.72820  Biso   1.000  C
  C111     1.0000 0.78270  0.27800  0.66080  Biso   1.000  C
  C112     1.0000 0.81540  0.30960  0.62480  Biso   1.000  C
  C113     1.0000 0.66910  0.26860  0.71160  Biso   1.000  C
  C114     1.0000 0.69980  0.29300  0.67580  Biso   1.000  C
  H111     1.0000 0.66470  0.31930  0.66210  Biso   1.000  H
  C115     1.0000 0.83810  0.23790  0.67930  Biso   1.000  C
  H112     1.0000 0.89480  0.22920  0.66860  Biso   1.000  H
  C116     1.0000 0.80530  0.21180  0.71390  Biso   1.000  C
  C117     1.0000 0.66190  0.24930  0.70370  Biso   1.000  C
  C118     1.0000 0.69400  0.27550  0.66910  Biso   1.000  C
  H113     1.0000 0.65330  0.29190  0.65090  Biso   1.000  H
  C119     1.0000 0.84210  0.25210  0.68550  Biso   1.000  C
  H114     1.0000 0.90370  0.25290  0.67960  Biso   1.000  H
  C120     1.0000 0.81000  0.22460  0.71960  Biso   1.000  C
  N38      1.0000 0.87700  0.19900  0.74240  Biso   1.000  N
  H115     1.0000 0.86280  0.17950  0.76390  Biso   1.000  H
  H116     1.0000 0.93290  0.20150  0.73510  Biso   1.000  H
  N39      1.0000 0.86000  0.17700  0.73280  Biso   1.000  N
  H117     1.0000 0.84240  0.16080  0.75500  Biso   1.000  H
  H118     1.0000 0.91310  0.17120  0.72300  Biso   1.000  H
  N40      1.0000 0.57290  0.25520  0.71100  Biso   1.000  N
  H119     1.0000 0.54940  0.24130  0.73290  Biso   1.000  H
  H120     1.0000 0.53950  0.27300  0.69360  Biso   1.000  H
  O41      1.0000 0.10580  0.69020  0.77182  Biso   1.000  O
  O42      1.0000 0.24090  0.66250  0.78377  Biso   1.000  O
  O43      1.0000 0.39660  0.81140  0.61766  Biso   1.000  O
  O44      1.0000 0.26150  0.83580  0.60314  Biso   1.000  O
  N41      1.0000 0.08650  0.78510  0.72650  Biso   1.000  N
  H121     1.0000 0.05560  0.80990  0.71350  Biso   1.000  H
  H122     1.0000 0.06550  0.77060  0.74880  Biso   1.000  H
  C121     1.0000 0.18860  0.69090  0.76300  Biso   1.000  C
  C122     1.0000 0.22080  0.72280  0.72820  Biso   1.000  C
  C123     1.0000 0.28270  0.77800  0.66080  Biso   1.000  C
  C124     1.0000 0.31540  0.80960  0.62480  Biso   1.000  C
  C125     1.0000 0.16910  0.76860  0.71160  Biso   1.000  C
  C126     1.0000 0.19980  0.79300  0.67580  Biso   1.000  C
  H123     1.0000 0.16470  0.81930  0.66210  Biso   1.000  H
  C127     1.0000 0.33810  0.73790  0.67930  Biso   1.000  C
  H124     1.0000 0.39480  0.72920  0.66860  Biso   1.000  H
  C128     1.0000 0.30530  0.71180  0.71390  Biso   1.000  C
  C129     1.0000 0.16190  0.74930  0.70370  Biso   1.000  C
  C130     1.0000 0.19400  0.77550  0.66910  Biso   1.000  C
  H125     1.0000 0.15330  0.79190  0.65090  Biso   1.000  H
  C131     1.0000 0.34210  0.75210  0.68550  Biso   1.000  C
  H126     1.0000 0.40370  0.75290  0.67960  Biso   1.000  H
  C132     1.0000 0.31000  0.72460  0.71960  Biso   1.000  C
  N42      1.0000 0.37700  0.69900  0.74240  Biso   1.000  N
  H127     1.0000 0.36280  0.67950  0.76390  Biso   1.000  H
  H128     1.0000 0.43290  0.70150  0.73510  Biso   1.000  H
  N43      1.0000 0.36000  0.67700  0.73280  Biso   1.000  N
  H129     1.0000 0.34240  0.66080  0.75500  Biso   1.000  H
  H130     1.0000 0.41310  0.67120  0.72300  Biso   1.000  H
  N44      1.0000 0.07290  0.75520  0.71100  Biso   1.000  N
  H131     1.0000 0.04940  0.74130  0.73290  Biso   1.000  H
  H132     1.0000 0.03950  0.77300  0.69360  Biso   1.000  H
  O45      1.0000 0.10580  0.19020  0.27182  Biso   1.000  O
  O46      1.0000 0.24090  0.16250  0.28377  Biso   1.000  O
  O47      1.0000 0.39660  0.31140  0.11766  Biso   1.000  O
  O48      1.0000 0.26150  0.33580  0.10314  Biso   1.000  O
  N45      1.0000 0.08650  0.28510  0.22650  Biso   1.000  N
  H133     1.0000 0.05560  0.30990  0.21350  Biso   1.000  H
  H134     1.0000 0.06550  0.27060  0.24880  Biso   1.000  H
  C133     1.0000 0.18860  0.19090  0.26300  Biso   1.000  C
  C134     1.0000 0.22080  0.22280  0.22820  Biso   1.000  C
  C135     1.0000 0.28270  0.27800  0.16080  Biso   1.000  C
  C136     1.0000 0.31540  0.30960  0.12480  Biso   1.000  C
  C137     1.0000 0.16910  0.26860  0.21160  Biso   1.000  C
  C138     1.0000 0.19980  0.29300  0.17580  Biso   1.000  C
  H135     1.0000 0.16470  0.31930  0.16210  Biso   1.000  H
  C139     1.0000 0.33810  0.23790  0.17930  Biso   1.000  C
  H136     1.0000 0.39480  0.22920  0.16860  Biso   1.000  H
  C140     1.0000 0.30530  0.21180  0.21390  Biso   1.000  C
  C141     1.0000 0.16190  0.24930  0.20370  Biso   1.000  C
  C142     1.0000 0.19400  0.27550  0.16910  Biso   1.000  C
  H137     1.0000 0.15330  0.29190  0.15090  Biso   1.000  H
  C143     1.0000 0.34210  0.25210  0.18550  Biso   1.000  C
  H138     1.0000 0.40370  0.25290  0.17960  Biso   1.000  H
  C144     1.0000 0.31000  0.22460  0.21960  Biso   1.000  C
  N46      1.0000 0.37700  0.19900  0.24240  Biso   1.000  N
  H139     1.0000 0.36280  0.17950  0.26390  Biso   1.000  H
  H140     1.0000 0.43290  0.20150  0.23510  Biso   1.000  H
  N47      1.0000 0.36000  0.17700  0.23280  Biso   1.000  N
  H141     1.0000 0.34240  0.16080  0.25500  Biso   1.000  H
  H142     1.0000 0.41310  0.17120  0.22300  Biso   1.000  H
  N48      1.0000 0.07290  0.25520  0.21100  Biso   1.000  N
  H143     1.0000 0.04940  0.24130  0.23290  Biso   1.000  H
  H144     1.0000 0.03950  0.27300  0.19360  Biso   1.000  H
  O49      1.0000 0.64420  0.55980  0.27182  Biso   1.000  O
  O50      1.0000 0.50910  0.58750  0.28377  Biso   1.000  O
  O51      1.0000 0.35340  0.43860  0.11766  Biso   1.000  O
  O52      1.0000 0.48850  0.41420  0.10314  Biso   1.000  O
  N49      1.0000 0.66350  0.46490  0.22650  Biso   1.000  N
  H145     1.0000 0.69440  0.44010  0.21350  Biso   1.000  H
  H146     1.0000 0.68450  0.47940  0.24880  Biso   1.000  H
  C145     1.0000 0.56140  0.55910  0.26300  Biso   1.000  C
  C146     1.0000 0.52920  0.52720  0.22820  Biso   1.000  C
  C147     1.0000 0.46730  0.47200  0.16080  Biso   1.000  C
  C148     1.0000 0.43460  0.44040  0.12480  Biso   1.000  C
  C149     1.0000 0.58090  0.48140  0.21160  Biso   1.000  C
  C150     1.0000 0.55020  0.45700  0.17580  Biso   1.000  C
  H147     1.0000 0.58530  0.43070  0.16210  Biso   1.000  H
  C151     1.0000 0.41190  0.51210  0.17930  Biso   1.000  C
  H148     1.0000 0.35520  0.52080  0.16860  Biso   1.000  H
  C152     1.0000 0.44470  0.53820  0.21390  Biso   1.000  C
  C153     1.0000 0.58810  0.50070  0.20370  Biso   1.000  C
  C154     1.0000 0.55600  0.47450  0.16910  Biso   1.000  C
  H149     1.0000 0.59670  0.45810  0.15090  Biso   1.000  H
  C155     1.0000 0.40790  0.49790  0.18550  Biso   1.000  C
  H150     1.0000 0.34630  0.49710  0.17960  Biso   1.000  H
  C156     1.0000 0.44000  0.52540  0.21960  Biso   1.000  C
  N50      1.0000 0.37300  0.55100  0.24240  Biso   1.000  N
  H151     1.0000 0.38720  0.57050  0.26390  Biso   1.000  H
  H152     1.0000 0.31710  0.54850  0.23510  Biso   1.000  H
  N51      1.0000 0.39000  0.57300  0.23280  Biso   1.000  N
  H153     1.0000 0.40760  0.58920  0.25500  Biso   1.000  H
  H154     1.0000 0.33690  0.57880  0.22300  Biso   1.000  H
  N52      1.0000 0.67710  0.49480  0.21100  Biso   1.000  N
  H155     1.0000 0.70060  0.50870  0.23290  Biso   1.000  H
  H156     1.0000 0.71050  0.47700  0.19360  Biso   1.000  H
  O53      1.0000 0.64420  0.05980  0.77182  Biso   1.000  O
  O54      1.0000 0.50910  0.08750  0.78377  Biso   1.000  O
  O55      1.0000 0.35340  0.93860  0.61766  Biso   1.000  O
  O56      1.0000 0.48850  0.91420  0.60314  Biso   1.000  O
  N53      1.0000 0.66350  0.96490  0.72650  Biso   1.000  N
  H157     1.0000 0.69440  0.94010  0.71350  Biso   1.000  H
  H158     1.0000 0.68450  0.97940  0.74880  Biso   1.000  H
  C157     1.0000 0.56140  0.05910  0.76300  Biso   1.000  C
  C158     1.0000 0.52920  0.02720  0.72820  Biso   1.000  C
  C159     1.0000 0.46730  0.97200  0.66080  Biso   1.000  C
  C160     1.0000 0.43460  0.94040  0.62480  Biso   1.000  C
  C161     1.0000 0.58090  0.98140  0.71160  Biso   1.000  C
  C162     1.0000 0.55020  0.95700  0.67580  Biso   1.000  C
  H159     1.0000 0.58530  0.93070  0.66210  Biso   1.000  H
  C163     1.0000 0.41190  0.01210  0.67930  Biso   1.000  C
  H160     1.0000 0.35520  0.02080  0.66860  Biso   1.000  H
  C164     1.0000 0.44470  0.03820  0.71390  Biso   1.000  C
  C165     1.0000 0.58810  0.00070  0.70370  Biso   1.000  C
  C166     1.0000 0.55600  0.97450  0.66910  Biso   1.000  C
  H161     1.0000 0.59670  0.95810  0.65090  Biso   1.000  H
  C167     1.0000 0.40790  0.99790  0.68550  Biso   1.000  C
  H162     1.0000 0.34630  0.99710  0.67960  Biso   1.000  H
  C168     1.0000 0.44000  0.02540  0.71960  Biso   1.000  C
  N54      1.0000 0.37300  0.05100  0.74240  Biso   1.000  N
  H163     1.0000 0.38720  0.07050  0.76390  Biso   1.000  H
  H164     1.0000 0.31710  0.04850  0.73510  Biso   1.000  H
  N55      1.0000 0.39000  0.07300  0.73280  Biso   1.000  N
  H165     1.0000 0.40760  0.08920  0.75500  Biso   1.000  H
  H166     1.0000 0.33690  0.07880  0.72300  Biso   1.000  H
  N56      1.0000 0.67710  0.99480  0.71100  Biso   1.000  N
  H167     1.0000 0.70060  0.00870  0.73290  Biso   1.000  H
  H168     1.0000 0.71050  0.97700  0.69360  Biso   1.000  H
  O57      1.0000 0.14420  0.55980  0.77182  Biso   1.000  O
  O58      1.0000 0.00910  0.58750  0.78377  Biso   1.000  O
  O59      1.0000 0.85340  0.43860  0.61766  Biso   1.000  O
  O60      1.0000 0.98850  0.41420  0.60314  Biso   1.000  O
  N57      1.0000 0.16350  0.46490  0.72650  Biso   1.000  N
  H169     1.0000 0.19440  0.44010  0.71350  Biso   1.000  H
  H170     1.0000 0.18450  0.47940  0.74880  Biso   1.000  H
  C169     1.0000 0.06140  0.55910  0.76300  Biso   1.000  C
  C170     1.0000 0.02920  0.52720  0.72820  Biso   1.000  C
  C171     1.0000 0.96730  0.47200  0.66080  Biso   1.000  C
  C172     1.0000 0.93460  0.44040  0.62480  Biso   1.000  C
  C173     1.0000 0.08090  0.48140  0.71160  Biso   1.000  C
  C174     1.0000 0.05020  0.45700  0.67580  Biso   1.000  C
  H171     1.0000 0.08530  0.43070  0.66210  Biso   1.000  H
  C175     1.0000 0.91190  0.51210  0.67930  Biso   1.000  C
  H172     1.0000 0.85520  0.52080  0.66860  Biso   1.000  H
  C176     1.0000 0.94470  0.53820  0.71390  Biso   1.000  C
  C177     1.0000 0.08810  0.50070  0.70370  Biso   1.000  C
  C178     1.0000 0.05600  0.47450  0.66910  Biso   1.000  C
  H173     1.0000 0.09670  0.45810  0.65090  Biso   1.000  H
  C179     1.0000 0.90790  0.49790  0.68550  Biso   1.000  C
  H174     1.0000 0.84630  0.49710  0.67960  Biso   1.000  H
  C180     1.0000 0.94000  0.52540  0.71960  Biso   1.000  C
  N58      1.0000 0.87300  0.55100  0.74240  Biso   1.000  N
  H175     1.0000 0.88720  0.57050  0.76390  Biso   1.000  H
  H176     1.0000 0.81710  0.54850  0.73510  Biso   1.000  H
  N59      1.0000 0.89000  0.57300  0.73280  Biso   1.000  N
  H177     1.0000 0.90760  0.58920  0.75500  Biso   1.000  H
  H178     1.0000 0.83690  0.57880  0.72300  Biso   1.000  H
  N60      1.0000 0.17710  0.49480  0.71100  Biso   1.000  N
  H179     1.0000 0.20060  0.50870  0.73290  Biso   1.000  H
  H180     1.0000 0.21050  0.47700  0.69360  Biso   1.000  H
  O61      1.0000 0.14420  0.05980  0.27182  Biso   1.000  O
  O62      1.0000 0.00910  0.08750  0.28377  Biso   1.000  O
  O63      1.0000 0.85340  0.93860  0.11766  Biso   1.000  O
  O64      1.0000 0.98850  0.91420  0.10314  Biso   1.000  O
  N61      1.0000 0.16350  0.96490  0.22650  Biso   1.000  N
  H181     1.0000 0.19440  0.94010  0.21350  Biso   1.000  H
  H182     1.0000 0.18450  0.97940  0.24880  Biso   1.000  H
  C181     1.0000 0.06140  0.05910  0.26300  Biso   1.000  C
  C182     1.0000 0.02920  0.02720  0.22820  Biso   1.000  C
  C183     1.0000 0.96730  0.97200  0.16080  Biso   1.000  C
  C184     1.0000 0.93460  0.94040  0.12480  Biso   1.000  C
  C185     1.0000 0.08090  0.98140  0.21160  Biso   1.000  C
  C186     1.0000 0.05020  0.95700  0.17580  Biso   1.000  C
  H183     1.0000 0.08530  0.93070  0.16210  Biso   1.000  H
  C187     1.0000 0.91190  0.01210  0.17930  Biso   1.000  C
  H184     1.0000 0.85520  0.02080  0.16860  Biso   1.000  H
  C188     1.0000 0.94470  0.03820  0.21390  Biso   1.000  C
  C189     1.0000 0.08810  0.00070  0.20370  Biso   1.000  C
  C190     1.0000 0.05600  0.97450  0.16910  Biso   1.000  C
  H185     1.0000 0.09670  0.95810  0.15090  Biso   1.000  H
  C191     1.0000 0.90790  0.99790  0.18550  Biso   1.000  C
  H186     1.0000 0.84630  0.99710  0.17960  Biso   1.000  H
  C192     1.0000 0.94000  0.02540  0.21960  Biso   1.000  C
  N62      1.0000 0.87300  0.05100  0.24240  Biso   1.000  N
  H187     1.0000 0.88720  0.07050  0.26390  Biso   1.000  H
  H188     1.0000 0.81710  0.04850  0.23510  Biso   1.000  H
  N63      1.0000 0.89000  0.07300  0.23280  Biso   1.000  N
  H189     1.0000 0.90760  0.08920  0.25500  Biso   1.000  H
  H190     1.0000 0.83690  0.07880  0.22300  Biso   1.000  H
  N64      1.0000 0.17710  0.99480  0.21100  Biso   1.000  N
  H191     1.0000 0.20060  0.00870  0.23290  Biso   1.000  H
  H192     1.0000 0.21050  0.97700  0.19360  Biso   1.000  H
  In1      1.0000 0.37500  0.37500  0.06860  Biso   1.000  In
  In2      1.0000 0.37500  0.87500  0.56860  Biso   1.000  In
  In3      1.0000 0.87500  0.37500  0.56860  Biso   1.000  In
  In4      1.0000 0.87500  0.87500  0.06860  Biso   1.000  In
  In5      1.0000 0.62500  0.62500  0.31860  Biso   1.000  In
  In6      1.0000 0.62500  0.12500  0.81860  Biso   1.000  In
  In7      1.0000 0.12500  0.62500  0.81860  Biso   1.000  In
  In8      1.0000 0.12500  0.12500  0.31860  Biso   1.000  In
  O65      1.0000 0.39420  0.30980  0.72818  Biso   1.000  O
  O66      1.0000 0.25910  0.33750  0.71623  Biso   1.000  O
  O67      1.0000 0.10340  0.18860  0.88234  Biso   1.000  O
  O68      1.0000 0.23850  0.16420  0.89686  Biso   1.000  O
  N65      1.0000 0.41350  0.21490  0.77350  Biso   1.000  N
  H193     1.0000 0.44440  0.19010  0.78650  Biso   1.000  H
  H194     1.0000 0.43450  0.22940  0.75120  Biso   1.000  H
  C193     1.0000 0.31140  0.30910  0.73700  Biso   1.000  C
  C194     1.0000 0.27920  0.27720  0.77180  Biso   1.000  C
  C195     1.0000 0.21730  0.22200  0.83920  Biso   1.000  C
  C196     1.0000 0.18460  0.19040  0.87520  Biso   1.000  C
  C197     1.0000 0.33090  0.23140  0.78840  Biso   1.000  C
  C198     1.0000 0.30020  0.20700  0.82420  Biso   1.000  C
  H195     1.0000 0.33530  0.18070  0.83790  Biso   1.000  H
  C199     1.0000 0.16190  0.26210  0.82070  Biso   1.000  C
  H196     1.0000 0.10520  0.27080  0.83140  Biso   1.000  H
  C200     1.0000 0.19470  0.28820  0.78610  Biso   1.000  C
  C201     1.0000 0.33810  0.25070  0.79630  Biso   1.000  C
  C202     1.0000 0.30600  0.22450  0.83090  Biso   1.000  C
  H197     1.0000 0.34670  0.20810  0.84910  Biso   1.000  H
  C203     1.0000 0.15790  0.24790  0.81450  Biso   1.000  C
  H198     1.0000 0.09630  0.24710  0.82040  Biso   1.000  H
  C204     1.0000 0.19000  0.27540  0.78040  Biso   1.000  C
  N66      1.0000 0.12300  0.30100  0.75760  Biso   1.000  N
  H199     1.0000 0.13720  0.32050  0.73610  Biso   1.000  H
  H200     1.0000 0.06710  0.29850  0.76490  Biso   1.000  H
  N67      1.0000 0.14000  0.32300  0.76720  Biso   1.000  N
  H201     1.0000 0.15760  0.33920  0.74500  Biso   1.000  H
  H202     1.0000 0.08690  0.32880  0.77700  Biso   1.000  H
  N68      1.0000 0.42710  0.24480  0.78900  Biso   1.000  N
  H203     1.0000 0.45060  0.25870  0.76710  Biso   1.000  H
  H204     1.0000 0.46050  0.22700  0.80640  Biso   1.000  H
  O69      1.0000 0.39420  0.80980  0.22818  Biso   1.000  O
  O70      1.0000 0.25910  0.83750  0.21623  Biso   1.000  O
  O71      1.0000 0.10340  0.68860  0.38234  Biso   1.000  O
  O72      1.0000 0.23850  0.66420  0.39686  Biso   1.000  O
  N69      1.0000 0.41350  0.71490  0.27350  Biso   1.000  N
  H205     1.0000 0.44440  0.69010  0.28650  Biso   1.000  H
  H206     1.0000 0.43450  0.72940  0.25120  Biso   1.000  H
  C205     1.0000 0.31140  0.80910  0.23700  Biso   1.000  C
  C206     1.0000 0.27920  0.77720  0.27180  Biso   1.000  C
  C207     1.0000 0.21730  0.72200  0.33920  Biso   1.000  C
  C208     1.0000 0.18460  0.69040  0.37520  Biso   1.000  C
  C209     1.0000 0.33090  0.73140  0.28840  Biso   1.000  C
  C210     1.0000 0.30020  0.70700  0.32420  Biso   1.000  C
  H207     1.0000 0.33530  0.68070  0.33790  Biso   1.000  H
  C211     1.0000 0.16190  0.76210  0.32070  Biso   1.000  C
  H208     1.0000 0.10520  0.77080  0.33140  Biso   1.000  H
  C212     1.0000 0.19470  0.78820  0.28610  Biso   1.000  C
  C213     1.0000 0.33810  0.75070  0.29630  Biso   1.000  C
  C214     1.0000 0.30600  0.72450  0.33090  Biso   1.000  C
  H209     1.0000 0.34670  0.70810  0.34910  Biso   1.000  H
  C215     1.0000 0.15790  0.74790  0.31450  Biso   1.000  C
  H210     1.0000 0.09630  0.74710  0.32040  Biso   1.000  H
  C216     1.0000 0.19000  0.77540  0.28040  Biso   1.000  C
  N70      1.0000 0.12300  0.80100  0.25760  Biso   1.000  N
  H211     1.0000 0.13720  0.82050  0.23610  Biso   1.000  H
  H212     1.0000 0.06710  0.79850  0.26490  Biso   1.000  H
  N71      1.0000 0.14000  0.82300  0.26720  Biso   1.000  N
  H213     1.0000 0.15760  0.83920  0.24500  Biso   1.000  H
  H214     1.0000 0.08690  0.82880  0.27700  Biso   1.000  H
  N72      1.0000 0.42710  0.74480  0.28900  Biso   1.000  N
  H215     1.0000 0.45060  0.75870  0.26710  Biso   1.000  H
  H216     1.0000 0.46050  0.72700  0.30640  Biso   1.000  H
  O73      1.0000 0.89420  0.30980  0.22818  Biso   1.000  O
  O74      1.0000 0.75910  0.33750  0.21623  Biso   1.000  O
  O75      1.0000 0.60340  0.18860  0.38234  Biso   1.000  O
  O76      1.0000 0.73850  0.16420  0.39686  Biso   1.000  O
  N73      1.0000 0.91350  0.21490  0.27350  Biso   1.000  N
  H217     1.0000 0.94440  0.19010  0.28650  Biso   1.000  H
  H218     1.0000 0.93450  0.22940  0.25120  Biso   1.000  H
  C217     1.0000 0.81140  0.30910  0.23700  Biso   1.000  C
  C218     1.0000 0.77920  0.27720  0.27180  Biso   1.000  C
  C219     1.0000 0.71730  0.22200  0.33920  Biso   1.000  C
  C220     1.0000 0.68460  0.19040  0.37520  Biso   1.000  C
  C221     1.0000 0.83090  0.23140  0.28840  Biso   1.000  C
  C222     1.0000 0.80020  0.20700  0.32420  Biso   1.000  C
  H219     1.0000 0.83530  0.18070  0.33790  Biso   1.000  H
  C223     1.0000 0.66190  0.26210  0.32070  Biso   1.000  C
  H220     1.0000 0.60520  0.27080  0.33140  Biso   1.000  H
  C224     1.0000 0.69470  0.28820  0.28610  Biso   1.000  C
  C225     1.0000 0.83810  0.25070  0.29630  Biso   1.000  C
  C226     1.0000 0.80600  0.22450  0.33090  Biso   1.000  C
  H221     1.0000 0.84670  0.20810  0.34910  Biso   1.000  H
  C227     1.0000 0.65790  0.24790  0.31450  Biso   1.000  C
  H222     1.0000 0.59630  0.24710  0.32040  Biso   1.000  H
  C228     1.0000 0.69000  0.27540  0.28040  Biso   1.000  C
  N74      1.0000 0.62300  0.30100  0.25760  Biso   1.000  N
  H223     1.0000 0.63720  0.32050  0.23610  Biso   1.000  H
  H224     1.0000 0.56710  0.29850  0.26490  Biso   1.000  H
  N75      1.0000 0.64000  0.32300  0.26720  Biso   1.000  N
  H225     1.0000 0.65760  0.33920  0.24500  Biso   1.000  H
  H226     1.0000 0.58690  0.32880  0.27700  Biso   1.000  H
  N76      1.0000 0.92710  0.24480  0.28900  Biso   1.000  N
  H227     1.0000 0.95060  0.25870  0.26710  Biso   1.000  H
  H228     1.0000 0.96050  0.22700  0.30640  Biso   1.000  H
  O77      1.0000 0.89420  0.80980  0.72818  Biso   1.000  O
  O78      1.0000 0.75910  0.83750  0.71623  Biso   1.000  O
  O79      1.0000 0.60340  0.68860  0.88234  Biso   1.000  O
  O80      1.0000 0.73850  0.66420  0.89686  Biso   1.000  O
  N77      1.0000 0.91350  0.71490  0.77350  Biso   1.000  N
  H229     1.0000 0.94440  0.69010  0.78650  Biso   1.000  H
  H230     1.0000 0.93450  0.72940  0.75120  Biso   1.000  H
  C229     1.0000 0.81140  0.80910  0.73700  Biso   1.000  C
  C230     1.0000 0.77920  0.77720  0.77180  Biso   1.000  C
  C231     1.0000 0.71730  0.72200  0.83920  Biso   1.000  C
  C232     1.0000 0.68460  0.69040  0.87520  Biso   1.000  C
  C233     1.0000 0.83090  0.73140  0.78840  Biso   1.000  C
  C234     1.0000 0.80020  0.70700  0.82420  Biso   1.000  C
  H231     1.0000 0.83530  0.68070  0.83790  Biso   1.000  H
  C235     1.0000 0.66190  0.76210  0.82070  Biso   1.000  C
  H232     1.0000 0.60520  0.77080  0.83140  Biso   1.000  H
  C236     1.0000 0.69470  0.78820  0.78610  Biso   1.000  C
  C237     1.0000 0.83810  0.75070  0.79630  Biso   1.000  C
  C238     1.0000 0.80600  0.72450  0.83090  Biso   1.000  C
  H233     1.0000 0.84670  0.70810  0.84910  Biso   1.000  H
  C239     1.0000 0.65790  0.74790  0.81450  Biso   1.000  C
  H234     1.0000 0.59630  0.74710  0.82040  Biso   1.000  H
  C240     1.0000 0.69000  0.77540  0.78040  Biso   1.000  C
  N78      1.0000 0.62300  0.80100  0.75760  Biso   1.000  N
  H235     1.0000 0.63720  0.82050  0.73610  Biso   1.000  H
  H236     1.0000 0.56710  0.79850  0.76490  Biso   1.000  H
  N79      1.0000 0.64000  0.82300  0.76720  Biso   1.000  N
  H237     1.0000 0.65760  0.83920  0.74500  Biso   1.000  H
  H238     1.0000 0.58690  0.82880  0.77700  Biso   1.000  H
  N80      1.0000 0.92710  0.74480  0.78900  Biso   1.000  N
  H239     1.0000 0.95060  0.75870  0.76710  Biso   1.000  H
  H240     1.0000 0.96050  0.72700  0.80640  Biso   1.000  H
  O81      1.0000 0.35580  0.44020  0.72818  Biso   1.000  O
  O82      1.0000 0.49090  0.41250  0.71623  Biso   1.000  O
  O83      1.0000 0.64660  0.56140  0.88234  Biso   1.000  O
  O84      1.0000 0.51150  0.58580  0.89686  Biso   1.000  O
  N81      1.0000 0.33650  0.53510  0.77350  Biso   1.000  N
  H241     1.0000 0.30560  0.55990  0.78650  Biso   1.000  H
  H242     1.0000 0.31550  0.52060  0.75120  Biso   1.000  H
  C241     1.0000 0.43860  0.44090  0.73700  Biso   1.000  C
  C242     1.0000 0.47080  0.47280  0.77180  Biso   1.000  C
  C243     1.0000 0.53270  0.52800  0.83920  Biso   1.000  C
  C244     1.0000 0.56540  0.55960  0.87520  Biso   1.000  C
  C245     1.0000 0.41910  0.51860  0.78840  Biso   1.000  C
  C246     1.0000 0.44980  0.54300  0.82420  Biso   1.000  C
  H243     1.0000 0.41470  0.56930  0.83790  Biso   1.000  H
  C247     1.0000 0.58810  0.48790  0.82070  Biso   1.000  C
  H244     1.0000 0.64480  0.47920  0.83140  Biso   1.000  H
  C248     1.0000 0.55530  0.46180  0.78610  Biso   1.000  C
  C249     1.0000 0.41190  0.49930  0.79630  Biso   1.000  C
  C250     1.0000 0.44400  0.52550  0.83090  Biso   1.000  C
  H245     1.0000 0.40330  0.54190  0.84910  Biso   1.000  H
  C251     1.0000 0.59210  0.50210  0.81450  Biso   1.000  C
  H246     1.0000 0.65370  0.50290  0.82040  Biso   1.000  H
  C252     1.0000 0.56000  0.47460  0.78040  Biso   1.000  C
  N82      1.0000 0.62700  0.44900  0.75760  Biso   1.000  N
  H247     1.0000 0.61280  0.42950  0.73610  Biso   1.000  H
  H248     1.0000 0.68290  0.45150  0.76490  Biso   1.000  H
  N83      1.0000 0.61000  0.42700  0.76720  Biso   1.000  N
  H249     1.0000 0.59240  0.41080  0.74500  Biso   1.000  H
  H250     1.0000 0.66310  0.42120  0.77700  Biso   1.000  H
  N84      1.0000 0.32290  0.50520  0.78900  Biso   1.000  N
  H251     1.0000 0.29940  0.49130  0.76710  Biso   1.000  H
  H252     1.0000 0.28950  0.52300  0.80640  Biso   1.000  H
  O85      1.0000 0.35580  0.94020  0.22818  Biso   1.000  O
  O86      1.0000 0.49090  0.91250  0.21623  Biso   1.000  O
  O87      1.0000 0.64660  0.06140  0.38234  Biso   1.000  O
  O88      1.0000 0.51150  0.08580  0.39686  Biso   1.000  O
  N85      1.0000 0.33650  0.03510  0.27350  Biso   1.000  N
  H253     1.0000 0.30560  0.05990  0.28650  Biso   1.000  H
  H254     1.0000 0.31550  0.02060  0.25120  Biso   1.000  H
  C253     1.0000 0.43860  0.94090  0.23700  Biso   1.000  C
  C254     1.0000 0.47080  0.97280  0.27180  Biso   1.000  C
  C255     1.0000 0.53270  0.02800  0.33920  Biso   1.000  C
  C256     1.0000 0.56540  0.05960  0.37520  Biso   1.000  C
  C257     1.0000 0.41910  0.01860  0.28840  Biso   1.000  C
  C258     1.0000 0.44980  0.04300  0.32420  Biso   1.000  C
  H255     1.0000 0.41470  0.06930  0.33790  Biso   1.000  H
  C259     1.0000 0.58810  0.98790  0.32070  Biso   1.000  C
  H256     1.0000 0.64480  0.97920  0.33140  Biso   1.000  H
  C260     1.0000 0.55530  0.96180  0.28610  Biso   1.000  C
  C261     1.0000 0.41190  0.99930  0.29630  Biso   1.000  C
  C262     1.0000 0.44400  0.02550  0.33090  Biso   1.000  C
  H257     1.0000 0.40330  0.04190  0.34910  Biso   1.000  H
  C263     1.0000 0.59210  0.00210  0.31450  Biso   1.000  C
  H258     1.0000 0.65370  0.00290  0.32040  Biso   1.000  H
  C264     1.0000 0.56000  0.97460  0.28040  Biso   1.000  C
  N86      1.0000 0.62700  0.94900  0.25760  Biso   1.000  N
  H259     1.0000 0.61280  0.92950  0.23610  Biso   1.000  H
  H260     1.0000 0.68290  0.95150  0.26490  Biso   1.000  H
  N87      1.0000 0.61000  0.92700  0.26720  Biso   1.000  N
  H261     1.0000 0.59240  0.91080  0.24500  Biso   1.000  H
  H262     1.0000 0.66310  0.92120  0.27700  Biso   1.000  H
  N88      1.0000 0.32290  0.00520  0.28900  Biso   1.000  N
  H263     1.0000 0.29940  0.99130  0.26710  Biso   1.000  H
  H264     1.0000 0.28950  0.02300  0.30640  Biso   1.000  H
  O89      1.0000 0.85580  0.44020  0.22818  Biso   1.000  O
  O90      1.0000 0.99090  0.41250  0.21623  Biso   1.000  O
  O91      1.0000 0.14660  0.56140  0.38234  Biso   1.000  O
  O92      1.0000 0.01150  0.58580  0.39686  Biso   1.000  O
  N89      1.0000 0.83650  0.53510  0.27350  Biso   1.000  N
  H265     1.0000 0.80560  0.55990  0.28650  Biso   1.000  H
  H266     1.0000 0.81550  0.52060  0.25120  Biso   1.000  H
  C265     1.0000 0.93860  0.44090  0.23700  Biso   1.000  C
  C266     1.0000 0.97080  0.47280  0.27180  Biso   1.000  C
  C267     1.0000 0.03270  0.52800  0.33920  Biso   1.000  C
  C268     1.0000 0.06540  0.55960  0.37520  Biso   1.000  C
  C269     1.0000 0.91910  0.51860  0.28840  Biso   1.000  C
  C270     1.0000 0.94980  0.54300  0.32420  Biso   1.000  C
  H267     1.0000 0.91470  0.56930  0.33790  Biso   1.000  H
  C271     1.0000 0.08810  0.48790  0.32070  Biso   1.000  C
  H268     1.0000 0.14480  0.47920  0.33140  Biso   1.000  H
  C272     1.0000 0.05530  0.46180  0.28610  Biso   1.000  C
  C273     1.0000 0.91190  0.49930  0.29630  Biso   1.000  C
  C274     1.0000 0.94400  0.52550  0.33090  Biso   1.000  C
  H269     1.0000 0.90330  0.54190  0.34910  Biso   1.000  H
  C275     1.0000 0.09210  0.50210  0.31450  Biso   1.000  C
  H270     1.0000 0.15370  0.50290  0.32040  Biso   1.000  H
  C276     1.0000 0.06000  0.47460  0.28040  Biso   1.000  C
  N90      1.0000 0.12700  0.44900  0.25760  Biso   1.000  N
  H271     1.0000 0.11280  0.42950  0.23610  Biso   1.000  H
  H272     1.0000 0.18290  0.45150  0.26490  Biso   1.000  H
  N91      1.0000 0.11000  0.42700  0.26720  Biso   1.000  N
  H273     1.0000 0.09240  0.41080  0.24500  Biso   1.000  H
  H274     1.0000 0.16310  0.42120  0.27700  Biso   1.000  H
  N92      1.0000 0.82290  0.50520  0.28900  Biso   1.000  N
  H275     1.0000 0.79940  0.49130  0.26710  Biso   1.000  H
  H276     1.0000 0.78950  0.52300  0.30640  Biso   1.000  H
  O93      1.0000 0.85580  0.94020  0.72818  Biso   1.000  O
  O94      1.0000 0.99090  0.91250  0.71623  Biso   1.000  O
  O95      1.0000 0.14660  0.06140  0.88234  Biso   1.000  O
  O96      1.0000 0.01150  0.08580  0.89686  Biso   1.000  O
  N93      1.0000 0.83650  0.03510  0.77350  Biso   1.000  N
  H277     1.0000 0.80560  0.05990  0.78650  Biso   1.000  H
  H278     1.0000 0.81550  0.02060  0.75120  Biso   1.000  H
  C277     1.0000 0.93860  0.94090  0.73700  Biso   1.000  C
  C278     1.0000 0.97080  0.97280  0.77180  Biso   1.000  C
  C279     1.0000 0.03270  0.02800  0.83920  Biso   1.000  C
  C280     1.0000 0.06540  0.05960  0.87520  Biso   1.000  C
  C281     1.0000 0.91910  0.01860  0.78840  Biso   1.000  C
  C282     1.0000 0.94980  0.04300  0.82420  Biso   1.000  C
  H279     1.0000 0.91470  0.06930  0.83790  Biso   1.000  H
  C283     1.0000 0.08810  0.98790  0.82070  Biso   1.000  C
  H280     1.0000 0.14480  0.97920  0.83140  Biso   1.000  H
  C284     1.0000 0.05530  0.96180  0.78610  Biso   1.000  C
  C285     1.0000 0.91190  0.99930  0.79630  Biso   1.000  C
  C286     1.0000 0.94400  0.02550  0.83090  Biso   1.000  C
  H281     1.0000 0.90330  0.04190  0.84910  Biso   1.000  H
  C287     1.0000 0.09210  0.00210  0.81450  Biso   1.000  C
  H282     1.0000 0.15370  0.00290  0.82040  Biso   1.000  H
  C288     1.0000 0.06000  0.97460  0.78040  Biso   1.000  C
  N94      1.0000 0.12700  0.94900  0.75760  Biso   1.000  N
  H283     1.0000 0.11280  0.92950  0.73610  Biso   1.000  H
  H284     1.0000 0.18290  0.95150  0.76490  Biso   1.000  H
  N95      1.0000 0.11000  0.92700  0.76720  Biso   1.000  N
  H285     1.0000 0.09240  0.91080  0.74500  Biso   1.000  H
  H286     1.0000 0.16310  0.92120  0.77700  Biso   1.000  H
  N96      1.0000 0.82290  0.00520  0.78900  Biso   1.000  N
  H287     1.0000 0.79940  0.99130  0.76710  Biso   1.000  H
  H288     1.0000 0.78950  0.02300  0.80640  Biso   1.000  H
  O97      1.0000 0.64420  0.69020  0.97818  Biso   1.000  O
  O98      1.0000 0.50910  0.66250  0.96623  Biso   1.000  O
  O99      1.0000 0.35340  0.81140  0.13234  Biso   1.000  O
  O100     1.0000 0.48850  0.83580  0.14686  Biso   1.000  O
  N97      1.0000 0.66350  0.78510  0.02350  Biso   1.000  N
  H289     1.0000 0.69440  0.80990  0.03650  Biso   1.000  H
  H290     1.0000 0.68450  0.77060  0.00120  Biso   1.000  H
  C289     1.0000 0.56140  0.69090  0.98700  Biso   1.000  C
  C290     1.0000 0.52920  0.72280  0.02180  Biso   1.000  C
  C291     1.0000 0.46730  0.77800  0.08920  Biso   1.000  C
  C292     1.0000 0.43460  0.80960  0.12520  Biso   1.000  C
  C293     1.0000 0.58090  0.76860  0.03840  Biso   1.000  C
  C294     1.0000 0.55020  0.79300  0.07420  Biso   1.000  C
  H291     1.0000 0.58530  0.81930  0.08790  Biso   1.000  H
  C295     1.0000 0.41190  0.73790  0.07070  Biso   1.000  C
  H292     1.0000 0.35520  0.72920  0.08140  Biso   1.000  H
  C296     1.0000 0.44470  0.71180  0.03610  Biso   1.000  C
  C297     1.0000 0.58810  0.74930  0.04630  Biso   1.000  C
  C298     1.0000 0.55600  0.77550  0.08090  Biso   1.000  C
  H293     1.0000 0.59670  0.79190  0.09910  Biso   1.000  H
  C299     1.0000 0.40790  0.75210  0.06450  Biso   1.000  C
  H294     1.0000 0.34630  0.75290  0.07040  Biso   1.000  H
  C300     1.0000 0.44000  0.72460  0.03040  Biso   1.000  C
  N98      1.0000 0.37300  0.69900  0.00760  Biso   1.000  N
  H295     1.0000 0.38720  0.67950  0.98610  Biso   1.000  H
  H296     1.0000 0.31710  0.70150  0.01490  Biso   1.000  H
  N99      1.0000 0.39000  0.67700  0.01720  Biso   1.000  N
  H297     1.0000 0.40760  0.66080  0.99500  Biso   1.000  H
  H298     1.0000 0.33690  0.67120  0.02700  Biso   1.000  H
  N100     1.0000 0.67710  0.75520  0.03900  Biso   1.000  N
  H299     1.0000 0.70060  0.74130  0.01710  Biso   1.000  H
  H300     1.0000 0.71050  0.77300  0.05640  Biso   1.000  H
  O101     1.0000 0.64420  0.19020  0.47818  Biso   1.000  O
  O102     1.0000 0.50910  0.16250  0.46623  Biso   1.000  O
  O103     1.0000 0.35340  0.31140  0.63234  Biso   1.000  O
  O104     1.0000 0.48850  0.33580  0.64686  Biso   1.000  O
  N101     1.0000 0.66350  0.28510  0.52350  Biso   1.000  N
  H301     1.0000 0.69440  0.30990  0.53650  Biso   1.000  H
  H302     1.0000 0.68450  0.27060  0.50120  Biso   1.000  H
  C301     1.0000 0.56140  0.19090  0.48700  Biso   1.000  C
  C302     1.0000 0.52920  0.22280  0.52180  Biso   1.000  C
  C303     1.0000 0.46730  0.27800  0.58920  Biso   1.000  C
  C304     1.0000 0.43460  0.30960  0.62520  Biso   1.000  C
  C305     1.0000 0.58090  0.26860  0.53840  Biso   1.000  C
  C306     1.0000 0.55020  0.29300  0.57420  Biso   1.000  C
  H303     1.0000 0.58530  0.31930  0.58790  Biso   1.000  H
  C307     1.0000 0.41190  0.23790  0.57070  Biso   1.000  C
  H304     1.0000 0.35520  0.22920  0.58140  Biso   1.000  H
  C308     1.0000 0.44470  0.21180  0.53610  Biso   1.000  C
  C309     1.0000 0.58810  0.24930  0.54630  Biso   1.000  C
  C310     1.0000 0.55600  0.27550  0.58090  Biso   1.000  C
  H305     1.0000 0.59670  0.29190  0.59910  Biso   1.000  H
  C311     1.0000 0.40790  0.25210  0.56450  Biso   1.000  C
  H306     1.0000 0.34630  0.25290  0.57040  Biso   1.000  H
  C312     1.0000 0.44000  0.22460  0.53040  Biso   1.000  C
  N102     1.0000 0.37300  0.19900  0.50760  Biso   1.000  N
  H307     1.0000 0.38720  0.17950  0.48610  Biso   1.000  H
  H308     1.0000 0.31710  0.20150  0.51490  Biso   1.000  H
  N103     1.0000 0.39000  0.17700  0.51720  Biso   1.000  N
  H309     1.0000 0.40760  0.16080  0.49500  Biso   1.000  H
  H310     1.0000 0.33690  0.17120  0.52700  Biso   1.000  H
  N104     1.0000 0.67710  0.25520  0.53900  Biso   1.000  N
  H311     1.0000 0.70060  0.24130  0.51710  Biso   1.000  H
  H312     1.0000 0.71050  0.27300  0.55640  Biso   1.000  H
  O105     1.0000 0.14420  0.69020  0.47818  Biso   1.000  O
  O106     1.0000 0.00910  0.66250  0.46623  Biso   1.000  O
  O107     1.0000 0.85340  0.81140  0.63234  Biso   1.000  O
  O108     1.0000 0.98850  0.83580  0.64686  Biso   1.000  O
  N105     1.0000 0.16350  0.78510  0.52350  Biso   1.000  N
  H313     1.0000 0.19440  0.80990  0.53650  Biso   1.000  H
  H314     1.0000 0.18450  0.77060  0.50120  Biso   1.000  H
  C313     1.0000 0.06140  0.69090  0.48700  Biso   1.000  C
  C314     1.0000 0.02920  0.72280  0.52180  Biso   1.000  C
  C315     1.0000 0.96730  0.77800  0.58920  Biso   1.000  C
  C316     1.0000 0.93460  0.80960  0.62520  Biso   1.000  C
  C317     1.0000 0.08090  0.76860  0.53840  Biso   1.000  C
  C318     1.0000 0.05020  0.79300  0.57420  Biso   1.000  C
  H315     1.0000 0.08530  0.81930  0.58790  Biso   1.000  H
  C319     1.0000 0.91190  0.73790  0.57070  Biso   1.000  C
  H316     1.0000 0.85520  0.72920  0.58140  Biso   1.000  H
  C320     1.0000 0.94470  0.71180  0.53610  Biso   1.000  C
  C321     1.0000 0.08810  0.74930  0.54630  Biso   1.000  C
  C322     1.0000 0.05600  0.77550  0.58090  Biso   1.000  C
  H317     1.0000 0.09670  0.79190  0.59910  Biso   1.000  H
  C323     1.0000 0.90790  0.75210  0.56450  Biso   1.000  C
  H318     1.0000 0.84630  0.75290  0.57040  Biso   1.000  H
  C324     1.0000 0.94000  0.72460  0.53040  Biso   1.000  C
  N106     1.0000 0.87300  0.69900  0.50760  Biso   1.000  N
  H319     1.0000 0.88720  0.67950  0.48610  Biso   1.000  H
  H320     1.0000 0.81710  0.70150  0.51490  Biso   1.000  H
  N107     1.0000 0.89000  0.67700  0.51720  Biso   1.000  N
  H321     1.0000 0.90760  0.66080  0.49500  Biso   1.000  H
  H322     1.0000 0.83690  0.67120  0.52700  Biso   1.000  H
  N108     1.0000 0.17710  0.75520  0.53900  Biso   1.000  N
  H323     1.0000 0.20060  0.74130  0.51710  Biso   1.000  H
  H324     1.0000 0.21050  0.77300  0.55640  Biso   1.000  H
  O109     1.0000 0.14420  0.19020  0.97818  Biso   1.000  O
  O110     1.0000 0.00910  0.16250  0.96623  Biso   1.000  O
  O111     1.0000 0.85340  0.31140  0.13234  Biso   1.000  O
  O112     1.0000 0.98850  0.33580  0.14686  Biso   1.000  O
  N109     1.0000 0.16350  0.28510  0.02350  Biso   1.000  N
  H325     1.0000 0.19440  0.30990  0.03650  Biso   1.000  H
  H326     1.0000 0.18450  0.27060  0.00120  Biso   1.000  H
  C325     1.0000 0.06140  0.19090  0.98700  Biso   1.000  C
  C326     1.0000 0.02920  0.22280  0.02180  Biso   1.000  C
  C327     1.0000 0.96730  0.27800  0.08920  Biso   1.000  C
  C328     1.0000 0.93460  0.30960  0.12520  Biso   1.000  C
  C329     1.0000 0.08090  0.26860  0.03840  Biso   1.000  C
  C330     1.0000 0.05020  0.29300  0.07420  Biso   1.000  C
  H327     1.0000 0.08530  0.31930  0.08790  Biso   1.000  H
  C331     1.0000 0.91190  0.23790  0.07070  Biso   1.000  C
  H328     1.0000 0.85520  0.22920  0.08140  Biso   1.000  H
  C332     1.0000 0.94470  0.21180  0.03610  Biso   1.000  C
  C333     1.0000 0.08810  0.24930  0.04630  Biso   1.000  C
  C334     1.0000 0.05600  0.27550  0.08090  Biso   1.000  C
  H329     1.0000 0.09670  0.29190  0.09910  Biso   1.000  H
  C335     1.0000 0.90790  0.25210  0.06450  Biso   1.000  C
  H330     1.0000 0.84630  0.25290  0.07040  Biso   1.000  H
  C336     1.0000 0.94000  0.22460  0.03040  Biso   1.000  C
  N110     1.0000 0.87300  0.19900  0.00760  Biso   1.000  N
  H331     1.0000 0.88720  0.17950  0.98610  Biso   1.000  H
  H332     1.0000 0.81710  0.20150  0.01490  Biso   1.000  H
  N111     1.0000 0.89000  0.17700  0.01720  Biso   1.000  N
  H333     1.0000 0.90760  0.16080  0.99500  Biso   1.000  H
  H334     1.0000 0.83690  0.17120  0.02700  Biso   1.000  H
  N112     1.0000 0.17710  0.25520  0.03900  Biso   1.000  N
  H335     1.0000 0.20060  0.24130  0.01710  Biso   1.000  H
  H336     1.0000 0.21050  0.27300  0.05640  Biso   1.000  H
  O113     1.0000 0.60580  0.55980  0.97818  Biso   1.000  O
  O114     1.0000 0.74090  0.58750  0.96623  Biso   1.000  O
  O115     1.0000 0.89660  0.43860  0.13234  Biso   1.000  O
  O116     1.0000 0.76150  0.41420  0.14686  Biso   1.000  O
  N113     1.0000 0.58650  0.46490  0.02350  Biso   1.000  N
  H337     1.0000 0.55560  0.44010  0.03650  Biso   1.000  H
  H338     1.0000 0.56550  0.47940  0.00120  Biso   1.000  H
  C337     1.0000 0.68860  0.55910  0.98700  Biso   1.000  C
  C338     1.0000 0.72080  0.52720  0.02180  Biso   1.000  C
  C339     1.0000 0.78270  0.47200  0.08920  Biso   1.000  C
  C340     1.0000 0.81540  0.44040  0.12520  Biso   1.000  C
  C341     1.0000 0.66910  0.48140  0.03840  Biso   1.000  C
  C342     1.0000 0.69980  0.45700  0.07420  Biso   1.000  C
  H339     1.0000 0.66470  0.43070  0.08790  Biso   1.000  H
  C343     1.0000 0.83810  0.51210  0.07070  Biso   1.000  C
  H340     1.0000 0.89480  0.52080  0.08140  Biso   1.000  H
  C344     1.0000 0.80530  0.53820  0.03610  Biso   1.000  C
  C345     1.0000 0.66190  0.50070  0.04630  Biso   1.000  C
  C346     1.0000 0.69400  0.47450  0.08090  Biso   1.000  C
  H341     1.0000 0.65330  0.45810  0.09910  Biso   1.000  H
  C347     1.0000 0.84210  0.49790  0.06450  Biso   1.000  C
  H342     1.0000 0.90370  0.49710  0.07040  Biso   1.000  H
  C348     1.0000 0.81000  0.52540  0.03040  Biso   1.000  C
  N114     1.0000 0.87700  0.55100  0.00760  Biso   1.000  N
  H343     1.0000 0.86280  0.57050  0.98610  Biso   1.000  H
  H344     1.0000 0.93290  0.54850  0.01490  Biso   1.000  H
  N115     1.0000 0.86000  0.57300  0.01720  Biso   1.000  N
  H345     1.0000 0.84240  0.58920  0.99500  Biso   1.000  H
  H346     1.0000 0.91310  0.57880  0.02700  Biso   1.000  H
  N116     1.0000 0.57290  0.49480  0.03900  Biso   1.000  N
  H347     1.0000 0.54940  0.50870  0.01710  Biso   1.000  H
  H348     1.0000 0.53950  0.47700  0.05640  Biso   1.000  H
  O117     1.0000 0.60580  0.05980  0.47818  Biso   1.000  O
  O118     1.0000 0.74090  0.08750  0.46623  Biso   1.000  O
  O119     1.0000 0.89660  0.93860  0.63234  Biso   1.000  O
  O120     1.0000 0.76150  0.91420  0.64686  Biso   1.000  O
  N117     1.0000 0.58650  0.96490  0.52350  Biso   1.000  N
  H349     1.0000 0.55560  0.94010  0.53650  Biso   1.000  H
  H350     1.0000 0.56550  0.97940  0.50120  Biso   1.000  H
  C349     1.0000 0.68860  0.05910  0.48700  Biso   1.000  C
  C350     1.0000 0.72080  0.02720  0.52180  Biso   1.000  C
  C351     1.0000 0.78270  0.97200  0.58920  Biso   1.000  C
  C352     1.0000 0.81540  0.94040  0.62520  Biso   1.000  C
  C353     1.0000 0.66910  0.98140  0.53840  Biso   1.000  C
  C354     1.0000 0.69980  0.95700  0.57420  Biso   1.000  C
  H351     1.0000 0.66470  0.93070  0.58790  Biso   1.000  H
  C355     1.0000 0.83810  0.01210  0.57070  Biso   1.000  C
  H352     1.0000 0.89480  0.02080  0.58140  Biso   1.000  H
  C356     1.0000 0.80530  0.03820  0.53610  Biso   1.000  C
  C357     1.0000 0.66190  0.00070  0.54630  Biso   1.000  C
  C358     1.0000 0.69400  0.97450  0.58090  Biso   1.000  C
  H353     1.0000 0.65330  0.95810  0.59910  Biso   1.000  H
  C359     1.0000 0.84210  0.99790  0.56450  Biso   1.000  C
  H354     1.0000 0.90370  0.99710  0.57040  Biso   1.000  H
  C360     1.0000 0.81000  0.02540  0.53040  Biso   1.000  C
  N118     1.0000 0.87700  0.05100  0.50760  Biso   1.000  N
  H355     1.0000 0.86280  0.07050  0.48610  Biso   1.000  H
  H356     1.0000 0.93290  0.04850  0.51490  Biso   1.000  H
  N119     1.0000 0.86000  0.07300  0.51720  Biso   1.000  N
  H357     1.0000 0.84240  0.08920  0.49500  Biso   1.000  H
  H358     1.0000 0.91310  0.07880  0.52700  Biso   1.000  H
  N120     1.0000 0.57290  0.99480  0.53900  Biso   1.000  N
  H359     1.0000 0.54940  0.00870  0.51710  Biso   1.000  H
  H360     1.0000 0.53950  0.97700  0.55640  Biso   1.000  H
  O121     1.0000 0.10580  0.55980  0.47818  Biso   1.000  O
  O122     1.0000 0.24090  0.58750  0.46623  Biso   1.000  O
  O123     1.0000 0.39660  0.43860  0.63234  Biso   1.000  O
  O124     1.0000 0.26150  0.41420  0.64686  Biso   1.000  O
  N121     1.0000 0.08650  0.46490  0.52350  Biso   1.000  N
  H361     1.0000 0.05560  0.44010  0.53650  Biso   1.000  H
  H362     1.0000 0.06550  0.47940  0.50120  Biso   1.000  H
  C361     1.0000 0.18860  0.55910  0.48700  Biso   1.000  C
  C362     1.0000 0.22080  0.52720  0.52180  Biso   1.000  C
  C363     1.0000 0.28270  0.47200  0.58920  Biso   1.000  C
  C364     1.0000 0.31540  0.44040  0.62520  Biso   1.000  C
  C365     1.0000 0.16910  0.48140  0.53840  Biso   1.000  C
  C366     1.0000 0.19980  0.45700  0.57420  Biso   1.000  C
  H363     1.0000 0.16470  0.43070  0.58790  Biso   1.000  H
  C367     1.0000 0.33810  0.51210  0.57070  Biso   1.000  C
  H364     1.0000 0.39480  0.52080  0.58140  Biso   1.000  H
  C368     1.0000 0.30530  0.53820  0.53610  Biso   1.000  C
  C369     1.0000 0.16190  0.50070  0.54630  Biso   1.000  C
  C370     1.0000 0.19400  0.47450  0.58090  Biso   1.000  C
  H365     1.0000 0.15330  0.45810  0.59910  Biso   1.000  H
  C371     1.0000 0.34210  0.49790  0.56450  Biso   1.000  C
  H366     1.0000 0.40370  0.49710  0.57040  Biso   1.000  H
  C372     1.0000 0.31000  0.52540  0.53040  Biso   1.000  C
  N122     1.0000 0.37700  0.55100  0.50760  Biso   1.000  N
  H367     1.0000 0.36280  0.57050  0.48610  Biso   1.000  H
  H368     1.0000 0.43290  0.54850  0.51490  Biso   1.000  H
  N123     1.0000 0.36000  0.57300  0.51720  Biso   1.000  N
  H369     1.0000 0.34240  0.58920  0.49500  Biso   1.000  H
  H370     1.0000 0.41310  0.57880  0.52700  Biso   1.000  H
  N124     1.0000 0.07290  0.49480  0.53900  Biso   1.000  N
  H371     1.0000 0.04940  0.50870  0.51710  Biso   1.000  H
  H372     1.0000 0.03950  0.47700  0.55640  Biso   1.000  H
  O125     1.0000 0.10580  0.05980  0.97818  Biso   1.000  O
  O126     1.0000 0.24090  0.08750  0.96623  Biso   1.000  O
  O127     1.0000 0.39660  0.93860  0.13234  Biso   1.000  O
  O128     1.0000 0.26150  0.91420  0.14686  Biso   1.000  O
  N125     1.0000 0.08650  0.96490  0.02350  Biso   1.000  N
  H373     1.0000 0.05560  0.94010  0.03650  Biso   1.000  H
  H374     1.0000 0.06550  0.97940  0.00120  Biso   1.000  H
  C373     1.0000 0.18860  0.05910  0.98700  Biso   1.000  C
  C374     1.0000 0.22080  0.02720  0.02180  Biso   1.000  C
  C375     1.0000 0.28270  0.97200  0.08920  Biso   1.000  C
  C376     1.0000 0.31540  0.94040  0.12520  Biso   1.000  C
  C377     1.0000 0.16910  0.98140  0.03840  Biso   1.000  C
  C378     1.0000 0.19980  0.95700  0.07420  Biso   1.000  C
  H375     1.0000 0.16470  0.93070  0.08790  Biso   1.000  H
  C379     1.0000 0.33810  0.01210  0.07070  Biso   1.000  C
  H376     1.0000 0.39480  0.02080  0.08140  Biso   1.000  H
  C380     1.0000 0.30530  0.03820  0.03610  Biso   1.000  C
  C381     1.0000 0.16190  0.00070  0.04630  Biso   1.000  C
  C382     1.0000 0.19400  0.97450  0.08090  Biso   1.000  C
  H377     1.0000 0.15330  0.95810  0.09910  Biso   1.000  H
  C383     1.0000 0.34210  0.99790  0.06450  Biso   1.000  C
  H378     1.0000 0.40370  0.99710  0.07040  Biso   1.000  H
  C384     1.0000 0.31000  0.02540  0.03040  Biso   1.000  C
  N126     1.0000 0.37700  0.05100  0.00760  Biso   1.000  N
  H379     1.0000 0.36280  0.07050  0.98610  Biso   1.000  H
  H380     1.0000 0.43290  0.04850  0.01490  Biso   1.000  H
  N127     1.0000 0.36000  0.07300  0.01720  Biso   1.000  N
  H381     1.0000 0.34240  0.08920  0.99500  Biso   1.000  H
  H382     1.0000 0.41310  0.07880  0.02700  Biso   1.000  H
  N128     1.0000 0.07290  0.99480  0.03900  Biso   1.000  N
  H383     1.0000 0.04940  0.00870  0.01710  Biso   1.000  H
  H384     1.0000 0.03950  0.97700  0.05640  Biso   1.000  H
  In9      1.0000 0.37500  0.37500  0.68140  Biso   1.000  In
  In10     1.0000 0.37500  0.87500  0.18140  Biso   1.000  In
  In11     1.0000 0.87500  0.37500  0.18140  Biso   1.000  In
  In12     1.0000 0.87500  0.87500  0.68140  Biso   1.000  In
  In13     1.0000 0.62500  0.62500  0.93140  Biso   1.000  In
  In14     1.0000 0.62500  0.12500  0.43140  Biso   1.000  In
  In15     1.0000 0.12500  0.62500  0.43140  Biso   1.000  In
  In16     1.0000 0.12500  0.12500  0.93140  Biso   1.000  In
