data_image0
_cell_length_a       15.123
_cell_length_b       23.0564
_cell_length_c       34.0427
_cell_angle_alpha    90
_cell_angle_beta     90
_cell_angle_gamma    90

_symmetry_space_group_name_H-M    "P 1"
_symmetry_int_tables_number       1

loop_
  _symmetry_equiv_pos_as_xyz
  'x, y, z'

loop_
  _atom_site_label
  _atom_site_occupancy
  _atom_site_fract_x
  _atom_site_fract_y
  _atom_site_fract_z
  _atom_site_thermal_displace_type
  _atom_site_B_iso_or_equiv
  _atom_site_type_symbol
  O1       1.0000 0.64770  0.19080  0.87212  Biso   1.000  O
  O2       1.0000 0.51160  0.16877  0.85625  Biso   1.000  O
  O3       1.0000 0.35660  0.30770  0.02686  Biso   1.000  O
  O4       1.0000 0.49120  0.33440  0.04031  Biso   1.000  O
  C1       1.0000 0.43920  0.30710  0.01823  Biso   1.000  C
  C2       1.0000 0.46980  0.27910  0.98200  Biso   1.000  C
  C3       1.0000 0.41080  0.25360  0.95590  Biso   1.000  C
  C4       1.0000 0.56010  0.27710  0.97460  Biso   1.000  C
  N1       1.0000 0.32110  0.24770  0.96140  Biso   1.000  N
  C5       1.0000 0.44210  0.22620  0.92230  Biso   1.000  C
  H1       1.0000 0.60040  0.29450  0.99240  Biso   1.000  H
  C6       1.0000 0.59140  0.24970  0.94100  Biso   1.000  C
  H2       1.0000 0.29640  0.26070  0.98310  Biso   1.000  H
  H3       1.0000 0.28850  0.23100  0.94330  Biso   1.000  H
  H4       1.0000 0.40180  0.20880  0.90440  Biso   1.000  H
  C7       1.0000 0.53240  0.22420  0.91480  Biso   1.000  C
  H5       1.0000 0.65310  0.24830  0.93590  Biso   1.000  H
  C8       1.0000 0.56550  0.19380  0.87866  Biso   1.000  C
  N2       1.0000 0.66050  0.46160  0.22690  Biso   1.000  N
  H6       1.0000 0.68610  0.43290  0.21420  Biso   1.000  H
  H7       1.0000 0.68480  0.47550  0.24840  Biso   1.000  H
  C9       1.0000 0.54930  0.45970  0.17860  Biso   1.000  C
  H8       1.0000 0.58500  0.43300  0.16450  Biso   1.000  H
  C10      1.0000 0.58120  0.48520  0.21280  Biso   1.000  C
  C11      1.0000 0.52900  0.52430  0.23350  Biso   1.000  C
  C12      1.0000 0.44480  0.53790  0.22000  Biso   1.000  C
  H9       1.0000 0.40910  0.56470  0.23410  Biso   1.000  H
  C13      1.0000 0.41290  0.51250  0.18580  Biso   1.000  C
  H10      1.0000 0.35530  0.52180  0.17650  Biso   1.000  H
  O5       1.0000 0.64770  0.69080  0.37212  Biso   1.000  O
  O6       1.0000 0.51160  0.66877  0.35625  Biso   1.000  O
  O7       1.0000 0.35660  0.80770  0.52686  Biso   1.000  O
  O8       1.0000 0.49120  0.83440  0.54031  Biso   1.000  O
  C14      1.0000 0.43920  0.80710  0.51823  Biso   1.000  C
  C15      1.0000 0.46980  0.77910  0.48200  Biso   1.000  C
  C16      1.0000 0.41080  0.75360  0.45590  Biso   1.000  C
  C17      1.0000 0.56010  0.77710  0.47460  Biso   1.000  C
  N3       1.0000 0.32110  0.74770  0.46140  Biso   1.000  N
  C18      1.0000 0.44210  0.72620  0.42230  Biso   1.000  C
  H11      1.0000 0.60040  0.79450  0.49240  Biso   1.000  H
  C19      1.0000 0.59140  0.74970  0.44100  Biso   1.000  C
  H12      1.0000 0.29640  0.76070  0.48310  Biso   1.000  H
  H13      1.0000 0.28850  0.73100  0.44330  Biso   1.000  H
  H14      1.0000 0.40180  0.70880  0.40440  Biso   1.000  H
  C20      1.0000 0.53240  0.72420  0.41480  Biso   1.000  C
  H15      1.0000 0.65310  0.74830  0.43590  Biso   1.000  H
  C21      1.0000 0.56550  0.69380  0.37866  Biso   1.000  C
  N4       1.0000 0.66050  0.96160  0.72690  Biso   1.000  N
  H16      1.0000 0.68610  0.93290  0.71420  Biso   1.000  H
  H17      1.0000 0.68480  0.97550  0.74840  Biso   1.000  H
  C22      1.0000 0.54930  0.95970  0.67860  Biso   1.000  C
  H18      1.0000 0.58500  0.93300  0.66450  Biso   1.000  H
  C23      1.0000 0.58120  0.98520  0.71280  Biso   1.000  C
  C24      1.0000 0.52900  0.02430  0.73350  Biso   1.000  C
  C25      1.0000 0.44480  0.03790  0.72000  Biso   1.000  C
  H19      1.0000 0.40910  0.06470  0.73410  Biso   1.000  H
  C26      1.0000 0.41290  0.01250  0.68580  Biso   1.000  C
  H20      1.0000 0.35530  0.02180  0.67650  Biso   1.000  H
  O9       1.0000 0.14770  0.19080  0.37212  Biso   1.000  O
  O10      1.0000 0.01160  0.16877  0.35625  Biso   1.000  O
  O11      1.0000 0.85660  0.30770  0.52686  Biso   1.000  O
  O12      1.0000 0.99120  0.33440  0.54031  Biso   1.000  O
  C27      1.0000 0.93920  0.30710  0.51823  Biso   1.000  C
  C28      1.0000 0.96980  0.27910  0.48200  Biso   1.000  C
  C29      1.0000 0.91080  0.25360  0.45590  Biso   1.000  C
  C30      1.0000 0.06010  0.27710  0.47460  Biso   1.000  C
  N5       1.0000 0.82110  0.24770  0.46140  Biso   1.000  N
  C31      1.0000 0.94210  0.22620  0.42230  Biso   1.000  C
  H21      1.0000 0.10040  0.29450  0.49240  Biso   1.000  H
  C32      1.0000 0.09140  0.24970  0.44100  Biso   1.000  C
  H22      1.0000 0.79640  0.26070  0.48310  Biso   1.000  H
  H23      1.0000 0.78850  0.23100  0.44330  Biso   1.000  H
  H24      1.0000 0.90180  0.20880  0.40440  Biso   1.000  H
  C33      1.0000 0.03240  0.22420  0.41480  Biso   1.000  C
  H25      1.0000 0.15310  0.24830  0.43590  Biso   1.000  H
  C34      1.0000 0.06550  0.19380  0.37866  Biso   1.000  C
  N6       1.0000 0.16050  0.46160  0.72690  Biso   1.000  N
  H26      1.0000 0.18610  0.43290  0.71420  Biso   1.000  H
  H27      1.0000 0.18480  0.47550  0.74840  Biso   1.000  H
  C35      1.0000 0.04930  0.45970  0.67860  Biso   1.000  C
  H28      1.0000 0.08500  0.43300  0.66450  Biso   1.000  H
  C36      1.0000 0.08120  0.48520  0.71280  Biso   1.000  C
  C37      1.0000 0.02900  0.52430  0.73350  Biso   1.000  C
  C38      1.0000 0.94480  0.53790  0.72000  Biso   1.000  C
  H29      1.0000 0.90910  0.56470  0.73410  Biso   1.000  H
  C39      1.0000 0.91290  0.51250  0.68580  Biso   1.000  C
  H30      1.0000 0.85530  0.52180  0.67650  Biso   1.000  H
  O13      1.0000 0.14770  0.69080  0.87212  Biso   1.000  O
  O14      1.0000 0.01160  0.66877  0.85625  Biso   1.000  O
  O15      1.0000 0.85660  0.80770  0.02686  Biso   1.000  O
  O16      1.0000 0.99120  0.83440  0.04031  Biso   1.000  O
  C40      1.0000 0.93920  0.80710  0.01823  Biso   1.000  C
  C41      1.0000 0.96980  0.77910  0.98200  Biso   1.000  C
  C42      1.0000 0.91080  0.75360  0.95590  Biso   1.000  C
  C43      1.0000 0.06010  0.77710  0.97460  Biso   1.000  C
  N7       1.0000 0.82110  0.74770  0.96140  Biso   1.000  N
  C44      1.0000 0.94210  0.72620  0.92230  Biso   1.000  C
  H31      1.0000 0.10040  0.79450  0.99240  Biso   1.000  H
  C45      1.0000 0.09140  0.74970  0.94100  Biso   1.000  C
  H32      1.0000 0.79640  0.76070  0.98310  Biso   1.000  H
  H33      1.0000 0.78850  0.73100  0.94330  Biso   1.000  H
  H34      1.0000 0.90180  0.70880  0.90440  Biso   1.000  H
  C46      1.0000 0.03240  0.72420  0.91480  Biso   1.000  C
  H35      1.0000 0.15310  0.74830  0.93590  Biso   1.000  H
  C47      1.0000 0.06550  0.69380  0.87866  Biso   1.000  C
  N8       1.0000 0.16050  0.96160  0.22690  Biso   1.000  N
  H36      1.0000 0.18610  0.93290  0.21420  Biso   1.000  H
  H37      1.0000 0.18480  0.97550  0.24840  Biso   1.000  H
  C48      1.0000 0.04930  0.95970  0.17860  Biso   1.000  C
  H38      1.0000 0.08500  0.93300  0.16450  Biso   1.000  H
  C49      1.0000 0.08120  0.98520  0.21280  Biso   1.000  C
  C50      1.0000 0.02900  0.02430  0.23350  Biso   1.000  C
  C51      1.0000 0.94480  0.03790  0.22000  Biso   1.000  C
  H39      1.0000 0.90910  0.06470  0.23410  Biso   1.000  H
  C52      1.0000 0.91290  0.01250  0.18580  Biso   1.000  C
  H40      1.0000 0.85530  0.02180  0.17650  Biso   1.000  H
  O17      1.0000 0.10230  0.55920  0.87212  Biso   1.000  O
  O18      1.0000 0.23840  0.58123  0.85625  Biso   1.000  O
  O19      1.0000 0.39340  0.44230  0.02686  Biso   1.000  O
  O20      1.0000 0.25880  0.41560  0.04031  Biso   1.000  O
  C53      1.0000 0.31080  0.44290  0.01823  Biso   1.000  C
  C54      1.0000 0.28020  0.47090  0.98200  Biso   1.000  C
  C55      1.0000 0.33920  0.49640  0.95590  Biso   1.000  C
  C56      1.0000 0.18990  0.47290  0.97460  Biso   1.000  C
  N9       1.0000 0.42890  0.50230  0.96140  Biso   1.000  N
  C57      1.0000 0.30790  0.52380  0.92230  Biso   1.000  C
  H41      1.0000 0.14960  0.45550  0.99240  Biso   1.000  H
  C58      1.0000 0.15860  0.50030  0.94100  Biso   1.000  C
  H42      1.0000 0.45360  0.48930  0.98310  Biso   1.000  H
  H43      1.0000 0.46150  0.51900  0.94330  Biso   1.000  H
  H44      1.0000 0.34820  0.54120  0.90440  Biso   1.000  H
  C59      1.0000 0.21760  0.52580  0.91480  Biso   1.000  C
  H45      1.0000 0.09690  0.50170  0.93590  Biso   1.000  H
  C60      1.0000 0.18450  0.55620  0.87866  Biso   1.000  C
  N10      1.0000 0.08950  0.28840  0.22690  Biso   1.000  N
  H46      1.0000 0.06390  0.31710  0.21420  Biso   1.000  H
  H47      1.0000 0.06520  0.27450  0.24840  Biso   1.000  H
  C61      1.0000 0.20070  0.29030  0.17860  Biso   1.000  C
  H48      1.0000 0.16500  0.31700  0.16450  Biso   1.000  H
  C62      1.0000 0.16880  0.26480  0.21280  Biso   1.000  C
  C63      1.0000 0.22100  0.22570  0.23350  Biso   1.000  C
  C64      1.0000 0.30520  0.21210  0.22000  Biso   1.000  C
  H49      1.0000 0.34090  0.18530  0.23410  Biso   1.000  H
  C65      1.0000 0.33710  0.23750  0.18580  Biso   1.000  C
  H50      1.0000 0.39470  0.22820  0.17650  Biso   1.000  H
  O21      1.0000 0.10230  0.05920  0.37212  Biso   1.000  O
  O22      1.0000 0.23840  0.08123  0.35625  Biso   1.000  O
  O23      1.0000 0.39340  0.94230  0.52686  Biso   1.000  O
  O24      1.0000 0.25880  0.91560  0.54031  Biso   1.000  O
  C66      1.0000 0.31080  0.94290  0.51823  Biso   1.000  C
  C67      1.0000 0.28020  0.97090  0.48200  Biso   1.000  C
  C68      1.0000 0.33920  0.99640  0.45590  Biso   1.000  C
  C69      1.0000 0.18990  0.97290  0.47460  Biso   1.000  C
  N11      1.0000 0.42890  0.00230  0.46140  Biso   1.000  N
  C70      1.0000 0.30790  0.02380  0.42230  Biso   1.000  C
  H51      1.0000 0.14960  0.95550  0.49240  Biso   1.000  H
  C71      1.0000 0.15860  0.00030  0.44100  Biso   1.000  C
  H52      1.0000 0.45360  0.98930  0.48310  Biso   1.000  H
  H53      1.0000 0.46150  0.01900  0.44330  Biso   1.000  H
  H54      1.0000 0.34820  0.04120  0.40440  Biso   1.000  H
  C72      1.0000 0.21760  0.02580  0.41480  Biso   1.000  C
  H55      1.0000 0.09690  0.00170  0.43590  Biso   1.000  H
  C73      1.0000 0.18450  0.05620  0.37866  Biso   1.000  C
  N12      1.0000 0.08950  0.78840  0.72690  Biso   1.000  N
  H56      1.0000 0.06390  0.81710  0.71420  Biso   1.000  H
  H57      1.0000 0.06520  0.77450  0.74840  Biso   1.000  H
  C74      1.0000 0.20070  0.79030  0.67860  Biso   1.000  C
  H58      1.0000 0.16500  0.81700  0.66450  Biso   1.000  H
  C75      1.0000 0.16880  0.76480  0.71280  Biso   1.000  C
  C76      1.0000 0.22100  0.72570  0.73350  Biso   1.000  C
  C77      1.0000 0.30520  0.71210  0.72000  Biso   1.000  C
  H59      1.0000 0.34090  0.68530  0.73410  Biso   1.000  H
  C78      1.0000 0.33710  0.73750  0.68580  Biso   1.000  C
  H60      1.0000 0.39470  0.72820  0.67650  Biso   1.000  H
  O25      1.0000 0.60230  0.55920  0.37212  Biso   1.000  O
  O26      1.0000 0.73840  0.58123  0.35625  Biso   1.000  O
  O27      1.0000 0.89340  0.44230  0.52686  Biso   1.000  O
  O28      1.0000 0.75880  0.41560  0.54031  Biso   1.000  O
  C79      1.0000 0.81080  0.44290  0.51823  Biso   1.000  C
  C80      1.0000 0.78020  0.47090  0.48200  Biso   1.000  C
  C81      1.0000 0.83920  0.49640  0.45590  Biso   1.000  C
  C82      1.0000 0.68990  0.47290  0.47460  Biso   1.000  C
  N13      1.0000 0.92890  0.50230  0.46140  Biso   1.000  N
  C83      1.0000 0.80790  0.52380  0.42230  Biso   1.000  C
  H61      1.0000 0.64960  0.45550  0.49240  Biso   1.000  H
  C84      1.0000 0.65860  0.50030  0.44100  Biso   1.000  C
  H62      1.0000 0.95360  0.48930  0.48310  Biso   1.000  H
  H63      1.0000 0.96150  0.51900  0.44330  Biso   1.000  H
  H64      1.0000 0.84820  0.54120  0.40440  Biso   1.000  H
  C85      1.0000 0.71760  0.52580  0.41480  Biso   1.000  C
  H65      1.0000 0.59690  0.50170  0.43590  Biso   1.000  H
  C86      1.0000 0.68450  0.55620  0.37866  Biso   1.000  C
  N14      1.0000 0.58950  0.28840  0.72690  Biso   1.000  N
  H66      1.0000 0.56390  0.31710  0.71420  Biso   1.000  H
  H67      1.0000 0.56520  0.27450  0.74840  Biso   1.000  H
  C87      1.0000 0.70070  0.29030  0.67860  Biso   1.000  C
  H68      1.0000 0.66500  0.31700  0.66450  Biso   1.000  H
  C88      1.0000 0.66880  0.26480  0.71280  Biso   1.000  C
  C89      1.0000 0.72100  0.22570  0.73350  Biso   1.000  C
  C90      1.0000 0.80520  0.21210  0.72000  Biso   1.000  C
  H69      1.0000 0.84090  0.18530  0.73410  Biso   1.000  H
  C91      1.0000 0.83710  0.23750  0.68580  Biso   1.000  C
  H70      1.0000 0.89470  0.22820  0.67650  Biso   1.000  H
  O29      1.0000 0.60230  0.05920  0.87212  Biso   1.000  O
  O30      1.0000 0.73840  0.08123  0.85625  Biso   1.000  O
  O31      1.0000 0.89340  0.94230  0.02686  Biso   1.000  O
  O32      1.0000 0.75880  0.91560  0.04031  Biso   1.000  O
  C92      1.0000 0.81080  0.94290  0.01823  Biso   1.000  C
  C93      1.0000 0.78020  0.97090  0.98200  Biso   1.000  C
  C94      1.0000 0.83920  0.99640  0.95590  Biso   1.000  C
  C95      1.0000 0.68990  0.97290  0.97460  Biso   1.000  C
  N15      1.0000 0.92890  0.00230  0.96140  Biso   1.000  N
  C96      1.0000 0.80790  0.02380  0.92230  Biso   1.000  C
  H71      1.0000 0.64960  0.95550  0.99240  Biso   1.000  H
  C97      1.0000 0.65860  0.00030  0.94100  Biso   1.000  C
  H72      1.0000 0.95360  0.98930  0.98310  Biso   1.000  H
  H73      1.0000 0.96150  0.01900  0.94330  Biso   1.000  H
  H74      1.0000 0.84820  0.04120  0.90440  Biso   1.000  H
  C98      1.0000 0.71760  0.02580  0.91480  Biso   1.000  C
  H75      1.0000 0.59690  0.00170  0.93590  Biso   1.000  H
  C99      1.0000 0.68450  0.05620  0.87866  Biso   1.000  C
  N16      1.0000 0.58950  0.78840  0.22690  Biso   1.000  N
  H76      1.0000 0.56390  0.81710  0.21420  Biso   1.000  H
  H77      1.0000 0.56520  0.77450  0.24840  Biso   1.000  H
  C100     1.0000 0.70070  0.79030  0.17860  Biso   1.000  C
  H78      1.0000 0.66500  0.81700  0.16450  Biso   1.000  H
  C101     1.0000 0.66880  0.76480  0.21280  Biso   1.000  C
  C102     1.0000 0.72100  0.72570  0.23350  Biso   1.000  C
  C103     1.0000 0.80520  0.71210  0.22000  Biso   1.000  C
  H79      1.0000 0.84090  0.68530  0.23410  Biso   1.000  H
  C104     1.0000 0.83710  0.73750  0.18580  Biso   1.000  C
  H80      1.0000 0.89470  0.72820  0.17650  Biso   1.000  H
  O33      1.0000 0.89770  0.80920  0.12212  Biso   1.000  O
  O34      1.0000 0.76160  0.83123  0.10625  Biso   1.000  O
  O35      1.0000 0.60660  0.69230  0.27686  Biso   1.000  O
  O36      1.0000 0.74120  0.66560  0.29031  Biso   1.000  O
  C105     1.0000 0.68920  0.69290  0.26823  Biso   1.000  C
  C106     1.0000 0.71980  0.72090  0.23200  Biso   1.000  C
  C107     1.0000 0.66080  0.74640  0.20590  Biso   1.000  C
  C108     1.0000 0.81010  0.72290  0.22460  Biso   1.000  C
  N17      1.0000 0.57110  0.75230  0.21140  Biso   1.000  N
  C109     1.0000 0.69210  0.77380  0.17230  Biso   1.000  C
  H81      1.0000 0.85040  0.70550  0.24240  Biso   1.000  H
  C110     1.0000 0.84140  0.75030  0.19100  Biso   1.000  C
  H82      1.0000 0.54640  0.73930  0.23310  Biso   1.000  H
  H83      1.0000 0.53850  0.76900  0.19330  Biso   1.000  H
  H84      1.0000 0.65180  0.79120  0.15440  Biso   1.000  H
  C111     1.0000 0.78240  0.77580  0.16480  Biso   1.000  C
  H85      1.0000 0.90310  0.75170  0.18590  Biso   1.000  H
  C112     1.0000 0.81550  0.80620  0.12866  Biso   1.000  C
  N18      1.0000 0.91050  0.53840  0.47690  Biso   1.000  N
  H86      1.0000 0.93610  0.56710  0.46420  Biso   1.000  H
  H87      1.0000 0.93480  0.52450  0.49840  Biso   1.000  H
  C113     1.0000 0.79930  0.54030  0.42860  Biso   1.000  C
  H88      1.0000 0.83500  0.56700  0.41450  Biso   1.000  H
  C114     1.0000 0.83120  0.51480  0.46280  Biso   1.000  C
  C115     1.0000 0.77900  0.47570  0.48350  Biso   1.000  C
  C116     1.0000 0.69480  0.46210  0.47000  Biso   1.000  C
  H89      1.0000 0.65910  0.43530  0.48410  Biso   1.000  H
  C117     1.0000 0.66290  0.48750  0.43580  Biso   1.000  C
  H90      1.0000 0.60530  0.47820  0.42650  Biso   1.000  H
  O37      1.0000 0.89770  0.30920  0.62212  Biso   1.000  O
  O38      1.0000 0.76160  0.33123  0.60625  Biso   1.000  O
  O39      1.0000 0.60660  0.19230  0.77686  Biso   1.000  O
  O40      1.0000 0.74120  0.16560  0.79031  Biso   1.000  O
  C118     1.0000 0.68920  0.19290  0.76823  Biso   1.000  C
  C119     1.0000 0.71980  0.22090  0.73200  Biso   1.000  C
  C120     1.0000 0.66080  0.24640  0.70590  Biso   1.000  C
  C121     1.0000 0.81010  0.22290  0.72460  Biso   1.000  C
  N19      1.0000 0.57110  0.25230  0.71140  Biso   1.000  N
  C122     1.0000 0.69210  0.27380  0.67230  Biso   1.000  C
  H91      1.0000 0.85040  0.20550  0.74240  Biso   1.000  H
  C123     1.0000 0.84140  0.25030  0.69100  Biso   1.000  C
  H92      1.0000 0.54640  0.23930  0.73310  Biso   1.000  H
  H93      1.0000 0.53850  0.26900  0.69330  Biso   1.000  H
  H94      1.0000 0.65180  0.29120  0.65440  Biso   1.000  H
  C124     1.0000 0.78240  0.27580  0.66480  Biso   1.000  C
  H95      1.0000 0.90310  0.25170  0.68590  Biso   1.000  H
  C125     1.0000 0.81550  0.30620  0.62866  Biso   1.000  C
  N20      1.0000 0.91050  0.03840  0.97690  Biso   1.000  N
  H96      1.0000 0.93610  0.06710  0.96420  Biso   1.000  H
  H97      1.0000 0.93480  0.02450  0.99840  Biso   1.000  H
  C126     1.0000 0.79930  0.04030  0.92860  Biso   1.000  C
  H98      1.0000 0.83500  0.06700  0.91450  Biso   1.000  H
  C127     1.0000 0.83120  0.01480  0.96280  Biso   1.000  C
  C128     1.0000 0.77900  0.97570  0.98350  Biso   1.000  C
  C129     1.0000 0.69480  0.96210  0.97000  Biso   1.000  C
  H99      1.0000 0.65910  0.93530  0.98410  Biso   1.000  H
  C130     1.0000 0.66290  0.98750  0.93580  Biso   1.000  C
  H100     1.0000 0.60530  0.97820  0.92650  Biso   1.000  H
  O41      1.0000 0.39770  0.80920  0.62212  Biso   1.000  O
  O42      1.0000 0.26160  0.83123  0.60625  Biso   1.000  O
  O43      1.0000 0.10660  0.69230  0.77686  Biso   1.000  O
  O44      1.0000 0.24120  0.66560  0.79031  Biso   1.000  O
  C131     1.0000 0.18920  0.69290  0.76823  Biso   1.000  C
  C132     1.0000 0.21980  0.72090  0.73200  Biso   1.000  C
  C133     1.0000 0.16080  0.74640  0.70590  Biso   1.000  C
  C134     1.0000 0.31010  0.72290  0.72460  Biso   1.000  C
  N21      1.0000 0.07110  0.75230  0.71140  Biso   1.000  N
  C135     1.0000 0.19210  0.77380  0.67230  Biso   1.000  C
  H101     1.0000 0.35040  0.70550  0.74240  Biso   1.000  H
  C136     1.0000 0.34140  0.75030  0.69100  Biso   1.000  C
  H102     1.0000 0.04640  0.73930  0.73310  Biso   1.000  H
  H103     1.0000 0.03850  0.76900  0.69330  Biso   1.000  H
  H104     1.0000 0.15180  0.79120  0.65440  Biso   1.000  H
  C137     1.0000 0.28240  0.77580  0.66480  Biso   1.000  C
  H105     1.0000 0.40310  0.75170  0.68590  Biso   1.000  H
  C138     1.0000 0.31550  0.80620  0.62866  Biso   1.000  C
  N22      1.0000 0.41050  0.53840  0.97690  Biso   1.000  N
  H106     1.0000 0.43610  0.56710  0.96420  Biso   1.000  H
  H107     1.0000 0.43480  0.52450  0.99840  Biso   1.000  H
  C139     1.0000 0.29930  0.54030  0.92860  Biso   1.000  C
  H108     1.0000 0.33500  0.56700  0.91450  Biso   1.000  H
  C140     1.0000 0.33120  0.51480  0.96280  Biso   1.000  C
  C141     1.0000 0.27900  0.47570  0.98350  Biso   1.000  C
  C142     1.0000 0.19480  0.46210  0.97000  Biso   1.000  C
  H109     1.0000 0.15910  0.43530  0.98410  Biso   1.000  H
  C143     1.0000 0.16290  0.48750  0.93580  Biso   1.000  C
  H110     1.0000 0.10530  0.47820  0.92650  Biso   1.000  H
  O45      1.0000 0.39770  0.30920  0.12212  Biso   1.000  O
  O46      1.0000 0.26160  0.33123  0.10625  Biso   1.000  O
  O47      1.0000 0.10660  0.19230  0.27686  Biso   1.000  O
  O48      1.0000 0.24120  0.16560  0.29031  Biso   1.000  O
  C144     1.0000 0.18920  0.19290  0.26823  Biso   1.000  C
  C145     1.0000 0.21980  0.22090  0.23200  Biso   1.000  C
  C146     1.0000 0.16080  0.24640  0.20590  Biso   1.000  C
  C147     1.0000 0.31010  0.22290  0.22460  Biso   1.000  C
  N23      1.0000 0.07110  0.25230  0.21140  Biso   1.000  N
  C148     1.0000 0.19210  0.27380  0.17230  Biso   1.000  C
  H111     1.0000 0.35040  0.20550  0.24240  Biso   1.000  H
  C149     1.0000 0.34140  0.25030  0.19100  Biso   1.000  C
  H112     1.0000 0.04640  0.23930  0.23310  Biso   1.000  H
  H113     1.0000 0.03850  0.26900  0.19330  Biso   1.000  H
  H114     1.0000 0.15180  0.29120  0.15440  Biso   1.000  H
  C150     1.0000 0.28240  0.27580  0.16480  Biso   1.000  C
  H115     1.0000 0.40310  0.25170  0.18590  Biso   1.000  H
  C151     1.0000 0.31550  0.30620  0.12866  Biso   1.000  C
  N24      1.0000 0.41050  0.03840  0.47690  Biso   1.000  N
  H116     1.0000 0.43610  0.06710  0.46420  Biso   1.000  H
  H117     1.0000 0.43480  0.02450  0.49840  Biso   1.000  H
  C152     1.0000 0.29930  0.04030  0.42860  Biso   1.000  C
  H118     1.0000 0.33500  0.06700  0.41450  Biso   1.000  H
  C153     1.0000 0.33120  0.01480  0.46280  Biso   1.000  C
  C154     1.0000 0.27900  0.97570  0.48350  Biso   1.000  C
  C155     1.0000 0.19480  0.96210  0.47000  Biso   1.000  C
  H119     1.0000 0.15910  0.93530  0.48410  Biso   1.000  H
  C156     1.0000 0.16290  0.98750  0.43580  Biso   1.000  C
  H120     1.0000 0.10530  0.97820  0.42650  Biso   1.000  H
  O49      1.0000 0.35230  0.44080  0.12212  Biso   1.000  O
  O50      1.0000 0.48840  0.41877  0.10625  Biso   1.000  O
  O51      1.0000 0.64340  0.55770  0.27686  Biso   1.000  O
  O52      1.0000 0.50880  0.58440  0.29031  Biso   1.000  O
  C157     1.0000 0.56080  0.55710  0.26823  Biso   1.000  C
  C158     1.0000 0.53020  0.52910  0.23200  Biso   1.000  C
  C159     1.0000 0.58920  0.50360  0.20590  Biso   1.000  C
  C160     1.0000 0.43990  0.52710  0.22460  Biso   1.000  C
  N25      1.0000 0.67890  0.49770  0.21140  Biso   1.000  N
  C161     1.0000 0.55790  0.47620  0.17230  Biso   1.000  C
  H121     1.0000 0.39960  0.54450  0.24240  Biso   1.000  H
  C162     1.0000 0.40860  0.49970  0.19100  Biso   1.000  C
  H122     1.0000 0.70360  0.51070  0.23310  Biso   1.000  H
  H123     1.0000 0.71150  0.48100  0.19330  Biso   1.000  H
  H124     1.0000 0.59820  0.45880  0.15440  Biso   1.000  H
  C163     1.0000 0.46760  0.47420  0.16480  Biso   1.000  C
  H125     1.0000 0.34690  0.49830  0.18590  Biso   1.000  H
  C164     1.0000 0.43450  0.44380  0.12866  Biso   1.000  C
  N26      1.0000 0.33950  0.71160  0.47690  Biso   1.000  N
  H126     1.0000 0.31390  0.68290  0.46420  Biso   1.000  H
  H127     1.0000 0.31520  0.72550  0.49840  Biso   1.000  H
  C165     1.0000 0.45070  0.70970  0.42860  Biso   1.000  C
  H128     1.0000 0.41500  0.68300  0.41450  Biso   1.000  H
  C166     1.0000 0.41880  0.73520  0.46280  Biso   1.000  C
  C167     1.0000 0.47100  0.77430  0.48350  Biso   1.000  C
  C168     1.0000 0.55520  0.78790  0.47000  Biso   1.000  C
  H129     1.0000 0.59090  0.81470  0.48410  Biso   1.000  H
  C169     1.0000 0.58710  0.76250  0.43580  Biso   1.000  C
  H130     1.0000 0.64470  0.77180  0.42650  Biso   1.000  H
  O53      1.0000 0.35230  0.94080  0.62212  Biso   1.000  O
  O54      1.0000 0.48840  0.91877  0.60625  Biso   1.000  O
  O55      1.0000 0.64340  0.05770  0.77686  Biso   1.000  O
  O56      1.0000 0.50880  0.08440  0.79031  Biso   1.000  O
  C170     1.0000 0.56080  0.05710  0.76823  Biso   1.000  C
  C171     1.0000 0.53020  0.02910  0.73200  Biso   1.000  C
  C172     1.0000 0.58920  0.00360  0.70590  Biso   1.000  C
  C173     1.0000 0.43990  0.02710  0.72460  Biso   1.000  C
  N27      1.0000 0.67890  0.99770  0.71140  Biso   1.000  N
  C174     1.0000 0.55790  0.97620  0.67230  Biso   1.000  C
  H131     1.0000 0.39960  0.04450  0.74240  Biso   1.000  H
  C175     1.0000 0.40860  0.99970  0.69100  Biso   1.000  C
  H132     1.0000 0.70360  0.01070  0.73310  Biso   1.000  H
  H133     1.0000 0.71150  0.98100  0.69330  Biso   1.000  H
  H134     1.0000 0.59820  0.95880  0.65440  Biso   1.000  H
  C176     1.0000 0.46760  0.97420  0.66480  Biso   1.000  C
  H135     1.0000 0.34690  0.99830  0.68590  Biso   1.000  H
  C177     1.0000 0.43450  0.94380  0.62866  Biso   1.000  C
  N28      1.0000 0.33950  0.21160  0.97690  Biso   1.000  N
  H136     1.0000 0.31390  0.18290  0.96420  Biso   1.000  H
  H137     1.0000 0.31520  0.22550  0.99840  Biso   1.000  H
  C178     1.0000 0.45070  0.20970  0.92860  Biso   1.000  C
  H138     1.0000 0.41500  0.18300  0.91450  Biso   1.000  H
  C179     1.0000 0.41880  0.23520  0.96280  Biso   1.000  C
  C180     1.0000 0.47100  0.27430  0.98350  Biso   1.000  C
  C181     1.0000 0.55520  0.28790  0.97000  Biso   1.000  C
  H139     1.0000 0.59090  0.31470  0.98410  Biso   1.000  H
  C182     1.0000 0.58710  0.26250  0.93580  Biso   1.000  C
  H140     1.0000 0.64470  0.27180  0.92650  Biso   1.000  H
  O57      1.0000 0.85230  0.44080  0.62212  Biso   1.000  O
  O58      1.0000 0.98840  0.41877  0.60625  Biso   1.000  O
  O59      1.0000 0.14340  0.55770  0.77686  Biso   1.000  O
  O60      1.0000 0.00880  0.58440  0.79031  Biso   1.000  O
  C183     1.0000 0.06080  0.55710  0.76823  Biso   1.000  C
  C184     1.0000 0.03020  0.52910  0.73200  Biso   1.000  C
  C185     1.0000 0.08920  0.50360  0.70590  Biso   1.000  C
  C186     1.0000 0.93990  0.52710  0.72460  Biso   1.000  C
  N29      1.0000 0.17890  0.49770  0.71140  Biso   1.000  N
  C187     1.0000 0.05790  0.47620  0.67230  Biso   1.000  C
  H141     1.0000 0.89960  0.54450  0.74240  Biso   1.000  H
  C188     1.0000 0.90860  0.49970  0.69100  Biso   1.000  C
  H142     1.0000 0.20360  0.51070  0.73310  Biso   1.000  H
  H143     1.0000 0.21150  0.48100  0.69330  Biso   1.000  H
  H144     1.0000 0.09820  0.45880  0.65440  Biso   1.000  H
  C189     1.0000 0.96760  0.47420  0.66480  Biso   1.000  C
  H145     1.0000 0.84690  0.49830  0.68590  Biso   1.000  H
  C190     1.0000 0.93450  0.44380  0.62866  Biso   1.000  C
  N30      1.0000 0.83950  0.71160  0.97690  Biso   1.000  N
  H146     1.0000 0.81390  0.68290  0.96420  Biso   1.000  H
  H147     1.0000 0.81520  0.72550  0.99840  Biso   1.000  H
  C191     1.0000 0.95070  0.70970  0.92860  Biso   1.000  C
  H148     1.0000 0.91500  0.68300  0.91450  Biso   1.000  H
  C192     1.0000 0.91880  0.73520  0.96280  Biso   1.000  C
  C193     1.0000 0.97100  0.77430  0.98350  Biso   1.000  C
  C194     1.0000 0.05520  0.78790  0.97000  Biso   1.000  C
  H149     1.0000 0.09090  0.81470  0.98410  Biso   1.000  H
  C195     1.0000 0.08710  0.76250  0.93580  Biso   1.000  C
  H150     1.0000 0.14470  0.77180  0.92650  Biso   1.000  H
  O61      1.0000 0.85230  0.94080  0.12212  Biso   1.000  O
  O62      1.0000 0.98840  0.91877  0.10625  Biso   1.000  O
  O63      1.0000 0.14340  0.05770  0.27686  Biso   1.000  O
  O64      1.0000 0.00880  0.08440  0.29031  Biso   1.000  O
  C196     1.0000 0.06080  0.05710  0.26823  Biso   1.000  C
  C197     1.0000 0.03020  0.02910  0.23200  Biso   1.000  C
  C198     1.0000 0.08920  0.00360  0.20590  Biso   1.000  C
  C199     1.0000 0.93990  0.02710  0.22460  Biso   1.000  C
  N31      1.0000 0.17890  0.99770  0.21140  Biso   1.000  N
  C200     1.0000 0.05790  0.97620  0.17230  Biso   1.000  C
  H151     1.0000 0.89960  0.04450  0.24240  Biso   1.000  H
  C201     1.0000 0.90860  0.99970  0.19100  Biso   1.000  C
  H152     1.0000 0.20360  0.01070  0.23310  Biso   1.000  H
  H153     1.0000 0.21150  0.98100  0.19330  Biso   1.000  H
  H154     1.0000 0.09820  0.95880  0.15440  Biso   1.000  H
  C202     1.0000 0.96760  0.97420  0.16480  Biso   1.000  C
  H155     1.0000 0.84690  0.99830  0.18590  Biso   1.000  H
  C203     1.0000 0.93450  0.94380  0.12866  Biso   1.000  C
  N32      1.0000 0.83950  0.21160  0.47690  Biso   1.000  N
  H156     1.0000 0.81390  0.18290  0.46420  Biso   1.000  H
  H157     1.0000 0.81520  0.22550  0.49840  Biso   1.000  H
  C204     1.0000 0.95070  0.20970  0.42860  Biso   1.000  C
  H158     1.0000 0.91500  0.18300  0.41450  Biso   1.000  H
  C205     1.0000 0.91880  0.23520  0.46280  Biso   1.000  C
  C206     1.0000 0.97100  0.27430  0.48350  Biso   1.000  C
  C207     1.0000 0.05520  0.28790  0.47000  Biso   1.000  C
  H159     1.0000 0.09090  0.31470  0.48410  Biso   1.000  H
  C208     1.0000 0.08710  0.26250  0.43580  Biso   1.000  C
  H160     1.0000 0.14470  0.27180  0.42650  Biso   1.000  H
  In1      1.0000 0.37500  0.37500  0.07344  Biso   1.000  In
  In2      1.0000 0.37500  0.87500  0.57344  Biso   1.000  In
  In3      1.0000 0.87500  0.37500  0.57344  Biso   1.000  In
  In4      1.0000 0.87500  0.87500  0.07344  Biso   1.000  In
  In5      1.0000 0.62500  0.62500  0.32344  Biso   1.000  In
  In6      1.0000 0.62500  0.12500  0.82344  Biso   1.000  In
  In7      1.0000 0.12500  0.62500  0.82344  Biso   1.000  In
  In8      1.0000 0.12500  0.12500  0.32344  Biso   1.000  In
  O65      1.0000 0.10230  0.19080  0.87788  Biso   1.000  O
  O66      1.0000 0.23840  0.16877  0.89375  Biso   1.000  O
  O67      1.0000 0.39340  0.30770  0.72314  Biso   1.000  O
  O68      1.0000 0.25880  0.33440  0.70969  Biso   1.000  O
  C209     1.0000 0.31080  0.30710  0.73177  Biso   1.000  C
  C210     1.0000 0.28020  0.27910  0.76800  Biso   1.000  C
  C211     1.0000 0.33920  0.25360  0.79410  Biso   1.000  C
  C212     1.0000 0.18990  0.27710  0.77540  Biso   1.000  C
  N33      1.0000 0.42890  0.24770  0.78860  Biso   1.000  N
  C213     1.0000 0.30790  0.22620  0.82770  Biso   1.000  C
  H161     1.0000 0.14960  0.29450  0.75760  Biso   1.000  H
  C214     1.0000 0.15860  0.24970  0.80900  Biso   1.000  C
  H162     1.0000 0.45360  0.26070  0.76690  Biso   1.000  H
  H163     1.0000 0.46150  0.23100  0.80670  Biso   1.000  H
  H164     1.0000 0.34820  0.20880  0.84560  Biso   1.000  H
  C215     1.0000 0.21760  0.22420  0.83520  Biso   1.000  C
  H165     1.0000 0.09690  0.24830  0.81410  Biso   1.000  H
  C216     1.0000 0.18450  0.19380  0.87134  Biso   1.000  C
  N34      1.0000 0.08950  0.46160  0.52310  Biso   1.000  N
  H166     1.0000 0.06390  0.43290  0.53580  Biso   1.000  H
  H167     1.0000 0.06520  0.47550  0.50160  Biso   1.000  H
  C217     1.0000 0.20070  0.45970  0.57140  Biso   1.000  C
  H168     1.0000 0.16500  0.43300  0.58550  Biso   1.000  H
  C218     1.0000 0.16880  0.48520  0.53720  Biso   1.000  C
  C219     1.0000 0.22100  0.52430  0.51650  Biso   1.000  C
  C220     1.0000 0.30520  0.53790  0.53000  Biso   1.000  C
  H169     1.0000 0.34090  0.56470  0.51590  Biso   1.000  H
  C221     1.0000 0.33710  0.51250  0.56420  Biso   1.000  C
  H170     1.0000 0.39470  0.52180  0.57350  Biso   1.000  H
  O69      1.0000 0.10230  0.69080  0.37788  Biso   1.000  O
  O70      1.0000 0.23840  0.66877  0.39375  Biso   1.000  O
  O71      1.0000 0.39340  0.80770  0.22314  Biso   1.000  O
  O72      1.0000 0.25880  0.83440  0.20969  Biso   1.000  O
  C222     1.0000 0.31080  0.80710  0.23177  Biso   1.000  C
  C223     1.0000 0.28020  0.77910  0.26800  Biso   1.000  C
  C224     1.0000 0.33920  0.75360  0.29410  Biso   1.000  C
  C225     1.0000 0.18990  0.77710  0.27540  Biso   1.000  C
  N35      1.0000 0.42890  0.74770  0.28860  Biso   1.000  N
  C226     1.0000 0.30790  0.72620  0.32770  Biso   1.000  C
  H171     1.0000 0.14960  0.79450  0.25760  Biso   1.000  H
  C227     1.0000 0.15860  0.74970  0.30900  Biso   1.000  C
  H172     1.0000 0.45360  0.76070  0.26690  Biso   1.000  H
  H173     1.0000 0.46150  0.73100  0.30670  Biso   1.000  H
  H174     1.0000 0.34820  0.70880  0.34560  Biso   1.000  H
  C228     1.0000 0.21760  0.72420  0.33520  Biso   1.000  C
  H175     1.0000 0.09690  0.74830  0.31410  Biso   1.000  H
  C229     1.0000 0.18450  0.69380  0.37134  Biso   1.000  C
  N36      1.0000 0.08950  0.96160  0.02310  Biso   1.000  N
  H176     1.0000 0.06390  0.93290  0.03580  Biso   1.000  H
  H177     1.0000 0.06520  0.97550  0.00160  Biso   1.000  H
  C230     1.0000 0.20070  0.95970  0.07140  Biso   1.000  C
  H178     1.0000 0.16500  0.93300  0.08550  Biso   1.000  H
  C231     1.0000 0.16880  0.98520  0.03720  Biso   1.000  C
  C232     1.0000 0.22100  0.02430  0.01650  Biso   1.000  C
  C233     1.0000 0.30520  0.03790  0.03000  Biso   1.000  C
  H179     1.0000 0.34090  0.06470  0.01590  Biso   1.000  H
  C234     1.0000 0.33710  0.01250  0.06420  Biso   1.000  C
  H180     1.0000 0.39470  0.02180  0.07350  Biso   1.000  H
  O73      1.0000 0.60230  0.19080  0.37788  Biso   1.000  O
  O74      1.0000 0.73840  0.16877  0.39375  Biso   1.000  O
  O75      1.0000 0.89340  0.30770  0.22314  Biso   1.000  O
  O76      1.0000 0.75880  0.33440  0.20969  Biso   1.000  O
  C235     1.0000 0.81080  0.30710  0.23177  Biso   1.000  C
  C236     1.0000 0.78020  0.27910  0.26800  Biso   1.000  C
  C237     1.0000 0.83920  0.25360  0.29410  Biso   1.000  C
  C238     1.0000 0.68990  0.27710  0.27540  Biso   1.000  C
  N37      1.0000 0.92890  0.24770  0.28860  Biso   1.000  N
  C239     1.0000 0.80790  0.22620  0.32770  Biso   1.000  C
  H181     1.0000 0.64960  0.29450  0.25760  Biso   1.000  H
  C240     1.0000 0.65860  0.24970  0.30900  Biso   1.000  C
  H182     1.0000 0.95360  0.26070  0.26690  Biso   1.000  H
  H183     1.0000 0.96150  0.23100  0.30670  Biso   1.000  H
  H184     1.0000 0.84820  0.20880  0.34560  Biso   1.000  H
  C241     1.0000 0.71760  0.22420  0.33520  Biso   1.000  C
  H185     1.0000 0.59690  0.24830  0.31410  Biso   1.000  H
  C242     1.0000 0.68450  0.19380  0.37134  Biso   1.000  C
  N38      1.0000 0.58950  0.46160  0.02310  Biso   1.000  N
  H186     1.0000 0.56390  0.43290  0.03580  Biso   1.000  H
  H187     1.0000 0.56520  0.47550  0.00160  Biso   1.000  H
  C243     1.0000 0.70070  0.45970  0.07140  Biso   1.000  C
  H188     1.0000 0.66500  0.43300  0.08550  Biso   1.000  H
  C244     1.0000 0.66880  0.48520  0.03720  Biso   1.000  C
  C245     1.0000 0.72100  0.52430  0.01650  Biso   1.000  C
  C246     1.0000 0.80520  0.53790  0.03000  Biso   1.000  C
  H189     1.0000 0.84090  0.56470  0.01590  Biso   1.000  H
  C247     1.0000 0.83710  0.51250  0.06420  Biso   1.000  C
  H190     1.0000 0.89470  0.52180  0.07350  Biso   1.000  H
  O77      1.0000 0.60230  0.69080  0.87788  Biso   1.000  O
  O78      1.0000 0.73840  0.66877  0.89375  Biso   1.000  O
  O79      1.0000 0.89340  0.80770  0.72314  Biso   1.000  O
  O80      1.0000 0.75880  0.83440  0.70969  Biso   1.000  O
  C248     1.0000 0.81080  0.80710  0.73177  Biso   1.000  C
  C249     1.0000 0.78020  0.77910  0.76800  Biso   1.000  C
  C250     1.0000 0.83920  0.75360  0.79410  Biso   1.000  C
  C251     1.0000 0.68990  0.77710  0.77540  Biso   1.000  C
  N39      1.0000 0.92890  0.74770  0.78860  Biso   1.000  N
  C252     1.0000 0.80790  0.72620  0.82770  Biso   1.000  C
  H191     1.0000 0.64960  0.79450  0.75760  Biso   1.000  H
  C253     1.0000 0.65860  0.74970  0.80900  Biso   1.000  C
  H192     1.0000 0.95360  0.76070  0.76690  Biso   1.000  H
  H193     1.0000 0.96150  0.73100  0.80670  Biso   1.000  H
  H194     1.0000 0.84820  0.70880  0.84560  Biso   1.000  H
  C254     1.0000 0.71760  0.72420  0.83520  Biso   1.000  C
  H195     1.0000 0.59690  0.74830  0.81410  Biso   1.000  H
  C255     1.0000 0.68450  0.69380  0.87134  Biso   1.000  C
  N40      1.0000 0.58950  0.96160  0.52310  Biso   1.000  N
  H196     1.0000 0.56390  0.93290  0.53580  Biso   1.000  H
  H197     1.0000 0.56520  0.97550  0.50160  Biso   1.000  H
  C256     1.0000 0.70070  0.95970  0.57140  Biso   1.000  C
  H198     1.0000 0.66500  0.93300  0.58550  Biso   1.000  H
  C257     1.0000 0.66880  0.98520  0.53720  Biso   1.000  C
  C258     1.0000 0.72100  0.02430  0.51650  Biso   1.000  C
  C259     1.0000 0.80520  0.03790  0.53000  Biso   1.000  C
  H199     1.0000 0.84090  0.06470  0.51590  Biso   1.000  H
  C260     1.0000 0.83710  0.01250  0.56420  Biso   1.000  C
  H200     1.0000 0.89470  0.02180  0.57350  Biso   1.000  H
  O81      1.0000 0.64770  0.55920  0.87788  Biso   1.000  O
  O82      1.0000 0.51160  0.58123  0.89375  Biso   1.000  O
  O83      1.0000 0.35660  0.44230  0.72314  Biso   1.000  O
  O84      1.0000 0.49120  0.41560  0.70969  Biso   1.000  O
  C261     1.0000 0.43920  0.44290  0.73177  Biso   1.000  C
  C262     1.0000 0.46980  0.47090  0.76800  Biso   1.000  C
  C263     1.0000 0.41080  0.49640  0.79410  Biso   1.000  C
  C264     1.0000 0.56010  0.47290  0.77540  Biso   1.000  C
  N41      1.0000 0.32110  0.50230  0.78860  Biso   1.000  N
  C265     1.0000 0.44210  0.52380  0.82770  Biso   1.000  C
  H201     1.0000 0.60040  0.45550  0.75760  Biso   1.000  H
  C266     1.0000 0.59140  0.50030  0.80900  Biso   1.000  C
  H202     1.0000 0.29640  0.48930  0.76690  Biso   1.000  H
  H203     1.0000 0.28850  0.51900  0.80670  Biso   1.000  H
  H204     1.0000 0.40180  0.54120  0.84560  Biso   1.000  H
  C267     1.0000 0.53240  0.52580  0.83520  Biso   1.000  C
  H205     1.0000 0.65310  0.50170  0.81410  Biso   1.000  H
  C268     1.0000 0.56550  0.55620  0.87134  Biso   1.000  C
  N42      1.0000 0.66050  0.28840  0.52310  Biso   1.000  N
  H206     1.0000 0.68610  0.31710  0.53580  Biso   1.000  H
  H207     1.0000 0.68480  0.27450  0.50160  Biso   1.000  H
  C269     1.0000 0.54930  0.29030  0.57140  Biso   1.000  C
  H208     1.0000 0.58500  0.31700  0.58550  Biso   1.000  H
  C270     1.0000 0.58120  0.26480  0.53720  Biso   1.000  C
  C271     1.0000 0.52900  0.22570  0.51650  Biso   1.000  C
  C272     1.0000 0.44480  0.21210  0.53000  Biso   1.000  C
  H209     1.0000 0.40910  0.18530  0.51590  Biso   1.000  H
  C273     1.0000 0.41290  0.23750  0.56420  Biso   1.000  C
  H210     1.0000 0.35530  0.22820  0.57350  Biso   1.000  H
  O85      1.0000 0.64770  0.05920  0.37788  Biso   1.000  O
  O86      1.0000 0.51160  0.08123  0.39375  Biso   1.000  O
  O87      1.0000 0.35660  0.94230  0.22314  Biso   1.000  O
  O88      1.0000 0.49120  0.91560  0.20969  Biso   1.000  O
  C274     1.0000 0.43920  0.94290  0.23177  Biso   1.000  C
  C275     1.0000 0.46980  0.97090  0.26800  Biso   1.000  C
  C276     1.0000 0.41080  0.99640  0.29410  Biso   1.000  C
  C277     1.0000 0.56010  0.97290  0.27540  Biso   1.000  C
  N43      1.0000 0.32110  0.00230  0.28860  Biso   1.000  N
  C278     1.0000 0.44210  0.02380  0.32770  Biso   1.000  C
  H211     1.0000 0.60040  0.95550  0.25760  Biso   1.000  H
  C279     1.0000 0.59140  0.00030  0.30900  Biso   1.000  C
  H212     1.0000 0.29640  0.98930  0.26690  Biso   1.000  H
  H213     1.0000 0.28850  0.01900  0.30670  Biso   1.000  H
  H214     1.0000 0.40180  0.04120  0.34560  Biso   1.000  H
  C280     1.0000 0.53240  0.02580  0.33520  Biso   1.000  C
  H215     1.0000 0.65310  0.00170  0.31410  Biso   1.000  H
  C281     1.0000 0.56550  0.05620  0.37134  Biso   1.000  C
  N44      1.0000 0.66050  0.78840  0.02310  Biso   1.000  N
  H216     1.0000 0.68610  0.81710  0.03580  Biso   1.000  H
  H217     1.0000 0.68480  0.77450  0.00160  Biso   1.000  H
  C282     1.0000 0.54930  0.79030  0.07140  Biso   1.000  C
  H218     1.0000 0.58500  0.81700  0.08550  Biso   1.000  H
  C283     1.0000 0.58120  0.76480  0.03720  Biso   1.000  C
  C284     1.0000 0.52900  0.72570  0.01650  Biso   1.000  C
  C285     1.0000 0.44480  0.71210  0.03000  Biso   1.000  C
  H219     1.0000 0.40910  0.68530  0.01590  Biso   1.000  H
  C286     1.0000 0.41290  0.73750  0.06420  Biso   1.000  C
  H220     1.0000 0.35530  0.72820  0.07350  Biso   1.000  H
  O89      1.0000 0.14770  0.55920  0.37788  Biso   1.000  O
  O90      1.0000 0.01160  0.58123  0.39375  Biso   1.000  O
  O91      1.0000 0.85660  0.44230  0.22314  Biso   1.000  O
  O92      1.0000 0.99120  0.41560  0.20969  Biso   1.000  O
  C287     1.0000 0.93920  0.44290  0.23177  Biso   1.000  C
  C288     1.0000 0.96980  0.47090  0.26800  Biso   1.000  C
  C289     1.0000 0.91080  0.49640  0.29410  Biso   1.000  C
  C290     1.0000 0.06010  0.47290  0.27540  Biso   1.000  C
  N45      1.0000 0.82110  0.50230  0.28860  Biso   1.000  N
  C291     1.0000 0.94210  0.52380  0.32770  Biso   1.000  C
  H221     1.0000 0.10040  0.45550  0.25760  Biso   1.000  H
  C292     1.0000 0.09140  0.50030  0.30900  Biso   1.000  C
  H222     1.0000 0.79640  0.48930  0.26690  Biso   1.000  H
  H223     1.0000 0.78850  0.51900  0.30670  Biso   1.000  H
  H224     1.0000 0.90180  0.54120  0.34560  Biso   1.000  H
  C293     1.0000 0.03240  0.52580  0.33520  Biso   1.000  C
  H225     1.0000 0.15310  0.50170  0.31410  Biso   1.000  H
  C294     1.0000 0.06550  0.55620  0.37134  Biso   1.000  C
  N46      1.0000 0.16050  0.28840  0.02310  Biso   1.000  N
  H226     1.0000 0.18610  0.31710  0.03580  Biso   1.000  H
  H227     1.0000 0.18480  0.27450  0.00160  Biso   1.000  H
  C295     1.0000 0.04930  0.29030  0.07140  Biso   1.000  C
  H228     1.0000 0.08500  0.31700  0.08550  Biso   1.000  H
  C296     1.0000 0.08120  0.26480  0.03720  Biso   1.000  C
  C297     1.0000 0.02900  0.22570  0.01650  Biso   1.000  C
  C298     1.0000 0.94480  0.21210  0.03000  Biso   1.000  C
  H229     1.0000 0.90910  0.18530  0.01590  Biso   1.000  H
  C299     1.0000 0.91290  0.23750  0.06420  Biso   1.000  C
  H230     1.0000 0.85530  0.22820  0.07350  Biso   1.000  H
  O93      1.0000 0.14770  0.05920  0.87788  Biso   1.000  O
  O94      1.0000 0.01160  0.08123  0.89375  Biso   1.000  O
  O95      1.0000 0.85660  0.94230  0.72314  Biso   1.000  O
  O96      1.0000 0.99120  0.91560  0.70969  Biso   1.000  O
  C300     1.0000 0.93920  0.94290  0.73177  Biso   1.000  C
  C301     1.0000 0.96980  0.97090  0.76800  Biso   1.000  C
  C302     1.0000 0.91080  0.99640  0.79410  Biso   1.000  C
  C303     1.0000 0.06010  0.97290  0.77540  Biso   1.000  C
  N47      1.0000 0.82110  0.00230  0.78860  Biso   1.000  N
  C304     1.0000 0.94210  0.02380  0.82770  Biso   1.000  C
  H231     1.0000 0.10040  0.95550  0.75760  Biso   1.000  H
  C305     1.0000 0.09140  0.00030  0.80900  Biso   1.000  C
  H232     1.0000 0.79640  0.98930  0.76690  Biso   1.000  H
  H233     1.0000 0.78850  0.01900  0.80670  Biso   1.000  H
  H234     1.0000 0.90180  0.04120  0.84560  Biso   1.000  H
  C306     1.0000 0.03240  0.02580  0.83520  Biso   1.000  C
  H235     1.0000 0.15310  0.00170  0.81410  Biso   1.000  H
  C307     1.0000 0.06550  0.05620  0.87134  Biso   1.000  C
  N48      1.0000 0.16050  0.78840  0.52310  Biso   1.000  N
  H236     1.0000 0.18610  0.81710  0.53580  Biso   1.000  H
  H237     1.0000 0.18480  0.77450  0.50160  Biso   1.000  H
  C308     1.0000 0.04930  0.79030  0.57140  Biso   1.000  C
  H238     1.0000 0.08500  0.81700  0.58550  Biso   1.000  H
  C309     1.0000 0.08120  0.76480  0.53720  Biso   1.000  C
  C310     1.0000 0.02900  0.72570  0.51650  Biso   1.000  C
  C311     1.0000 0.94480  0.71210  0.53000  Biso   1.000  C
  H239     1.0000 0.90910  0.68530  0.51590  Biso   1.000  H
  C312     1.0000 0.91290  0.73750  0.56420  Biso   1.000  C
  H240     1.0000 0.85530  0.72820  0.57350  Biso   1.000  H
  O97      1.0000 0.35230  0.80920  0.12788  Biso   1.000  O
  O98      1.0000 0.48840  0.83123  0.14375  Biso   1.000  O
  O99      1.0000 0.64340  0.69230  0.97314  Biso   1.000  O
  O100     1.0000 0.50880  0.66560  0.95969  Biso   1.000  O
  C313     1.0000 0.56080  0.69290  0.98177  Biso   1.000  C
  C314     1.0000 0.53020  0.72090  0.01800  Biso   1.000  C
  C315     1.0000 0.58920  0.74640  0.04410  Biso   1.000  C
  C316     1.0000 0.43990  0.72290  0.02540  Biso   1.000  C
  N49      1.0000 0.67890  0.75230  0.03860  Biso   1.000  N
  C317     1.0000 0.55790  0.77380  0.07770  Biso   1.000  C
  H241     1.0000 0.39960  0.70550  0.00760  Biso   1.000  H
  C318     1.0000 0.40860  0.75030  0.05900  Biso   1.000  C
  H242     1.0000 0.70360  0.73930  0.01690  Biso   1.000  H
  H243     1.0000 0.71150  0.76900  0.05670  Biso   1.000  H
  H244     1.0000 0.59820  0.79120  0.09560  Biso   1.000  H
  C319     1.0000 0.46760  0.77580  0.08520  Biso   1.000  C
  H245     1.0000 0.34690  0.75170  0.06410  Biso   1.000  H
  C320     1.0000 0.43450  0.80620  0.12134  Biso   1.000  C
  N50      1.0000 0.33950  0.53840  0.77310  Biso   1.000  N
  H246     1.0000 0.31390  0.56710  0.78580  Biso   1.000  H
  H247     1.0000 0.31520  0.52450  0.75160  Biso   1.000  H
  C321     1.0000 0.45070  0.54030  0.82140  Biso   1.000  C
  H248     1.0000 0.41500  0.56700  0.83550  Biso   1.000  H
  C322     1.0000 0.41880  0.51480  0.78720  Biso   1.000  C
  C323     1.0000 0.47100  0.47570  0.76650  Biso   1.000  C
  C324     1.0000 0.55520  0.46210  0.78000  Biso   1.000  C
  H249     1.0000 0.59090  0.43530  0.76590  Biso   1.000  H
  C325     1.0000 0.58710  0.48750  0.81420  Biso   1.000  C
  H250     1.0000 0.64470  0.47820  0.82350  Biso   1.000  H
  O101     1.0000 0.35230  0.30920  0.62788  Biso   1.000  O
  O102     1.0000 0.48840  0.33123  0.64375  Biso   1.000  O
  O103     1.0000 0.64340  0.19230  0.47314  Biso   1.000  O
  O104     1.0000 0.50880  0.16560  0.45969  Biso   1.000  O
  C326     1.0000 0.56080  0.19290  0.48177  Biso   1.000  C
  C327     1.0000 0.53020  0.22090  0.51800  Biso   1.000  C
  C328     1.0000 0.58920  0.24640  0.54410  Biso   1.000  C
  C329     1.0000 0.43990  0.22290  0.52540  Biso   1.000  C
  N51      1.0000 0.67890  0.25230  0.53860  Biso   1.000  N
  C330     1.0000 0.55790  0.27380  0.57770  Biso   1.000  C
  H251     1.0000 0.39960  0.20550  0.50760  Biso   1.000  H
  C331     1.0000 0.40860  0.25030  0.55900  Biso   1.000  C
  H252     1.0000 0.70360  0.23930  0.51690  Biso   1.000  H
  H253     1.0000 0.71150  0.26900  0.55670  Biso   1.000  H
  H254     1.0000 0.59820  0.29120  0.59560  Biso   1.000  H
  C332     1.0000 0.46760  0.27580  0.58520  Biso   1.000  C
  H255     1.0000 0.34690  0.25170  0.56410  Biso   1.000  H
  C333     1.0000 0.43450  0.30620  0.62134  Biso   1.000  C
  N52      1.0000 0.33950  0.03840  0.27310  Biso   1.000  N
  H256     1.0000 0.31390  0.06710  0.28580  Biso   1.000  H
  H257     1.0000 0.31520  0.02450  0.25160  Biso   1.000  H
  C334     1.0000 0.45070  0.04030  0.32140  Biso   1.000  C
  H258     1.0000 0.41500  0.06700  0.33550  Biso   1.000  H
  C335     1.0000 0.41880  0.01480  0.28720  Biso   1.000  C
  C336     1.0000 0.47100  0.97570  0.26650  Biso   1.000  C
  C337     1.0000 0.55520  0.96210  0.28000  Biso   1.000  C
  H259     1.0000 0.59090  0.93530  0.26590  Biso   1.000  H
  C338     1.0000 0.58710  0.98750  0.31420  Biso   1.000  C
  H260     1.0000 0.64470  0.97820  0.32350  Biso   1.000  H
  O105     1.0000 0.85230  0.80920  0.62788  Biso   1.000  O
  O106     1.0000 0.98840  0.83123  0.64375  Biso   1.000  O
  O107     1.0000 0.14340  0.69230  0.47314  Biso   1.000  O
  O108     1.0000 0.00880  0.66560  0.45969  Biso   1.000  O
  C339     1.0000 0.06080  0.69290  0.48177  Biso   1.000  C
  C340     1.0000 0.03020  0.72090  0.51800  Biso   1.000  C
  C341     1.0000 0.08920  0.74640  0.54410  Biso   1.000  C
  C342     1.0000 0.93990  0.72290  0.52540  Biso   1.000  C
  N53      1.0000 0.17890  0.75230  0.53860  Biso   1.000  N
  C343     1.0000 0.05790  0.77380  0.57770  Biso   1.000  C
  H261     1.0000 0.89960  0.70550  0.50760  Biso   1.000  H
  C344     1.0000 0.90860  0.75030  0.55900  Biso   1.000  C
  H262     1.0000 0.20360  0.73930  0.51690  Biso   1.000  H
  H263     1.0000 0.21150  0.76900  0.55670  Biso   1.000  H
  H264     1.0000 0.09820  0.79120  0.59560  Biso   1.000  H
  C345     1.0000 0.96760  0.77580  0.58520  Biso   1.000  C
  H265     1.0000 0.84690  0.75170  0.56410  Biso   1.000  H
  C346     1.0000 0.93450  0.80620  0.62134  Biso   1.000  C
  N54      1.0000 0.83950  0.53840  0.27310  Biso   1.000  N
  H266     1.0000 0.81390  0.56710  0.28580  Biso   1.000  H
  H267     1.0000 0.81520  0.52450  0.25160  Biso   1.000  H
  C347     1.0000 0.95070  0.54030  0.32140  Biso   1.000  C
  H268     1.0000 0.91500  0.56700  0.33550  Biso   1.000  H
  C348     1.0000 0.91880  0.51480  0.28720  Biso   1.000  C
  C349     1.0000 0.97100  0.47570  0.26650  Biso   1.000  C
  C350     1.0000 0.05520  0.46210  0.28000  Biso   1.000  C
  H269     1.0000 0.09090  0.43530  0.26590  Biso   1.000  H
  C351     1.0000 0.08710  0.48750  0.31420  Biso   1.000  C
  H270     1.0000 0.14470  0.47820  0.32350  Biso   1.000  H
  O109     1.0000 0.85230  0.30920  0.12788  Biso   1.000  O
  O110     1.0000 0.98840  0.33123  0.14375  Biso   1.000  O
  O111     1.0000 0.14340  0.19230  0.97314  Biso   1.000  O
  O112     1.0000 0.00880  0.16560  0.95969  Biso   1.000  O
  C352     1.0000 0.06080  0.19290  0.98177  Biso   1.000  C
  C353     1.0000 0.03020  0.22090  0.01800  Biso   1.000  C
  C354     1.0000 0.08920  0.24640  0.04410  Biso   1.000  C
  C355     1.0000 0.93990  0.22290  0.02540  Biso   1.000  C
  N55      1.0000 0.17890  0.25230  0.03860  Biso   1.000  N
  C356     1.0000 0.05790  0.27380  0.07770  Biso   1.000  C
  H271     1.0000 0.89960  0.20550  0.00760  Biso   1.000  H
  C357     1.0000 0.90860  0.25030  0.05900  Biso   1.000  C
  H272     1.0000 0.20360  0.23930  0.01690  Biso   1.000  H
  H273     1.0000 0.21150  0.26900  0.05670  Biso   1.000  H
  H274     1.0000 0.09820  0.29120  0.09560  Biso   1.000  H
  C358     1.0000 0.96760  0.27580  0.08520  Biso   1.000  C
  H275     1.0000 0.84690  0.25170  0.06410  Biso   1.000  H
  C359     1.0000 0.93450  0.30620  0.12134  Biso   1.000  C
  N56      1.0000 0.83950  0.03840  0.77310  Biso   1.000  N
  H276     1.0000 0.81390  0.06710  0.78580  Biso   1.000  H
  H277     1.0000 0.81520  0.02450  0.75160  Biso   1.000  H
  C360     1.0000 0.95070  0.04030  0.82140  Biso   1.000  C
  H278     1.0000 0.91500  0.06700  0.83550  Biso   1.000  H
  C361     1.0000 0.91880  0.01480  0.78720  Biso   1.000  C
  C362     1.0000 0.97100  0.97570  0.76650  Biso   1.000  C
  C363     1.0000 0.05520  0.96210  0.78000  Biso   1.000  C
  H279     1.0000 0.09090  0.93530  0.76590  Biso   1.000  H
  C364     1.0000 0.08710  0.98750  0.81420  Biso   1.000  C
  H280     1.0000 0.14470  0.97820  0.82350  Biso   1.000  H
  O113     1.0000 0.89770  0.44080  0.12788  Biso   1.000  O
  O114     1.0000 0.76160  0.41877  0.14375  Biso   1.000  O
  O115     1.0000 0.60660  0.55770  0.97314  Biso   1.000  O
  O116     1.0000 0.74120  0.58440  0.95969  Biso   1.000  O
  C365     1.0000 0.68920  0.55710  0.98177  Biso   1.000  C
  C366     1.0000 0.71980  0.52910  0.01800  Biso   1.000  C
  C367     1.0000 0.66080  0.50360  0.04410  Biso   1.000  C
  C368     1.0000 0.81010  0.52710  0.02540  Biso   1.000  C
  N57      1.0000 0.57110  0.49770  0.03860  Biso   1.000  N
  C369     1.0000 0.69210  0.47620  0.07770  Biso   1.000  C
  H281     1.0000 0.85040  0.54450  0.00760  Biso   1.000  H
  C370     1.0000 0.84140  0.49970  0.05900  Biso   1.000  C
  H282     1.0000 0.54640  0.51070  0.01690  Biso   1.000  H
  H283     1.0000 0.53850  0.48100  0.05670  Biso   1.000  H
  H284     1.0000 0.65180  0.45880  0.09560  Biso   1.000  H
  C371     1.0000 0.78240  0.47420  0.08520  Biso   1.000  C
  H285     1.0000 0.90310  0.49830  0.06410  Biso   1.000  H
  C372     1.0000 0.81550  0.44380  0.12134  Biso   1.000  C
  N58      1.0000 0.91050  0.71160  0.77310  Biso   1.000  N
  H286     1.0000 0.93610  0.68290  0.78580  Biso   1.000  H
  H287     1.0000 0.93480  0.72550  0.75160  Biso   1.000  H
  C373     1.0000 0.79930  0.70970  0.82140  Biso   1.000  C
  H288     1.0000 0.83500  0.68300  0.83550  Biso   1.000  H
  C374     1.0000 0.83120  0.73520  0.78720  Biso   1.000  C
  C375     1.0000 0.77900  0.77430  0.76650  Biso   1.000  C
  C376     1.0000 0.69480  0.78790  0.78000  Biso   1.000  C
  H289     1.0000 0.65910  0.81470  0.76590  Biso   1.000  H
  C377     1.0000 0.66290  0.76250  0.81420  Biso   1.000  C
  H290     1.0000 0.60530  0.77180  0.82350  Biso   1.000  H
  O117     1.0000 0.89770  0.94080  0.62788  Biso   1.000  O
  O118     1.0000 0.76160  0.91877  0.64375  Biso   1.000  O
  O119     1.0000 0.60660  0.05770  0.47314  Biso   1.000  O
  O120     1.0000 0.74120  0.08440  0.45969  Biso   1.000  O
  C378     1.0000 0.68920  0.05710  0.48177  Biso   1.000  C
  C379     1.0000 0.71980  0.02910  0.51800  Biso   1.000  C
  C380     1.0000 0.66080  0.00360  0.54410  Biso   1.000  C
  C381     1.0000 0.81010  0.02710  0.52540  Biso   1.000  C
  N59      1.0000 0.57110  0.99770  0.53860  Biso   1.000  N
  C382     1.0000 0.69210  0.97620  0.57770  Biso   1.000  C
  H291     1.0000 0.85040  0.04450  0.50760  Biso   1.000  H
  C383     1.0000 0.84140  0.99970  0.55900  Biso   1.000  C
  H292     1.0000 0.54640  0.01070  0.51690  Biso   1.000  H
  H293     1.0000 0.53850  0.98100  0.55670  Biso   1.000  H
  H294     1.0000 0.65180  0.95880  0.59560  Biso   1.000  H
  C384     1.0000 0.78240  0.97420  0.58520  Biso   1.000  C
  H295     1.0000 0.90310  0.99830  0.56410  Biso   1.000  H
  C385     1.0000 0.81550  0.94380  0.62134  Biso   1.000  C
  N60      1.0000 0.91050  0.21160  0.27310  Biso   1.000  N
  H296     1.0000 0.93610  0.18290  0.28580  Biso   1.000  H
  H297     1.0000 0.93480  0.22550  0.25160  Biso   1.000  H
  C386     1.0000 0.79930  0.20970  0.32140  Biso   1.000  C
  H298     1.0000 0.83500  0.18300  0.33550  Biso   1.000  H
  C387     1.0000 0.83120  0.23520  0.28720  Biso   1.000  C
  C388     1.0000 0.77900  0.27430  0.26650  Biso   1.000  C
  C389     1.0000 0.69480  0.28790  0.28000  Biso   1.000  C
  H299     1.0000 0.65910  0.31470  0.26590  Biso   1.000  H
  C390     1.0000 0.66290  0.26250  0.31420  Biso   1.000  C
  H300     1.0000 0.60530  0.27180  0.32350  Biso   1.000  H
  O121     1.0000 0.39770  0.44080  0.62788  Biso   1.000  O
  O122     1.0000 0.26160  0.41877  0.64375  Biso   1.000  O
  O123     1.0000 0.10660  0.55770  0.47314  Biso   1.000  O
  O124     1.0000 0.24120  0.58440  0.45969  Biso   1.000  O
  C391     1.0000 0.18920  0.55710  0.48177  Biso   1.000  C
  C392     1.0000 0.21980  0.52910  0.51800  Biso   1.000  C
  C393     1.0000 0.16080  0.50360  0.54410  Biso   1.000  C
  C394     1.0000 0.31010  0.52710  0.52540  Biso   1.000  C
  N61      1.0000 0.07110  0.49770  0.53860  Biso   1.000  N
  C395     1.0000 0.19210  0.47620  0.57770  Biso   1.000  C
  H301     1.0000 0.35040  0.54450  0.50760  Biso   1.000  H
  C396     1.0000 0.34140  0.49970  0.55900  Biso   1.000  C
  H302     1.0000 0.04640  0.51070  0.51690  Biso   1.000  H
  H303     1.0000 0.03850  0.48100  0.55670  Biso   1.000  H
  H304     1.0000 0.15180  0.45880  0.59560  Biso   1.000  H
  C397     1.0000 0.28240  0.47420  0.58520  Biso   1.000  C
  H305     1.0000 0.40310  0.49830  0.56410  Biso   1.000  H
  C398     1.0000 0.31550  0.44380  0.62134  Biso   1.000  C
  N62      1.0000 0.41050  0.71160  0.27310  Biso   1.000  N
  H306     1.0000 0.43610  0.68290  0.28580  Biso   1.000  H
  H307     1.0000 0.43480  0.72550  0.25160  Biso   1.000  H
  C399     1.0000 0.29930  0.70970  0.32140  Biso   1.000  C
  H308     1.0000 0.33500  0.68300  0.33550  Biso   1.000  H
  C400     1.0000 0.33120  0.73520  0.28720  Biso   1.000  C
  C401     1.0000 0.27900  0.77430  0.26650  Biso   1.000  C
  C402     1.0000 0.19480  0.78790  0.28000  Biso   1.000  C
  H309     1.0000 0.15910  0.81470  0.26590  Biso   1.000  H
  C403     1.0000 0.16290  0.76250  0.31420  Biso   1.000  C
  H310     1.0000 0.10530  0.77180  0.32350  Biso   1.000  H
  O125     1.0000 0.39770  0.94080  0.12788  Biso   1.000  O
  O126     1.0000 0.26160  0.91877  0.14375  Biso   1.000  O
  O127     1.0000 0.10660  0.05770  0.97314  Biso   1.000  O
  O128     1.0000 0.24120  0.08440  0.95969  Biso   1.000  O
  C404     1.0000 0.18920  0.05710  0.98177  Biso   1.000  C
  C405     1.0000 0.21980  0.02910  0.01800  Biso   1.000  C
  C406     1.0000 0.16080  0.00360  0.04410  Biso   1.000  C
  C407     1.0000 0.31010  0.02710  0.02540  Biso   1.000  C
  N63      1.0000 0.07110  0.99770  0.03860  Biso   1.000  N
  C408     1.0000 0.19210  0.97620  0.07770  Biso   1.000  C
  H311     1.0000 0.35040  0.04450  0.00760  Biso   1.000  H
  C409     1.0000 0.34140  0.99970  0.05900  Biso   1.000  C
  H312     1.0000 0.04640  0.01070  0.01690  Biso   1.000  H
  H313     1.0000 0.03850  0.98100  0.05670  Biso   1.000  H
  H314     1.0000 0.15180  0.95880  0.09560  Biso   1.000  H
  C410     1.0000 0.28240  0.97420  0.08520  Biso   1.000  C
  H315     1.0000 0.40310  0.99830  0.06410  Biso   1.000  H
  C411     1.0000 0.31550  0.94380  0.12134  Biso   1.000  C
  N64      1.0000 0.41050  0.21160  0.77310  Biso   1.000  N
  H316     1.0000 0.43610  0.18290  0.78580  Biso   1.000  H
  H317     1.0000 0.43480  0.22550  0.75160  Biso   1.000  H
  C412     1.0000 0.29930  0.20970  0.82140  Biso   1.000  C
  H318     1.0000 0.33500  0.18300  0.83550  Biso   1.000  H
  C413     1.0000 0.33120  0.23520  0.78720  Biso   1.000  C
  C414     1.0000 0.27900  0.27430  0.76650  Biso   1.000  C
  C415     1.0000 0.19480  0.28790  0.78000  Biso   1.000  C
  H319     1.0000 0.15910  0.31470  0.76590  Biso   1.000  H
  C416     1.0000 0.16290  0.26250  0.81420  Biso   1.000  C
  H320     1.0000 0.10530  0.27180  0.82350  Biso   1.000  H
  In9      1.0000 0.37500  0.37500  0.67656  Biso   1.000  In
  In10     1.0000 0.37500  0.87500  0.17656  Biso   1.000  In
  In11     1.0000 0.87500  0.37500  0.17656  Biso   1.000  In
  In12     1.0000 0.87500  0.87500  0.67656  Biso   1.000  In
  In13     1.0000 0.62500  0.62500  0.92656  Biso   1.000  In
  In14     1.0000 0.62500  0.12500  0.42656  Biso   1.000  In
  In15     1.0000 0.12500  0.62500  0.42656  Biso   1.000  In
  In16     1.0000 0.12500  0.12500  0.92656  Biso   1.000  In
