data_image0
_cell_length_a       15.2451
_cell_length_b       26.7998
_cell_length_c       31.3225
_cell_angle_alpha    90
_cell_angle_beta     90
_cell_angle_gamma    90

_symmetry_space_group_name_H-M    "P 1"
_symmetry_int_tables_number       1

loop_
  _symmetry_equiv_pos_as_xyz
  'x, y, z'

loop_
  _atom_site_label
  _atom_site_occupancy
  _atom_site_fract_x
  _atom_site_fract_y
  _atom_site_fract_z
  _atom_site_thermal_displace_type
  _atom_site_B_iso_or_equiv
  _atom_site_type_symbol
  O1       1.0000 0.26230  0.41140  0.02959  Biso   1.000  O
  O2       1.0000 0.39610  0.43618  0.01764  Biso   1.000  O
  O3       1.0000 0.23830  0.58759  0.85133  Biso   1.000  O
  O4       1.0000 0.10380  0.56740  0.86729  Biso   1.000  O
  N1       1.0000 0.43090  0.50050  0.95520  Biso   1.000  N
  H1       1.0000 0.44760  0.48070  0.97660  Biso   1.000  H
  H2       1.0000 0.45870  0.49050  0.93160  Biso   1.000  H
  C1       1.0000 0.31500  0.43850  0.00899  Biso   1.000  C
  C2       1.0000 0.28280  0.47180  0.97473  Biso   1.000  C
  C3       1.0000 0.34090  0.49840  0.94940  Biso   1.000  C
  C4       1.0000 0.30600  0.52770  0.91690  Biso   1.000  C
  H3       1.0000 0.34510  0.54580  0.89900  Biso   1.000  H
  C5       1.0000 0.21770  0.53170  0.90944  Biso   1.000  C
  C6       1.0000 0.18500  0.56389  0.87403  Biso   1.000  C
  C7       1.0000 0.16060  0.50450  0.93410  Biso   1.000  C
  H4       1.0000 0.09920  0.50590  0.92900  Biso   1.000  H
  C8       1.0000 0.19440  0.47460  0.96710  Biso   1.000  C
  H5       1.0000 0.15510  0.45600  0.98450  Biso   1.000  H
  C9       1.0000 0.16220  0.49150  0.92570  Biso   1.000  C
  H6       1.0000 0.10510  0.48540  0.91470  Biso   1.000  H
  C10      1.0000 0.19740  0.46290  0.95800  Biso   1.000  C
  H7       1.0000 0.16350  0.43630  0.96950  Biso   1.000  H
  N2       1.0000 0.41970  0.52260  0.97180  Biso   1.000  N
  H8       1.0000 0.44340  0.49520  0.98280  Biso   1.000  H
  H9       1.0000 0.45260  0.53260  0.95010  Biso   1.000  H
  C11      1.0000 0.33580  0.51170  0.95810  Biso   1.000  C
  C12      1.0000 0.30160  0.54140  0.92490  Biso   1.000  C
  H10      1.0000 0.33540  0.56780  0.91310  Biso   1.000  H
  O5       1.0000 0.26230  0.91140  0.52959  Biso   1.000  O
  O6       1.0000 0.39610  0.93618  0.51764  Biso   1.000  O
  O7       1.0000 0.23830  0.08759  0.35133  Biso   1.000  O
  O8       1.0000 0.10380  0.06740  0.36729  Biso   1.000  O
  N3       1.0000 0.43090  0.00050  0.45520  Biso   1.000  N
  H11      1.0000 0.44760  0.98070  0.47660  Biso   1.000  H
  H12      1.0000 0.45870  0.99050  0.43160  Biso   1.000  H
  C13      1.0000 0.31500  0.93850  0.50899  Biso   1.000  C
  C14      1.0000 0.28280  0.97180  0.47473  Biso   1.000  C
  C15      1.0000 0.34090  0.99840  0.44940  Biso   1.000  C
  C16      1.0000 0.30600  0.02770  0.41690  Biso   1.000  C
  H13      1.0000 0.34510  0.04580  0.39900  Biso   1.000  H
  C17      1.0000 0.21770  0.03170  0.40944  Biso   1.000  C
  C18      1.0000 0.18500  0.06389  0.37403  Biso   1.000  C
  C19      1.0000 0.16060  0.00450  0.43410  Biso   1.000  C
  H14      1.0000 0.09920  0.00590  0.42900  Biso   1.000  H
  C20      1.0000 0.19440  0.97460  0.46710  Biso   1.000  C
  H15      1.0000 0.15510  0.95600  0.48450  Biso   1.000  H
  C21      1.0000 0.16220  0.99150  0.42570  Biso   1.000  C
  H16      1.0000 0.10510  0.98540  0.41470  Biso   1.000  H
  C22      1.0000 0.19740  0.96290  0.45800  Biso   1.000  C
  H17      1.0000 0.16350  0.93630  0.46950  Biso   1.000  H
  N4       1.0000 0.41970  0.02260  0.47180  Biso   1.000  N
  H18      1.0000 0.44340  0.99520  0.48280  Biso   1.000  H
  H19      1.0000 0.45260  0.03260  0.45010  Biso   1.000  H
  C23      1.0000 0.33580  0.01170  0.45810  Biso   1.000  C
  C24      1.0000 0.30160  0.04140  0.42490  Biso   1.000  C
  H20      1.0000 0.33540  0.06780  0.41310  Biso   1.000  H
  O9       1.0000 0.76230  0.41140  0.52959  Biso   1.000  O
  O10      1.0000 0.89610  0.43618  0.51764  Biso   1.000  O
  O11      1.0000 0.73830  0.58759  0.35133  Biso   1.000  O
  O12      1.0000 0.60380  0.56740  0.36729  Biso   1.000  O
  N5       1.0000 0.93090  0.50050  0.45520  Biso   1.000  N
  H21      1.0000 0.94760  0.48070  0.47660  Biso   1.000  H
  H22      1.0000 0.95870  0.49050  0.43160  Biso   1.000  H
  C25      1.0000 0.81500  0.43850  0.50899  Biso   1.000  C
  C26      1.0000 0.78280  0.47180  0.47473  Biso   1.000  C
  C27      1.0000 0.84090  0.49840  0.44940  Biso   1.000  C
  C28      1.0000 0.80600  0.52770  0.41690  Biso   1.000  C
  H23      1.0000 0.84510  0.54580  0.39900  Biso   1.000  H
  C29      1.0000 0.71770  0.53170  0.40944  Biso   1.000  C
  C30      1.0000 0.68500  0.56389  0.37403  Biso   1.000  C
  C31      1.0000 0.66060  0.50450  0.43410  Biso   1.000  C
  H24      1.0000 0.59920  0.50590  0.42900  Biso   1.000  H
  C32      1.0000 0.69440  0.47460  0.46710  Biso   1.000  C
  H25      1.0000 0.65510  0.45600  0.48450  Biso   1.000  H
  C33      1.0000 0.66220  0.49150  0.42570  Biso   1.000  C
  H26      1.0000 0.60510  0.48540  0.41470  Biso   1.000  H
  C34      1.0000 0.69740  0.46290  0.45800  Biso   1.000  C
  H27      1.0000 0.66350  0.43630  0.46950  Biso   1.000  H
  N6       1.0000 0.91970  0.52260  0.47180  Biso   1.000  N
  H28      1.0000 0.94340  0.49520  0.48280  Biso   1.000  H
  H29      1.0000 0.95260  0.53260  0.45010  Biso   1.000  H
  C35      1.0000 0.83580  0.51170  0.45810  Biso   1.000  C
  C36      1.0000 0.80160  0.54140  0.42490  Biso   1.000  C
  H30      1.0000 0.83540  0.56780  0.41310  Biso   1.000  H
  O13      1.0000 0.76230  0.91140  0.02959  Biso   1.000  O
  O14      1.0000 0.89610  0.93618  0.01764  Biso   1.000  O
  O15      1.0000 0.73830  0.08759  0.85133  Biso   1.000  O
  O16      1.0000 0.60380  0.06740  0.86729  Biso   1.000  O
  N7       1.0000 0.93090  0.00050  0.95520  Biso   1.000  N
  H31      1.0000 0.94760  0.98070  0.97660  Biso   1.000  H
  H32      1.0000 0.95870  0.99050  0.93160  Biso   1.000  H
  C37      1.0000 0.81500  0.93850  0.00899  Biso   1.000  C
  C38      1.0000 0.78280  0.97180  0.97473  Biso   1.000  C
  C39      1.0000 0.84090  0.99840  0.94940  Biso   1.000  C
  C40      1.0000 0.80600  0.02770  0.91690  Biso   1.000  C
  H33      1.0000 0.84510  0.04580  0.89900  Biso   1.000  H
  C41      1.0000 0.71770  0.03170  0.90944  Biso   1.000  C
  C42      1.0000 0.68500  0.06389  0.87403  Biso   1.000  C
  C43      1.0000 0.66060  0.00450  0.93410  Biso   1.000  C
  H34      1.0000 0.59920  0.00590  0.92900  Biso   1.000  H
  C44      1.0000 0.69440  0.97460  0.96710  Biso   1.000  C
  H35      1.0000 0.65510  0.95600  0.98450  Biso   1.000  H
  C45      1.0000 0.66220  0.99150  0.92570  Biso   1.000  C
  H36      1.0000 0.60510  0.98540  0.91470  Biso   1.000  H
  C46      1.0000 0.69740  0.96290  0.95800  Biso   1.000  C
  H37      1.0000 0.66350  0.93630  0.96950  Biso   1.000  H
  N8       1.0000 0.91970  0.02260  0.97180  Biso   1.000  N
  H38      1.0000 0.94340  0.99520  0.98280  Biso   1.000  H
  H39      1.0000 0.95260  0.03260  0.95010  Biso   1.000  H
  C47      1.0000 0.83580  0.01170  0.95810  Biso   1.000  C
  C48      1.0000 0.80160  0.04140  0.92490  Biso   1.000  C
  H40      1.0000 0.83540  0.06780  0.91310  Biso   1.000  H
  O17      1.0000 0.48770  0.33860  0.02959  Biso   1.000  O
  O18      1.0000 0.35390  0.31382  0.01764  Biso   1.000  O
  O19      1.0000 0.51170  0.16241  0.85133  Biso   1.000  O
  O20      1.0000 0.64620  0.18260  0.86729  Biso   1.000  O
  N9       1.0000 0.31910  0.24950  0.95520  Biso   1.000  N
  H41      1.0000 0.30240  0.26930  0.97660  Biso   1.000  H
  H42      1.0000 0.29130  0.25950  0.93160  Biso   1.000  H
  C49      1.0000 0.43500  0.31150  0.00899  Biso   1.000  C
  C50      1.0000 0.46720  0.27820  0.97473  Biso   1.000  C
  C51      1.0000 0.40910  0.25160  0.94940  Biso   1.000  C
  C52      1.0000 0.44400  0.22230  0.91690  Biso   1.000  C
  H43      1.0000 0.40490  0.20420  0.89900  Biso   1.000  H
  C53      1.0000 0.53230  0.21830  0.90944  Biso   1.000  C
  C54      1.0000 0.56500  0.18611  0.87403  Biso   1.000  C
  C55      1.0000 0.58940  0.24550  0.93410  Biso   1.000  C
  H44      1.0000 0.65080  0.24410  0.92900  Biso   1.000  H
  C56      1.0000 0.55560  0.27540  0.96710  Biso   1.000  C
  H45      1.0000 0.59490  0.29400  0.98450  Biso   1.000  H
  C57      1.0000 0.58780  0.25850  0.92570  Biso   1.000  C
  H46      1.0000 0.64490  0.26460  0.91470  Biso   1.000  H
  C58      1.0000 0.55260  0.28710  0.95800  Biso   1.000  C
  H47      1.0000 0.58650  0.31370  0.96950  Biso   1.000  H
  N10      1.0000 0.33030  0.22740  0.97180  Biso   1.000  N
  H48      1.0000 0.30660  0.25480  0.98280  Biso   1.000  H
  H49      1.0000 0.29740  0.21740  0.95010  Biso   1.000  H
  C59      1.0000 0.41420  0.23830  0.95810  Biso   1.000  C
  C60      1.0000 0.44840  0.20860  0.92490  Biso   1.000  C
  H50      1.0000 0.41460  0.18220  0.91310  Biso   1.000  H
  O21      1.0000 0.48770  0.83860  0.52959  Biso   1.000  O
  O22      1.0000 0.35390  0.81382  0.51764  Biso   1.000  O
  O23      1.0000 0.51170  0.66241  0.35133  Biso   1.000  O
  O24      1.0000 0.64620  0.68260  0.36729  Biso   1.000  O
  N11      1.0000 0.31910  0.74950  0.45520  Biso   1.000  N
  H51      1.0000 0.30240  0.76930  0.47660  Biso   1.000  H
  H52      1.0000 0.29130  0.75950  0.43160  Biso   1.000  H
  C61      1.0000 0.43500  0.81150  0.50899  Biso   1.000  C
  C62      1.0000 0.46720  0.77820  0.47473  Biso   1.000  C
  C63      1.0000 0.40910  0.75160  0.44940  Biso   1.000  C
  C64      1.0000 0.44400  0.72230  0.41690  Biso   1.000  C
  H53      1.0000 0.40490  0.70420  0.39900  Biso   1.000  H
  C65      1.0000 0.53230  0.71830  0.40944  Biso   1.000  C
  C66      1.0000 0.56500  0.68611  0.37403  Biso   1.000  C
  C67      1.0000 0.58940  0.74550  0.43410  Biso   1.000  C
  H54      1.0000 0.65080  0.74410  0.42900  Biso   1.000  H
  C68      1.0000 0.55560  0.77540  0.46710  Biso   1.000  C
  H55      1.0000 0.59490  0.79400  0.48450  Biso   1.000  H
  C69      1.0000 0.58780  0.75850  0.42570  Biso   1.000  C
  H56      1.0000 0.64490  0.76460  0.41470  Biso   1.000  H
  C70      1.0000 0.55260  0.78710  0.45800  Biso   1.000  C
  H57      1.0000 0.58650  0.81370  0.46950  Biso   1.000  H
  N12      1.0000 0.33030  0.72740  0.47180  Biso   1.000  N
  H58      1.0000 0.30660  0.75480  0.48280  Biso   1.000  H
  H59      1.0000 0.29740  0.71740  0.45010  Biso   1.000  H
  C71      1.0000 0.41420  0.73830  0.45810  Biso   1.000  C
  C72      1.0000 0.44840  0.70860  0.42490  Biso   1.000  C
  H60      1.0000 0.41460  0.68220  0.41310  Biso   1.000  H
  O25      1.0000 0.98770  0.33860  0.52959  Biso   1.000  O
  O26      1.0000 0.85390  0.31382  0.51764  Biso   1.000  O
  O27      1.0000 0.01170  0.16241  0.35133  Biso   1.000  O
  O28      1.0000 0.14620  0.18260  0.36729  Biso   1.000  O
  N13      1.0000 0.81910  0.24950  0.45520  Biso   1.000  N
  H61      1.0000 0.80240  0.26930  0.47660  Biso   1.000  H
  H62      1.0000 0.79130  0.25950  0.43160  Biso   1.000  H
  C73      1.0000 0.93500  0.31150  0.50899  Biso   1.000  C
  C74      1.0000 0.96720  0.27820  0.47473  Biso   1.000  C
  C75      1.0000 0.90910  0.25160  0.44940  Biso   1.000  C
  C76      1.0000 0.94400  0.22230  0.41690  Biso   1.000  C
  H63      1.0000 0.90490  0.20420  0.39900  Biso   1.000  H
  C77      1.0000 0.03230  0.21830  0.40944  Biso   1.000  C
  C78      1.0000 0.06500  0.18611  0.37403  Biso   1.000  C
  C79      1.0000 0.08940  0.24550  0.43410  Biso   1.000  C
  H64      1.0000 0.15080  0.24410  0.42900  Biso   1.000  H
  C80      1.0000 0.05560  0.27540  0.46710  Biso   1.000  C
  H65      1.0000 0.09490  0.29400  0.48450  Biso   1.000  H
  C81      1.0000 0.08780  0.25850  0.42570  Biso   1.000  C
  H66      1.0000 0.14490  0.26460  0.41470  Biso   1.000  H
  C82      1.0000 0.05260  0.28710  0.45800  Biso   1.000  C
  H67      1.0000 0.08650  0.31370  0.46950  Biso   1.000  H
  N14      1.0000 0.83030  0.22740  0.47180  Biso   1.000  N
  H68      1.0000 0.80660  0.25480  0.48280  Biso   1.000  H
  H69      1.0000 0.79740  0.21740  0.45010  Biso   1.000  H
  C83      1.0000 0.91420  0.23830  0.45810  Biso   1.000  C
  C84      1.0000 0.94840  0.20860  0.42490  Biso   1.000  C
  H70      1.0000 0.91460  0.18220  0.41310  Biso   1.000  H
  O29      1.0000 0.98770  0.83860  0.02959  Biso   1.000  O
  O30      1.0000 0.85390  0.81382  0.01764  Biso   1.000  O
  O31      1.0000 0.01170  0.66241  0.85133  Biso   1.000  O
  O32      1.0000 0.14620  0.68260  0.86729  Biso   1.000  O
  N15      1.0000 0.81910  0.74950  0.95520  Biso   1.000  N
  H71      1.0000 0.80240  0.76930  0.97660  Biso   1.000  H
  H72      1.0000 0.79130  0.75950  0.93160  Biso   1.000  H
  C85      1.0000 0.93500  0.81150  0.00899  Biso   1.000  C
  C86      1.0000 0.96720  0.77820  0.97473  Biso   1.000  C
  C87      1.0000 0.90910  0.75160  0.94940  Biso   1.000  C
  C88      1.0000 0.94400  0.72230  0.91690  Biso   1.000  C
  H73      1.0000 0.90490  0.70420  0.89900  Biso   1.000  H
  C89      1.0000 0.03230  0.71830  0.90944  Biso   1.000  C
  C90      1.0000 0.06500  0.68611  0.87403  Biso   1.000  C
  C91      1.0000 0.08940  0.74550  0.93410  Biso   1.000  C
  H74      1.0000 0.15080  0.74410  0.92900  Biso   1.000  H
  C92      1.0000 0.05560  0.77540  0.96710  Biso   1.000  C
  H75      1.0000 0.09490  0.79400  0.98450  Biso   1.000  H
  C93      1.0000 0.08780  0.75850  0.92570  Biso   1.000  C
  H76      1.0000 0.14490  0.76460  0.91470  Biso   1.000  H
  C94      1.0000 0.05260  0.78710  0.95800  Biso   1.000  C
  H77      1.0000 0.08650  0.81370  0.96950  Biso   1.000  H
  N16      1.0000 0.83030  0.72740  0.97180  Biso   1.000  N
  H78      1.0000 0.80660  0.75480  0.98280  Biso   1.000  H
  H79      1.0000 0.79740  0.71740  0.95010  Biso   1.000  H
  C95      1.0000 0.91420  0.73830  0.95810  Biso   1.000  C
  C96      1.0000 0.94840  0.70860  0.92490  Biso   1.000  C
  H80      1.0000 0.91460  0.68220  0.91310  Biso   1.000  H
  O33      1.0000 0.51230  0.58860  0.27959  Biso   1.000  O
  O34      1.0000 0.64610  0.56382  0.26764  Biso   1.000  O
  O35      1.0000 0.48830  0.41241  0.10133  Biso   1.000  O
  O36      1.0000 0.35380  0.43260  0.11729  Biso   1.000  O
  N17      1.0000 0.68090  0.49950  0.20520  Biso   1.000  N
  H81      1.0000 0.69760  0.51930  0.22660  Biso   1.000  H
  H82      1.0000 0.70870  0.50950  0.18160  Biso   1.000  H
  C97      1.0000 0.56500  0.56150  0.25899  Biso   1.000  C
  C98      1.0000 0.53280  0.52820  0.22473  Biso   1.000  C
  C99      1.0000 0.59090  0.50160  0.19940  Biso   1.000  C
  C100     1.0000 0.55600  0.47230  0.16690  Biso   1.000  C
  H83      1.0000 0.59510  0.45420  0.14900  Biso   1.000  H
  C101     1.0000 0.46770  0.46830  0.15944  Biso   1.000  C
  C102     1.0000 0.43500  0.43611  0.12403  Biso   1.000  C
  C103     1.0000 0.41060  0.49550  0.18410  Biso   1.000  C
  H84      1.0000 0.34920  0.49410  0.17900  Biso   1.000  H
  C104     1.0000 0.44440  0.52540  0.21710  Biso   1.000  C
  H85      1.0000 0.40510  0.54400  0.23450  Biso   1.000  H
  C105     1.0000 0.41220  0.50850  0.17570  Biso   1.000  C
  H86      1.0000 0.35510  0.51460  0.16470  Biso   1.000  H
  C106     1.0000 0.44740  0.53710  0.20800  Biso   1.000  C
  H87      1.0000 0.41350  0.56370  0.21950  Biso   1.000  H
  N18      1.0000 0.66970  0.47740  0.22180  Biso   1.000  N
  H88      1.0000 0.69340  0.50480  0.23280  Biso   1.000  H
  H89      1.0000 0.70260  0.46740  0.20010  Biso   1.000  H
  C107     1.0000 0.58580  0.48830  0.20810  Biso   1.000  C
  C108     1.0000 0.55160  0.45860  0.17490  Biso   1.000  C
  H90      1.0000 0.58540  0.43220  0.16310  Biso   1.000  H
  O37      1.0000 0.51230  0.08860  0.77959  Biso   1.000  O
  O38      1.0000 0.64610  0.06382  0.76764  Biso   1.000  O
  O39      1.0000 0.48830  0.91241  0.60133  Biso   1.000  O
  O40      1.0000 0.35380  0.93260  0.61729  Biso   1.000  O
  N19      1.0000 0.68090  0.99950  0.70520  Biso   1.000  N
  H91      1.0000 0.69760  0.01930  0.72660  Biso   1.000  H
  H92      1.0000 0.70870  0.00950  0.68160  Biso   1.000  H
  C109     1.0000 0.56500  0.06150  0.75899  Biso   1.000  C
  C110     1.0000 0.53280  0.02820  0.72473  Biso   1.000  C
  C111     1.0000 0.59090  0.00160  0.69940  Biso   1.000  C
  C112     1.0000 0.55600  0.97230  0.66690  Biso   1.000  C
  H93      1.0000 0.59510  0.95420  0.64900  Biso   1.000  H
  C113     1.0000 0.46770  0.96830  0.65944  Biso   1.000  C
  C114     1.0000 0.43500  0.93611  0.62403  Biso   1.000  C
  C115     1.0000 0.41060  0.99550  0.68410  Biso   1.000  C
  H94      1.0000 0.34920  0.99410  0.67900  Biso   1.000  H
  C116     1.0000 0.44440  0.02540  0.71710  Biso   1.000  C
  H95      1.0000 0.40510  0.04400  0.73450  Biso   1.000  H
  C117     1.0000 0.41220  0.00850  0.67570  Biso   1.000  C
  H96      1.0000 0.35510  0.01460  0.66470  Biso   1.000  H
  C118     1.0000 0.44740  0.03710  0.70800  Biso   1.000  C
  H97      1.0000 0.41350  0.06370  0.71950  Biso   1.000  H
  N20      1.0000 0.66970  0.97740  0.72180  Biso   1.000  N
  H98      1.0000 0.69340  0.00480  0.73280  Biso   1.000  H
  H99      1.0000 0.70260  0.96740  0.70010  Biso   1.000  H
  C119     1.0000 0.58580  0.98830  0.70810  Biso   1.000  C
  C120     1.0000 0.55160  0.95860  0.67490  Biso   1.000  C
  H100     1.0000 0.58540  0.93220  0.66310  Biso   1.000  H
  O41      1.0000 0.01230  0.58860  0.77959  Biso   1.000  O
  O42      1.0000 0.14610  0.56382  0.76764  Biso   1.000  O
  O43      1.0000 0.98830  0.41241  0.60133  Biso   1.000  O
  O44      1.0000 0.85380  0.43260  0.61729  Biso   1.000  O
  N21      1.0000 0.18090  0.49950  0.70520  Biso   1.000  N
  H101     1.0000 0.19760  0.51930  0.72660  Biso   1.000  H
  H102     1.0000 0.20870  0.50950  0.68160  Biso   1.000  H
  C121     1.0000 0.06500  0.56150  0.75899  Biso   1.000  C
  C122     1.0000 0.03280  0.52820  0.72473  Biso   1.000  C
  C123     1.0000 0.09090  0.50160  0.69940  Biso   1.000  C
  C124     1.0000 0.05600  0.47230  0.66690  Biso   1.000  C
  H103     1.0000 0.09510  0.45420  0.64900  Biso   1.000  H
  C125     1.0000 0.96770  0.46830  0.65944  Biso   1.000  C
  C126     1.0000 0.93500  0.43611  0.62403  Biso   1.000  C
  C127     1.0000 0.91060  0.49550  0.68410  Biso   1.000  C
  H104     1.0000 0.84920  0.49410  0.67900  Biso   1.000  H
  C128     1.0000 0.94440  0.52540  0.71710  Biso   1.000  C
  H105     1.0000 0.90510  0.54400  0.73450  Biso   1.000  H
  C129     1.0000 0.91220  0.50850  0.67570  Biso   1.000  C
  H106     1.0000 0.85510  0.51460  0.66470  Biso   1.000  H
  C130     1.0000 0.94740  0.53710  0.70800  Biso   1.000  C
  H107     1.0000 0.91350  0.56370  0.71950  Biso   1.000  H
  N22      1.0000 0.16970  0.47740  0.72180  Biso   1.000  N
  H108     1.0000 0.19340  0.50480  0.73280  Biso   1.000  H
  H109     1.0000 0.20260  0.46740  0.70010  Biso   1.000  H
  C131     1.0000 0.08580  0.48830  0.70810  Biso   1.000  C
  C132     1.0000 0.05160  0.45860  0.67490  Biso   1.000  C
  H110     1.0000 0.08540  0.43220  0.66310  Biso   1.000  H
  O45      1.0000 0.01230  0.08860  0.27959  Biso   1.000  O
  O46      1.0000 0.14610  0.06382  0.26764  Biso   1.000  O
  O47      1.0000 0.98830  0.91241  0.10133  Biso   1.000  O
  O48      1.0000 0.85380  0.93260  0.11729  Biso   1.000  O
  N23      1.0000 0.18090  0.99950  0.20520  Biso   1.000  N
  H111     1.0000 0.19760  0.01930  0.22660  Biso   1.000  H
  H112     1.0000 0.20870  0.00950  0.18160  Biso   1.000  H
  C133     1.0000 0.06500  0.06150  0.25899  Biso   1.000  C
  C134     1.0000 0.03280  0.02820  0.22473  Biso   1.000  C
  C135     1.0000 0.09090  0.00160  0.19940  Biso   1.000  C
  C136     1.0000 0.05600  0.97230  0.16690  Biso   1.000  C
  H113     1.0000 0.09510  0.95420  0.14900  Biso   1.000  H
  C137     1.0000 0.96770  0.96830  0.15944  Biso   1.000  C
  C138     1.0000 0.93500  0.93611  0.12403  Biso   1.000  C
  C139     1.0000 0.91060  0.99550  0.18410  Biso   1.000  C
  H114     1.0000 0.84920  0.99410  0.17900  Biso   1.000  H
  C140     1.0000 0.94440  0.02540  0.21710  Biso   1.000  C
  H115     1.0000 0.90510  0.04400  0.23450  Biso   1.000  H
  C141     1.0000 0.91220  0.00850  0.17570  Biso   1.000  C
  H116     1.0000 0.85510  0.01460  0.16470  Biso   1.000  H
  C142     1.0000 0.94740  0.03710  0.20800  Biso   1.000  C
  H117     1.0000 0.91350  0.06370  0.21950  Biso   1.000  H
  N24      1.0000 0.16970  0.97740  0.22180  Biso   1.000  N
  H118     1.0000 0.19340  0.00480  0.23280  Biso   1.000  H
  H119     1.0000 0.20260  0.96740  0.20010  Biso   1.000  H
  C143     1.0000 0.08580  0.98830  0.20810  Biso   1.000  C
  C144     1.0000 0.05160  0.95860  0.17490  Biso   1.000  C
  H120     1.0000 0.08540  0.93220  0.16310  Biso   1.000  H
  O49      1.0000 0.73770  0.66140  0.27959  Biso   1.000  O
  O50      1.0000 0.60390  0.68618  0.26764  Biso   1.000  O
  O51      1.0000 0.76170  0.83759  0.10133  Biso   1.000  O
  O52      1.0000 0.89620  0.81740  0.11729  Biso   1.000  O
  N25      1.0000 0.56910  0.75050  0.20520  Biso   1.000  N
  H121     1.0000 0.55240  0.73070  0.22660  Biso   1.000  H
  H122     1.0000 0.54130  0.74050  0.18160  Biso   1.000  H
  C145     1.0000 0.68500  0.68850  0.25899  Biso   1.000  C
  C146     1.0000 0.71720  0.72180  0.22473  Biso   1.000  C
  C147     1.0000 0.65910  0.74840  0.19940  Biso   1.000  C
  C148     1.0000 0.69400  0.77770  0.16690  Biso   1.000  C
  H123     1.0000 0.65490  0.79580  0.14900  Biso   1.000  H
  C149     1.0000 0.78230  0.78170  0.15944  Biso   1.000  C
  C150     1.0000 0.81500  0.81389  0.12403  Biso   1.000  C
  C151     1.0000 0.83940  0.75450  0.18410  Biso   1.000  C
  H124     1.0000 0.90080  0.75590  0.17900  Biso   1.000  H
  C152     1.0000 0.80560  0.72460  0.21710  Biso   1.000  C
  H125     1.0000 0.84490  0.70600  0.23450  Biso   1.000  H
  C153     1.0000 0.83780  0.74150  0.17570  Biso   1.000  C
  H126     1.0000 0.89490  0.73540  0.16470  Biso   1.000  H
  C154     1.0000 0.80260  0.71290  0.20800  Biso   1.000  C
  H127     1.0000 0.83650  0.68630  0.21950  Biso   1.000  H
  N26      1.0000 0.58030  0.77260  0.22180  Biso   1.000  N
  H128     1.0000 0.55660  0.74520  0.23280  Biso   1.000  H
  H129     1.0000 0.54740  0.78260  0.20010  Biso   1.000  H
  C155     1.0000 0.66420  0.76170  0.20810  Biso   1.000  C
  C156     1.0000 0.69840  0.79140  0.17490  Biso   1.000  C
  H130     1.0000 0.66460  0.81780  0.16310  Biso   1.000  H
  O53      1.0000 0.73770  0.16140  0.77959  Biso   1.000  O
  O54      1.0000 0.60390  0.18618  0.76764  Biso   1.000  O
  O55      1.0000 0.76170  0.33759  0.60133  Biso   1.000  O
  O56      1.0000 0.89620  0.31740  0.61729  Biso   1.000  O
  N27      1.0000 0.56910  0.25050  0.70520  Biso   1.000  N
  H131     1.0000 0.55240  0.23070  0.72660  Biso   1.000  H
  H132     1.0000 0.54130  0.24050  0.68160  Biso   1.000  H
  C157     1.0000 0.68500  0.18850  0.75899  Biso   1.000  C
  C158     1.0000 0.71720  0.22180  0.72473  Biso   1.000  C
  C159     1.0000 0.65910  0.24840  0.69940  Biso   1.000  C
  C160     1.0000 0.69400  0.27770  0.66690  Biso   1.000  C
  H133     1.0000 0.65490  0.29580  0.64900  Biso   1.000  H
  C161     1.0000 0.78230  0.28170  0.65944  Biso   1.000  C
  C162     1.0000 0.81500  0.31389  0.62403  Biso   1.000  C
  C163     1.0000 0.83940  0.25450  0.68410  Biso   1.000  C
  H134     1.0000 0.90080  0.25590  0.67900  Biso   1.000  H
  C164     1.0000 0.80560  0.22460  0.71710  Biso   1.000  C
  H135     1.0000 0.84490  0.20600  0.73450  Biso   1.000  H
  C165     1.0000 0.83780  0.24150  0.67570  Biso   1.000  C
  H136     1.0000 0.89490  0.23540  0.66470  Biso   1.000  H
  C166     1.0000 0.80260  0.21290  0.70800  Biso   1.000  C
  H137     1.0000 0.83650  0.18630  0.71950  Biso   1.000  H
  N28      1.0000 0.58030  0.27260  0.72180  Biso   1.000  N
  H138     1.0000 0.55660  0.24520  0.73280  Biso   1.000  H
  H139     1.0000 0.54740  0.28260  0.70010  Biso   1.000  H
  C167     1.0000 0.66420  0.26170  0.70810  Biso   1.000  C
  C168     1.0000 0.69840  0.29140  0.67490  Biso   1.000  C
  H140     1.0000 0.66460  0.31780  0.66310  Biso   1.000  H
  O57      1.0000 0.23770  0.66140  0.77959  Biso   1.000  O
  O58      1.0000 0.10390  0.68618  0.76764  Biso   1.000  O
  O59      1.0000 0.26170  0.83759  0.60133  Biso   1.000  O
  O60      1.0000 0.39620  0.81740  0.61729  Biso   1.000  O
  N29      1.0000 0.06910  0.75050  0.70520  Biso   1.000  N
  H141     1.0000 0.05240  0.73070  0.72660  Biso   1.000  H
  H142     1.0000 0.04130  0.74050  0.68160  Biso   1.000  H
  C169     1.0000 0.18500  0.68850  0.75899  Biso   1.000  C
  C170     1.0000 0.21720  0.72180  0.72473  Biso   1.000  C
  C171     1.0000 0.15910  0.74840  0.69940  Biso   1.000  C
  C172     1.0000 0.19400  0.77770  0.66690  Biso   1.000  C
  H143     1.0000 0.15490  0.79580  0.64900  Biso   1.000  H
  C173     1.0000 0.28230  0.78170  0.65944  Biso   1.000  C
  C174     1.0000 0.31500  0.81389  0.62403  Biso   1.000  C
  C175     1.0000 0.33940  0.75450  0.68410  Biso   1.000  C
  H144     1.0000 0.40080  0.75590  0.67900  Biso   1.000  H
  C176     1.0000 0.30560  0.72460  0.71710  Biso   1.000  C
  H145     1.0000 0.34490  0.70600  0.73450  Biso   1.000  H
  C177     1.0000 0.33780  0.74150  0.67570  Biso   1.000  C
  H146     1.0000 0.39490  0.73540  0.66470  Biso   1.000  H
  C178     1.0000 0.30260  0.71290  0.70800  Biso   1.000  C
  H147     1.0000 0.33650  0.68630  0.71950  Biso   1.000  H
  N30      1.0000 0.08030  0.77260  0.72180  Biso   1.000  N
  H148     1.0000 0.05660  0.74520  0.73280  Biso   1.000  H
  H149     1.0000 0.04740  0.78260  0.70010  Biso   1.000  H
  C179     1.0000 0.16420  0.76170  0.70810  Biso   1.000  C
  C180     1.0000 0.19840  0.79140  0.67490  Biso   1.000  C
  H150     1.0000 0.16460  0.81780  0.66310  Biso   1.000  H
  O61      1.0000 0.23770  0.16140  0.27959  Biso   1.000  O
  O62      1.0000 0.10390  0.18618  0.26764  Biso   1.000  O
  O63      1.0000 0.26170  0.33759  0.10133  Biso   1.000  O
  O64      1.0000 0.39620  0.31740  0.11729  Biso   1.000  O
  N31      1.0000 0.06910  0.25050  0.20520  Biso   1.000  N
  H151     1.0000 0.05240  0.23070  0.22660  Biso   1.000  H
  H152     1.0000 0.04130  0.24050  0.18160  Biso   1.000  H
  C181     1.0000 0.18500  0.18850  0.25899  Biso   1.000  C
  C182     1.0000 0.21720  0.22180  0.22473  Biso   1.000  C
  C183     1.0000 0.15910  0.24840  0.19940  Biso   1.000  C
  C184     1.0000 0.19400  0.27770  0.16690  Biso   1.000  C
  H153     1.0000 0.15490  0.29580  0.14900  Biso   1.000  H
  C185     1.0000 0.28230  0.28170  0.15944  Biso   1.000  C
  C186     1.0000 0.31500  0.31389  0.12403  Biso   1.000  C
  C187     1.0000 0.33940  0.25450  0.18410  Biso   1.000  C
  H154     1.0000 0.40080  0.25590  0.17900  Biso   1.000  H
  C188     1.0000 0.30560  0.22460  0.21710  Biso   1.000  C
  H155     1.0000 0.34490  0.20600  0.23450  Biso   1.000  H
  C189     1.0000 0.33780  0.24150  0.17570  Biso   1.000  C
  H156     1.0000 0.39490  0.23540  0.16470  Biso   1.000  H
  C190     1.0000 0.30260  0.21290  0.20800  Biso   1.000  C
  H157     1.0000 0.33650  0.18630  0.21950  Biso   1.000  H
  N32      1.0000 0.08030  0.27260  0.22180  Biso   1.000  N
  H158     1.0000 0.05660  0.24520  0.23280  Biso   1.000  H
  H159     1.0000 0.04740  0.28260  0.20010  Biso   1.000  H
  C191     1.0000 0.16420  0.26170  0.20810  Biso   1.000  C
  C192     1.0000 0.19840  0.29140  0.17490  Biso   1.000  C
  H160     1.0000 0.16460  0.31780  0.16310  Biso   1.000  H
  In1      1.0000 0.37500  0.37500  0.06555  Biso   1.000  In
  In2      1.0000 0.37500  0.87500  0.56555  Biso   1.000  In
  In3      1.0000 0.87500  0.37500  0.56555  Biso   1.000  In
  In4      1.0000 0.87500  0.87500  0.06555  Biso   1.000  In
  In5      1.0000 0.62500  0.62500  0.31555  Biso   1.000  In
  In6      1.0000 0.62500  0.12500  0.81555  Biso   1.000  In
  In7      1.0000 0.12500  0.62500  0.81555  Biso   1.000  In
  In8      1.0000 0.12500  0.12500  0.31555  Biso   1.000  In
  O65      1.0000 0.48770  0.41140  0.72041  Biso   1.000  O
  O66      1.0000 0.35390  0.43618  0.73236  Biso   1.000  O
  O67      1.0000 0.51170  0.58759  0.89867  Biso   1.000  O
  O68      1.0000 0.64620  0.56740  0.88271  Biso   1.000  O
  N33      1.0000 0.31910  0.50050  0.79480  Biso   1.000  N
  H161     1.0000 0.30240  0.48070  0.77340  Biso   1.000  H
  H162     1.0000 0.29130  0.49050  0.81840  Biso   1.000  H
  C193     1.0000 0.43500  0.43850  0.74101  Biso   1.000  C
  C194     1.0000 0.46720  0.47180  0.77527  Biso   1.000  C
  C195     1.0000 0.40910  0.49840  0.80060  Biso   1.000  C
  C196     1.0000 0.44400  0.52770  0.83310  Biso   1.000  C
  H163     1.0000 0.40490  0.54580  0.85100  Biso   1.000  H
  C197     1.0000 0.53230  0.53170  0.84056  Biso   1.000  C
  C198     1.0000 0.56500  0.56389  0.87597  Biso   1.000  C
  C199     1.0000 0.58940  0.50450  0.81590  Biso   1.000  C
  H164     1.0000 0.65080  0.50590  0.82100  Biso   1.000  H
  C200     1.0000 0.55560  0.47460  0.78290  Biso   1.000  C
  H165     1.0000 0.59490  0.45600  0.76550  Biso   1.000  H
  C201     1.0000 0.58780  0.49150  0.82430  Biso   1.000  C
  H166     1.0000 0.64490  0.48540  0.83530  Biso   1.000  H
  C202     1.0000 0.55260  0.46290  0.79200  Biso   1.000  C
  H167     1.0000 0.58650  0.43630  0.78050  Biso   1.000  H
  N34      1.0000 0.33030  0.52260  0.77820  Biso   1.000  N
  H168     1.0000 0.30660  0.49520  0.76720  Biso   1.000  H
  H169     1.0000 0.29740  0.53260  0.79990  Biso   1.000  H
  C203     1.0000 0.41420  0.51170  0.79190  Biso   1.000  C
  C204     1.0000 0.44840  0.54140  0.82510  Biso   1.000  C
  H170     1.0000 0.41460  0.56780  0.83690  Biso   1.000  H
  O69      1.0000 0.48770  0.91140  0.22041  Biso   1.000  O
  O70      1.0000 0.35390  0.93618  0.23236  Biso   1.000  O
  O71      1.0000 0.51170  0.08759  0.39867  Biso   1.000  O
  O72      1.0000 0.64620  0.06740  0.38271  Biso   1.000  O
  N35      1.0000 0.31910  0.00050  0.29480  Biso   1.000  N
  H171     1.0000 0.30240  0.98070  0.27340  Biso   1.000  H
  H172     1.0000 0.29130  0.99050  0.31840  Biso   1.000  H
  C205     1.0000 0.43500  0.93850  0.24101  Biso   1.000  C
  C206     1.0000 0.46720  0.97180  0.27527  Biso   1.000  C
  C207     1.0000 0.40910  0.99840  0.30060  Biso   1.000  C
  C208     1.0000 0.44400  0.02770  0.33310  Biso   1.000  C
  H173     1.0000 0.40490  0.04580  0.35100  Biso   1.000  H
  C209     1.0000 0.53230  0.03170  0.34056  Biso   1.000  C
  C210     1.0000 0.56500  0.06389  0.37597  Biso   1.000  C
  C211     1.0000 0.58940  0.00450  0.31590  Biso   1.000  C
  H174     1.0000 0.65080  0.00590  0.32100  Biso   1.000  H
  C212     1.0000 0.55560  0.97460  0.28290  Biso   1.000  C
  H175     1.0000 0.59490  0.95600  0.26550  Biso   1.000  H
  C213     1.0000 0.58780  0.99150  0.32430  Biso   1.000  C
  H176     1.0000 0.64490  0.98540  0.33530  Biso   1.000  H
  C214     1.0000 0.55260  0.96290  0.29200  Biso   1.000  C
  H177     1.0000 0.58650  0.93630  0.28050  Biso   1.000  H
  N36      1.0000 0.33030  0.02260  0.27820  Biso   1.000  N
  H178     1.0000 0.30660  0.99520  0.26720  Biso   1.000  H
  H179     1.0000 0.29740  0.03260  0.29990  Biso   1.000  H
  C215     1.0000 0.41420  0.01170  0.29190  Biso   1.000  C
  C216     1.0000 0.44840  0.04140  0.32510  Biso   1.000  C
  H180     1.0000 0.41460  0.06780  0.33690  Biso   1.000  H
  O73      1.0000 0.98770  0.41140  0.22041  Biso   1.000  O
  O74      1.0000 0.85390  0.43618  0.23236  Biso   1.000  O
  O75      1.0000 0.01170  0.58759  0.39867  Biso   1.000  O
  O76      1.0000 0.14620  0.56740  0.38271  Biso   1.000  O
  N37      1.0000 0.81910  0.50050  0.29480  Biso   1.000  N
  H181     1.0000 0.80240  0.48070  0.27340  Biso   1.000  H
  H182     1.0000 0.79130  0.49050  0.31840  Biso   1.000  H
  C217     1.0000 0.93500  0.43850  0.24101  Biso   1.000  C
  C218     1.0000 0.96720  0.47180  0.27527  Biso   1.000  C
  C219     1.0000 0.90910  0.49840  0.30060  Biso   1.000  C
  C220     1.0000 0.94400  0.52770  0.33310  Biso   1.000  C
  H183     1.0000 0.90490  0.54580  0.35100  Biso   1.000  H
  C221     1.0000 0.03230  0.53170  0.34056  Biso   1.000  C
  C222     1.0000 0.06500  0.56389  0.37597  Biso   1.000  C
  C223     1.0000 0.08940  0.50450  0.31590  Biso   1.000  C
  H184     1.0000 0.15080  0.50590  0.32100  Biso   1.000  H
  C224     1.0000 0.05560  0.47460  0.28290  Biso   1.000  C
  H185     1.0000 0.09490  0.45600  0.26550  Biso   1.000  H
  C225     1.0000 0.08780  0.49150  0.32430  Biso   1.000  C
  H186     1.0000 0.14490  0.48540  0.33530  Biso   1.000  H
  C226     1.0000 0.05260  0.46290  0.29200  Biso   1.000  C
  H187     1.0000 0.08650  0.43630  0.28050  Biso   1.000  H
  N38      1.0000 0.83030  0.52260  0.27820  Biso   1.000  N
  H188     1.0000 0.80660  0.49520  0.26720  Biso   1.000  H
  H189     1.0000 0.79740  0.53260  0.29990  Biso   1.000  H
  C227     1.0000 0.91420  0.51170  0.29190  Biso   1.000  C
  C228     1.0000 0.94840  0.54140  0.32510  Biso   1.000  C
  H190     1.0000 0.91460  0.56780  0.33690  Biso   1.000  H
  O77      1.0000 0.98770  0.91140  0.72041  Biso   1.000  O
  O78      1.0000 0.85390  0.93618  0.73236  Biso   1.000  O
  O79      1.0000 0.01170  0.08759  0.89867  Biso   1.000  O
  O80      1.0000 0.14620  0.06740  0.88271  Biso   1.000  O
  N39      1.0000 0.81910  0.00050  0.79480  Biso   1.000  N
  H191     1.0000 0.80240  0.98070  0.77340  Biso   1.000  H
  H192     1.0000 0.79130  0.99050  0.81840  Biso   1.000  H
  C229     1.0000 0.93500  0.93850  0.74101  Biso   1.000  C
  C230     1.0000 0.96720  0.97180  0.77527  Biso   1.000  C
  C231     1.0000 0.90910  0.99840  0.80060  Biso   1.000  C
  C232     1.0000 0.94400  0.02770  0.83310  Biso   1.000  C
  H193     1.0000 0.90490  0.04580  0.85100  Biso   1.000  H
  C233     1.0000 0.03230  0.03170  0.84056  Biso   1.000  C
  C234     1.0000 0.06500  0.06389  0.87597  Biso   1.000  C
  C235     1.0000 0.08940  0.00450  0.81590  Biso   1.000  C
  H194     1.0000 0.15080  0.00590  0.82100  Biso   1.000  H
  C236     1.0000 0.05560  0.97460  0.78290  Biso   1.000  C
  H195     1.0000 0.09490  0.95600  0.76550  Biso   1.000  H
  C237     1.0000 0.08780  0.99150  0.82430  Biso   1.000  C
  H196     1.0000 0.14490  0.98540  0.83530  Biso   1.000  H
  C238     1.0000 0.05260  0.96290  0.79200  Biso   1.000  C
  H197     1.0000 0.08650  0.93630  0.78050  Biso   1.000  H
  N40      1.0000 0.83030  0.02260  0.77820  Biso   1.000  N
  H198     1.0000 0.80660  0.99520  0.76720  Biso   1.000  H
  H199     1.0000 0.79740  0.03260  0.79990  Biso   1.000  H
  C239     1.0000 0.91420  0.01170  0.79190  Biso   1.000  C
  C240     1.0000 0.94840  0.04140  0.82510  Biso   1.000  C
  H200     1.0000 0.91460  0.06780  0.83690  Biso   1.000  H
  O81      1.0000 0.26230  0.33860  0.72041  Biso   1.000  O
  O82      1.0000 0.39610  0.31382  0.73236  Biso   1.000  O
  O83      1.0000 0.23830  0.16241  0.89867  Biso   1.000  O
  O84      1.0000 0.10380  0.18260  0.88271  Biso   1.000  O
  N41      1.0000 0.43090  0.24950  0.79480  Biso   1.000  N
  H201     1.0000 0.44760  0.26930  0.77340  Biso   1.000  H
  H202     1.0000 0.45870  0.25950  0.81840  Biso   1.000  H
  C241     1.0000 0.31500  0.31150  0.74101  Biso   1.000  C
  C242     1.0000 0.28280  0.27820  0.77527  Biso   1.000  C
  C243     1.0000 0.34090  0.25160  0.80060  Biso   1.000  C
  C244     1.0000 0.30600  0.22230  0.83310  Biso   1.000  C
  H203     1.0000 0.34510  0.20420  0.85100  Biso   1.000  H
  C245     1.0000 0.21770  0.21830  0.84056  Biso   1.000  C
  C246     1.0000 0.18500  0.18611  0.87597  Biso   1.000  C
  C247     1.0000 0.16060  0.24550  0.81590  Biso   1.000  C
  H204     1.0000 0.09920  0.24410  0.82100  Biso   1.000  H
  C248     1.0000 0.19440  0.27540  0.78290  Biso   1.000  C
  H205     1.0000 0.15510  0.29400  0.76550  Biso   1.000  H
  C249     1.0000 0.16220  0.25850  0.82430  Biso   1.000  C
  H206     1.0000 0.10510  0.26460  0.83530  Biso   1.000  H
  C250     1.0000 0.19740  0.28710  0.79200  Biso   1.000  C
  H207     1.0000 0.16350  0.31370  0.78050  Biso   1.000  H
  N42      1.0000 0.41970  0.22740  0.77820  Biso   1.000  N
  H208     1.0000 0.44340  0.25480  0.76720  Biso   1.000  H
  H209     1.0000 0.45260  0.21740  0.79990  Biso   1.000  H
  C251     1.0000 0.33580  0.23830  0.79190  Biso   1.000  C
  C252     1.0000 0.30160  0.20860  0.82510  Biso   1.000  C
  H210     1.0000 0.33540  0.18220  0.83690  Biso   1.000  H
  O85      1.0000 0.26230  0.83860  0.22041  Biso   1.000  O
  O86      1.0000 0.39610  0.81382  0.23236  Biso   1.000  O
  O87      1.0000 0.23830  0.66241  0.39867  Biso   1.000  O
  O88      1.0000 0.10380  0.68260  0.38271  Biso   1.000  O
  N43      1.0000 0.43090  0.74950  0.29480  Biso   1.000  N
  H211     1.0000 0.44760  0.76930  0.27340  Biso   1.000  H
  H212     1.0000 0.45870  0.75950  0.31840  Biso   1.000  H
  C253     1.0000 0.31500  0.81150  0.24101  Biso   1.000  C
  C254     1.0000 0.28280  0.77820  0.27527  Biso   1.000  C
  C255     1.0000 0.34090  0.75160  0.30060  Biso   1.000  C
  C256     1.0000 0.30600  0.72230  0.33310  Biso   1.000  C
  H213     1.0000 0.34510  0.70420  0.35100  Biso   1.000  H
  C257     1.0000 0.21770  0.71830  0.34056  Biso   1.000  C
  C258     1.0000 0.18500  0.68611  0.37597  Biso   1.000  C
  C259     1.0000 0.16060  0.74550  0.31590  Biso   1.000  C
  H214     1.0000 0.09920  0.74410  0.32100  Biso   1.000  H
  C260     1.0000 0.19440  0.77540  0.28290  Biso   1.000  C
  H215     1.0000 0.15510  0.79400  0.26550  Biso   1.000  H
  C261     1.0000 0.16220  0.75850  0.32430  Biso   1.000  C
  H216     1.0000 0.10510  0.76460  0.33530  Biso   1.000  H
  C262     1.0000 0.19740  0.78710  0.29200  Biso   1.000  C
  H217     1.0000 0.16350  0.81370  0.28050  Biso   1.000  H
  N44      1.0000 0.41970  0.72740  0.27820  Biso   1.000  N
  H218     1.0000 0.44340  0.75480  0.26720  Biso   1.000  H
  H219     1.0000 0.45260  0.71740  0.29990  Biso   1.000  H
  C263     1.0000 0.33580  0.73830  0.29190  Biso   1.000  C
  C264     1.0000 0.30160  0.70860  0.32510  Biso   1.000  C
  H220     1.0000 0.33540  0.68220  0.33690  Biso   1.000  H
  O89      1.0000 0.76230  0.33860  0.22041  Biso   1.000  O
  O90      1.0000 0.89610  0.31382  0.23236  Biso   1.000  O
  O91      1.0000 0.73830  0.16241  0.39867  Biso   1.000  O
  O92      1.0000 0.60380  0.18260  0.38271  Biso   1.000  O
  N45      1.0000 0.93090  0.24950  0.29480  Biso   1.000  N
  H221     1.0000 0.94760  0.26930  0.27340  Biso   1.000  H
  H222     1.0000 0.95870  0.25950  0.31840  Biso   1.000  H
  C265     1.0000 0.81500  0.31150  0.24101  Biso   1.000  C
  C266     1.0000 0.78280  0.27820  0.27527  Biso   1.000  C
  C267     1.0000 0.84090  0.25160  0.30060  Biso   1.000  C
  C268     1.0000 0.80600  0.22230  0.33310  Biso   1.000  C
  H223     1.0000 0.84510  0.20420  0.35100  Biso   1.000  H
  C269     1.0000 0.71770  0.21830  0.34056  Biso   1.000  C
  C270     1.0000 0.68500  0.18611  0.37597  Biso   1.000  C
  C271     1.0000 0.66060  0.24550  0.31590  Biso   1.000  C
  H224     1.0000 0.59920  0.24410  0.32100  Biso   1.000  H
  C272     1.0000 0.69440  0.27540  0.28290  Biso   1.000  C
  H225     1.0000 0.65510  0.29400  0.26550  Biso   1.000  H
  C273     1.0000 0.66220  0.25850  0.32430  Biso   1.000  C
  H226     1.0000 0.60510  0.26460  0.33530  Biso   1.000  H
  C274     1.0000 0.69740  0.28710  0.29200  Biso   1.000  C
  H227     1.0000 0.66350  0.31370  0.28050  Biso   1.000  H
  N46      1.0000 0.91970  0.22740  0.27820  Biso   1.000  N
  H228     1.0000 0.94340  0.25480  0.26720  Biso   1.000  H
  H229     1.0000 0.95260  0.21740  0.29990  Biso   1.000  H
  C275     1.0000 0.83580  0.23830  0.29190  Biso   1.000  C
  C276     1.0000 0.80160  0.20860  0.32510  Biso   1.000  C
  H230     1.0000 0.83540  0.18220  0.33690  Biso   1.000  H
  O93      1.0000 0.76230  0.83860  0.72041  Biso   1.000  O
  O94      1.0000 0.89610  0.81382  0.73236  Biso   1.000  O
  O95      1.0000 0.73830  0.66241  0.89867  Biso   1.000  O
  O96      1.0000 0.60380  0.68260  0.88271  Biso   1.000  O
  N47      1.0000 0.93090  0.74950  0.79480  Biso   1.000  N
  H231     1.0000 0.94760  0.76930  0.77340  Biso   1.000  H
  H232     1.0000 0.95870  0.75950  0.81840  Biso   1.000  H
  C277     1.0000 0.81500  0.81150  0.74101  Biso   1.000  C
  C278     1.0000 0.78280  0.77820  0.77527  Biso   1.000  C
  C279     1.0000 0.84090  0.75160  0.80060  Biso   1.000  C
  C280     1.0000 0.80600  0.72230  0.83310  Biso   1.000  C
  H233     1.0000 0.84510  0.70420  0.85100  Biso   1.000  H
  C281     1.0000 0.71770  0.71830  0.84056  Biso   1.000  C
  C282     1.0000 0.68500  0.68611  0.87597  Biso   1.000  C
  C283     1.0000 0.66060  0.74550  0.81590  Biso   1.000  C
  H234     1.0000 0.59920  0.74410  0.82100  Biso   1.000  H
  C284     1.0000 0.69440  0.77540  0.78290  Biso   1.000  C
  H235     1.0000 0.65510  0.79400  0.76550  Biso   1.000  H
  C285     1.0000 0.66220  0.75850  0.82430  Biso   1.000  C
  H236     1.0000 0.60510  0.76460  0.83530  Biso   1.000  H
  C286     1.0000 0.69740  0.78710  0.79200  Biso   1.000  C
  H237     1.0000 0.66350  0.81370  0.78050  Biso   1.000  H
  N48      1.0000 0.91970  0.72740  0.77820  Biso   1.000  N
  H238     1.0000 0.94340  0.75480  0.76720  Biso   1.000  H
  H239     1.0000 0.95260  0.71740  0.79990  Biso   1.000  H
  C287     1.0000 0.83580  0.73830  0.79190  Biso   1.000  C
  C288     1.0000 0.80160  0.70860  0.82510  Biso   1.000  C
  H240     1.0000 0.83540  0.68220  0.83690  Biso   1.000  H
  O97      1.0000 0.73770  0.58860  0.97041  Biso   1.000  O
  O98      1.0000 0.60390  0.56382  0.98236  Biso   1.000  O
  O99      1.0000 0.76170  0.41241  0.14867  Biso   1.000  O
  O100     1.0000 0.89620  0.43260  0.13271  Biso   1.000  O
  N49      1.0000 0.56910  0.49950  0.04480  Biso   1.000  N
  H241     1.0000 0.55240  0.51930  0.02340  Biso   1.000  H
  H242     1.0000 0.54130  0.50950  0.06840  Biso   1.000  H
  C289     1.0000 0.68500  0.56150  0.99101  Biso   1.000  C
  C290     1.0000 0.71720  0.52820  0.02527  Biso   1.000  C
  C291     1.0000 0.65910  0.50160  0.05060  Biso   1.000  C
  C292     1.0000 0.69400  0.47230  0.08310  Biso   1.000  C
  H243     1.0000 0.65490  0.45420  0.10100  Biso   1.000  H
  C293     1.0000 0.78230  0.46830  0.09056  Biso   1.000  C
  C294     1.0000 0.81500  0.43611  0.12597  Biso   1.000  C
  C295     1.0000 0.83940  0.49550  0.06590  Biso   1.000  C
  H244     1.0000 0.90080  0.49410  0.07100  Biso   1.000  H
  C296     1.0000 0.80560  0.52540  0.03290  Biso   1.000  C
  H245     1.0000 0.84490  0.54400  0.01550  Biso   1.000  H
  C297     1.0000 0.83780  0.50850  0.07430  Biso   1.000  C
  H246     1.0000 0.89490  0.51460  0.08530  Biso   1.000  H
  C298     1.0000 0.80260  0.53710  0.04200  Biso   1.000  C
  H247     1.0000 0.83650  0.56370  0.03050  Biso   1.000  H
  N50      1.0000 0.58030  0.47740  0.02820  Biso   1.000  N
  H248     1.0000 0.55660  0.50480  0.01720  Biso   1.000  H
  H249     1.0000 0.54740  0.46740  0.04990  Biso   1.000  H
  C299     1.0000 0.66420  0.48830  0.04190  Biso   1.000  C
  C300     1.0000 0.69840  0.45860  0.07510  Biso   1.000  C
  H250     1.0000 0.66460  0.43220  0.08690  Biso   1.000  H
  O101     1.0000 0.73770  0.08860  0.47041  Biso   1.000  O
  O102     1.0000 0.60390  0.06382  0.48236  Biso   1.000  O
  O103     1.0000 0.76170  0.91241  0.64867  Biso   1.000  O
  O104     1.0000 0.89620  0.93260  0.63271  Biso   1.000  O
  N51      1.0000 0.56910  0.99950  0.54480  Biso   1.000  N
  H251     1.0000 0.55240  0.01930  0.52340  Biso   1.000  H
  H252     1.0000 0.54130  0.00950  0.56840  Biso   1.000  H
  C301     1.0000 0.68500  0.06150  0.49101  Biso   1.000  C
  C302     1.0000 0.71720  0.02820  0.52527  Biso   1.000  C
  C303     1.0000 0.65910  0.00160  0.55060  Biso   1.000  C
  C304     1.0000 0.69400  0.97230  0.58310  Biso   1.000  C
  H253     1.0000 0.65490  0.95420  0.60100  Biso   1.000  H
  C305     1.0000 0.78230  0.96830  0.59056  Biso   1.000  C
  C306     1.0000 0.81500  0.93611  0.62597  Biso   1.000  C
  C307     1.0000 0.83940  0.99550  0.56590  Biso   1.000  C
  H254     1.0000 0.90080  0.99410  0.57100  Biso   1.000  H
  C308     1.0000 0.80560  0.02540  0.53290  Biso   1.000  C
  H255     1.0000 0.84490  0.04400  0.51550  Biso   1.000  H
  C309     1.0000 0.83780  0.00850  0.57430  Biso   1.000  C
  H256     1.0000 0.89490  0.01460  0.58530  Biso   1.000  H
  C310     1.0000 0.80260  0.03710  0.54200  Biso   1.000  C
  H257     1.0000 0.83650  0.06370  0.53050  Biso   1.000  H
  N52      1.0000 0.58030  0.97740  0.52820  Biso   1.000  N
  H258     1.0000 0.55660  0.00480  0.51720  Biso   1.000  H
  H259     1.0000 0.54740  0.96740  0.54990  Biso   1.000  H
  C311     1.0000 0.66420  0.98830  0.54190  Biso   1.000  C
  C312     1.0000 0.69840  0.95860  0.57510  Biso   1.000  C
  H260     1.0000 0.66460  0.93220  0.58690  Biso   1.000  H
  O105     1.0000 0.23770  0.58860  0.47041  Biso   1.000  O
  O106     1.0000 0.10390  0.56382  0.48236  Biso   1.000  O
  O107     1.0000 0.26170  0.41241  0.64867  Biso   1.000  O
  O108     1.0000 0.39620  0.43260  0.63271  Biso   1.000  O
  N53      1.0000 0.06910  0.49950  0.54480  Biso   1.000  N
  H261     1.0000 0.05240  0.51930  0.52340  Biso   1.000  H
  H262     1.0000 0.04130  0.50950  0.56840  Biso   1.000  H
  C313     1.0000 0.18500  0.56150  0.49101  Biso   1.000  C
  C314     1.0000 0.21720  0.52820  0.52527  Biso   1.000  C
  C315     1.0000 0.15910  0.50160  0.55060  Biso   1.000  C
  C316     1.0000 0.19400  0.47230  0.58310  Biso   1.000  C
  H263     1.0000 0.15490  0.45420  0.60100  Biso   1.000  H
  C317     1.0000 0.28230  0.46830  0.59056  Biso   1.000  C
  C318     1.0000 0.31500  0.43611  0.62597  Biso   1.000  C
  C319     1.0000 0.33940  0.49550  0.56590  Biso   1.000  C
  H264     1.0000 0.40080  0.49410  0.57100  Biso   1.000  H
  C320     1.0000 0.30560  0.52540  0.53290  Biso   1.000  C
  H265     1.0000 0.34490  0.54400  0.51550  Biso   1.000  H
  C321     1.0000 0.33780  0.50850  0.57430  Biso   1.000  C
  H266     1.0000 0.39490  0.51460  0.58530  Biso   1.000  H
  C322     1.0000 0.30260  0.53710  0.54200  Biso   1.000  C
  H267     1.0000 0.33650  0.56370  0.53050  Biso   1.000  H
  N54      1.0000 0.08030  0.47740  0.52820  Biso   1.000  N
  H268     1.0000 0.05660  0.50480  0.51720  Biso   1.000  H
  H269     1.0000 0.04740  0.46740  0.54990  Biso   1.000  H
  C323     1.0000 0.16420  0.48830  0.54190  Biso   1.000  C
  C324     1.0000 0.19840  0.45860  0.57510  Biso   1.000  C
  H270     1.0000 0.16460  0.43220  0.58690  Biso   1.000  H
  O109     1.0000 0.23770  0.08860  0.97041  Biso   1.000  O
  O110     1.0000 0.10390  0.06382  0.98236  Biso   1.000  O
  O111     1.0000 0.26170  0.91241  0.14867  Biso   1.000  O
  O112     1.0000 0.39620  0.93260  0.13271  Biso   1.000  O
  N55      1.0000 0.06910  0.99950  0.04480  Biso   1.000  N
  H271     1.0000 0.05240  0.01930  0.02340  Biso   1.000  H
  H272     1.0000 0.04130  0.00950  0.06840  Biso   1.000  H
  C325     1.0000 0.18500  0.06150  0.99101  Biso   1.000  C
  C326     1.0000 0.21720  0.02820  0.02527  Biso   1.000  C
  C327     1.0000 0.15910  0.00160  0.05060  Biso   1.000  C
  C328     1.0000 0.19400  0.97230  0.08310  Biso   1.000  C
  H273     1.0000 0.15490  0.95420  0.10100  Biso   1.000  H
  C329     1.0000 0.28230  0.96830  0.09056  Biso   1.000  C
  C330     1.0000 0.31500  0.93611  0.12597  Biso   1.000  C
  C331     1.0000 0.33940  0.99550  0.06590  Biso   1.000  C
  H274     1.0000 0.40080  0.99410  0.07100  Biso   1.000  H
  C332     1.0000 0.30560  0.02540  0.03290  Biso   1.000  C
  H275     1.0000 0.34490  0.04400  0.01550  Biso   1.000  H
  C333     1.0000 0.33780  0.00850  0.07430  Biso   1.000  C
  H276     1.0000 0.39490  0.01460  0.08530  Biso   1.000  H
  C334     1.0000 0.30260  0.03710  0.04200  Biso   1.000  C
  H277     1.0000 0.33650  0.06370  0.03050  Biso   1.000  H
  N56      1.0000 0.08030  0.97740  0.02820  Biso   1.000  N
  H278     1.0000 0.05660  0.00480  0.01720  Biso   1.000  H
  H279     1.0000 0.04740  0.96740  0.04990  Biso   1.000  H
  C335     1.0000 0.16420  0.98830  0.04190  Biso   1.000  C
  C336     1.0000 0.19840  0.95860  0.07510  Biso   1.000  C
  H280     1.0000 0.16460  0.93220  0.08690  Biso   1.000  H
  O113     1.0000 0.51230  0.66140  0.97041  Biso   1.000  O
  O114     1.0000 0.64610  0.68618  0.98236  Biso   1.000  O
  O115     1.0000 0.48830  0.83759  0.14867  Biso   1.000  O
  O116     1.0000 0.35380  0.81740  0.13271  Biso   1.000  O
  N57      1.0000 0.68090  0.75050  0.04480  Biso   1.000  N
  H281     1.0000 0.69760  0.73070  0.02340  Biso   1.000  H
  H282     1.0000 0.70870  0.74050  0.06840  Biso   1.000  H
  C337     1.0000 0.56500  0.68850  0.99101  Biso   1.000  C
  C338     1.0000 0.53280  0.72180  0.02527  Biso   1.000  C
  C339     1.0000 0.59090  0.74840  0.05060  Biso   1.000  C
  C340     1.0000 0.55600  0.77770  0.08310  Biso   1.000  C
  H283     1.0000 0.59510  0.79580  0.10100  Biso   1.000  H
  C341     1.0000 0.46770  0.78170  0.09056  Biso   1.000  C
  C342     1.0000 0.43500  0.81389  0.12597  Biso   1.000  C
  C343     1.0000 0.41060  0.75450  0.06590  Biso   1.000  C
  H284     1.0000 0.34920  0.75590  0.07100  Biso   1.000  H
  C344     1.0000 0.44440  0.72460  0.03290  Biso   1.000  C
  H285     1.0000 0.40510  0.70600  0.01550  Biso   1.000  H
  C345     1.0000 0.41220  0.74150  0.07430  Biso   1.000  C
  H286     1.0000 0.35510  0.73540  0.08530  Biso   1.000  H
  C346     1.0000 0.44740  0.71290  0.04200  Biso   1.000  C
  H287     1.0000 0.41350  0.68630  0.03050  Biso   1.000  H
  N58      1.0000 0.66970  0.77260  0.02820  Biso   1.000  N
  H288     1.0000 0.69340  0.74520  0.01720  Biso   1.000  H
  H289     1.0000 0.70260  0.78260  0.04990  Biso   1.000  H
  C347     1.0000 0.58580  0.76170  0.04190  Biso   1.000  C
  C348     1.0000 0.55160  0.79140  0.07510  Biso   1.000  C
  H290     1.0000 0.58540  0.81780  0.08690  Biso   1.000  H
  O117     1.0000 0.51230  0.16140  0.47041  Biso   1.000  O
  O118     1.0000 0.64610  0.18618  0.48236  Biso   1.000  O
  O119     1.0000 0.48830  0.33759  0.64867  Biso   1.000  O
  O120     1.0000 0.35380  0.31740  0.63271  Biso   1.000  O
  N59      1.0000 0.68090  0.25050  0.54480  Biso   1.000  N
  H291     1.0000 0.69760  0.23070  0.52340  Biso   1.000  H
  H292     1.0000 0.70870  0.24050  0.56840  Biso   1.000  H
  C349     1.0000 0.56500  0.18850  0.49101  Biso   1.000  C
  C350     1.0000 0.53280  0.22180  0.52527  Biso   1.000  C
  C351     1.0000 0.59090  0.24840  0.55060  Biso   1.000  C
  C352     1.0000 0.55600  0.27770  0.58310  Biso   1.000  C
  H293     1.0000 0.59510  0.29580  0.60100  Biso   1.000  H
  C353     1.0000 0.46770  0.28170  0.59056  Biso   1.000  C
  C354     1.0000 0.43500  0.31389  0.62597  Biso   1.000  C
  C355     1.0000 0.41060  0.25450  0.56590  Biso   1.000  C
  H294     1.0000 0.34920  0.25590  0.57100  Biso   1.000  H
  C356     1.0000 0.44440  0.22460  0.53290  Biso   1.000  C
  H295     1.0000 0.40510  0.20600  0.51550  Biso   1.000  H
  C357     1.0000 0.41220  0.24150  0.57430  Biso   1.000  C
  H296     1.0000 0.35510  0.23540  0.58530  Biso   1.000  H
  C358     1.0000 0.44740  0.21290  0.54200  Biso   1.000  C
  H297     1.0000 0.41350  0.18630  0.53050  Biso   1.000  H
  N60      1.0000 0.66970  0.27260  0.52820  Biso   1.000  N
  H298     1.0000 0.69340  0.24520  0.51720  Biso   1.000  H
  H299     1.0000 0.70260  0.28260  0.54990  Biso   1.000  H
  C359     1.0000 0.58580  0.26170  0.54190  Biso   1.000  C
  C360     1.0000 0.55160  0.29140  0.57510  Biso   1.000  C
  H300     1.0000 0.58540  0.31780  0.58690  Biso   1.000  H
  O121     1.0000 0.01230  0.66140  0.47041  Biso   1.000  O
  O122     1.0000 0.14610  0.68618  0.48236  Biso   1.000  O
  O123     1.0000 0.98830  0.83759  0.64867  Biso   1.000  O
  O124     1.0000 0.85380  0.81740  0.63271  Biso   1.000  O
  N61      1.0000 0.18090  0.75050  0.54480  Biso   1.000  N
  H301     1.0000 0.19760  0.73070  0.52340  Biso   1.000  H
  H302     1.0000 0.20870  0.74050  0.56840  Biso   1.000  H
  C361     1.0000 0.06500  0.68850  0.49101  Biso   1.000  C
  C362     1.0000 0.03280  0.72180  0.52527  Biso   1.000  C
  C363     1.0000 0.09090  0.74840  0.55060  Biso   1.000  C
  C364     1.0000 0.05600  0.77770  0.58310  Biso   1.000  C
  H303     1.0000 0.09510  0.79580  0.60100  Biso   1.000  H
  C365     1.0000 0.96770  0.78170  0.59056  Biso   1.000  C
  C366     1.0000 0.93500  0.81389  0.62597  Biso   1.000  C
  C367     1.0000 0.91060  0.75450  0.56590  Biso   1.000  C
  H304     1.0000 0.84920  0.75590  0.57100  Biso   1.000  H
  C368     1.0000 0.94440  0.72460  0.53290  Biso   1.000  C
  H305     1.0000 0.90510  0.70600  0.51550  Biso   1.000  H
  C369     1.0000 0.91220  0.74150  0.57430  Biso   1.000  C
  H306     1.0000 0.85510  0.73540  0.58530  Biso   1.000  H
  C370     1.0000 0.94740  0.71290  0.54200  Biso   1.000  C
  H307     1.0000 0.91350  0.68630  0.53050  Biso   1.000  H
  N62      1.0000 0.16970  0.77260  0.52820  Biso   1.000  N
  H308     1.0000 0.19340  0.74520  0.51720  Biso   1.000  H
  H309     1.0000 0.20260  0.78260  0.54990  Biso   1.000  H
  C371     1.0000 0.08580  0.76170  0.54190  Biso   1.000  C
  C372     1.0000 0.05160  0.79140  0.57510  Biso   1.000  C
  H310     1.0000 0.08540  0.81780  0.58690  Biso   1.000  H
  O125     1.0000 0.01230  0.16140  0.97041  Biso   1.000  O
  O126     1.0000 0.14610  0.18618  0.98236  Biso   1.000  O
  O127     1.0000 0.98830  0.33759  0.14867  Biso   1.000  O
  O128     1.0000 0.85380  0.31740  0.13271  Biso   1.000  O
  N63      1.0000 0.18090  0.25050  0.04480  Biso   1.000  N
  H311     1.0000 0.19760  0.23070  0.02340  Biso   1.000  H
  H312     1.0000 0.20870  0.24050  0.06840  Biso   1.000  H
  C373     1.0000 0.06500  0.18850  0.99101  Biso   1.000  C
  C374     1.0000 0.03280  0.22180  0.02527  Biso   1.000  C
  C375     1.0000 0.09090  0.24840  0.05060  Biso   1.000  C
  C376     1.0000 0.05600  0.27770  0.08310  Biso   1.000  C
  H313     1.0000 0.09510  0.29580  0.10100  Biso   1.000  H
  C377     1.0000 0.96770  0.28170  0.09056  Biso   1.000  C
  C378     1.0000 0.93500  0.31389  0.12597  Biso   1.000  C
  C379     1.0000 0.91060  0.25450  0.06590  Biso   1.000  C
  H314     1.0000 0.84920  0.25590  0.07100  Biso   1.000  H
  C380     1.0000 0.94440  0.22460  0.03290  Biso   1.000  C
  H315     1.0000 0.90510  0.20600  0.01550  Biso   1.000  H
  C381     1.0000 0.91220  0.24150  0.07430  Biso   1.000  C
  H316     1.0000 0.85510  0.23540  0.08530  Biso   1.000  H
  C382     1.0000 0.94740  0.21290  0.04200  Biso   1.000  C
  H317     1.0000 0.91350  0.18630  0.03050  Biso   1.000  H
  N64      1.0000 0.16970  0.27260  0.02820  Biso   1.000  N
  H318     1.0000 0.19340  0.24520  0.01720  Biso   1.000  H
  H319     1.0000 0.20260  0.28260  0.04990  Biso   1.000  H
  C383     1.0000 0.08580  0.26170  0.04190  Biso   1.000  C
  C384     1.0000 0.05160  0.29140  0.07510  Biso   1.000  C
  H320     1.0000 0.08540  0.31780  0.08690  Biso   1.000  H
  In9      1.0000 0.37500  0.37500  0.68445  Biso   1.000  In
  In10     1.0000 0.37500  0.87500  0.18445  Biso   1.000  In
  In11     1.0000 0.87500  0.37500  0.18445  Biso   1.000  In
  In12     1.0000 0.87500  0.87500  0.68445  Biso   1.000  In
  In13     1.0000 0.62500  0.62500  0.93445  Biso   1.000  In
  In14     1.0000 0.62500  0.12500  0.43445  Biso   1.000  In
  In15     1.0000 0.12500  0.62500  0.43445  Biso   1.000  In
  In16     1.0000 0.12500  0.12500  0.93445  Biso   1.000  In
