data_image0
_cell_length_a       15.3069
_cell_length_b       26.9467
_cell_length_c       31.284
_cell_angle_alpha    90
_cell_angle_beta     90
_cell_angle_gamma    90

_symmetry_space_group_name_H-M    "P 1"
_symmetry_int_tables_number       1

loop_
  _symmetry_equiv_pos_as_xyz
  'x, y, z'

loop_
  _atom_site_label
  _atom_site_occupancy
  _atom_site_fract_x
  _atom_site_fract_y
  _atom_site_fract_z
  _atom_site_thermal_displace_type
  _atom_site_B_iso_or_equiv
  _atom_site_type_symbol
  O1       1.0000 0.39630  0.43611  0.01764  Biso   1.000  O
  O2       1.0000 0.26280  0.41161  0.02976  Biso   1.000  O
  O3       1.0000 0.10400  0.56777  0.86779  Biso   1.000  O
  O4       1.0000 0.23830  0.58756  0.85149  Biso   1.000  O
  C1       1.0000 0.31510  0.43843  0.00915  Biso   1.000  C
  C2       1.0000 0.28320  0.47200  0.97485  Biso   1.000  C
  C3       1.0000 0.21790  0.53200  0.90974  Biso   1.000  C
  C4       1.0000 0.18510  0.56419  0.87438  Biso   1.000  C
  N1       1.0000 0.42110  0.52060  0.97050  Biso   1.000  N
  H1       1.0000 0.44250  0.49420  0.98380  Biso   1.000  H
  H2       1.0000 0.45450  0.52720  0.94810  Biso   1.000  H
  C5       1.0000 0.33690  0.51110  0.95750  Biso   1.000  C
  C6       1.0000 0.19760  0.46340  0.95880  Biso   1.000  C
  H3       1.0000 0.16390  0.43700  0.97030  Biso   1.000  H
  C7       1.0000 0.30170  0.54100  0.92490  Biso   1.000  C
  H4       1.0000 0.33530  0.56740  0.91320  Biso   1.000  H
  C8       1.0000 0.16190  0.49290  0.92640  Biso   1.000  C
  H5       1.0000 0.10440  0.48760  0.91600  Biso   1.000  H
  N2       1.0000 0.43240  0.50010  0.95420  Biso   1.000  N
  H6       1.0000 0.44970  0.47780  0.97310  Biso   1.000  H
  H7       1.0000 0.46090  0.49530  0.93000  Biso   1.000  H
  C9       1.0000 0.34110  0.49820  0.94940  Biso   1.000  C
  C10      1.0000 0.30610  0.52790  0.91690  Biso   1.000  C
  H8       1.0000 0.34500  0.54600  0.89910  Biso   1.000  H
  C11      1.0000 0.16000  0.50540  0.93490  Biso   1.000  C
  H9       1.0000 0.09880  0.50750  0.93040  Biso   1.000  H
  C12      1.0000 0.19480  0.47530  0.96760  Biso   1.000  C
  H10      1.0000 0.15610  0.45670  0.98500  Biso   1.000  H
  O5       1.0000 0.39630  0.93611  0.51764  Biso   1.000  O
  O6       1.0000 0.26280  0.91161  0.52976  Biso   1.000  O
  O7       1.0000 0.10400  0.06777  0.36779  Biso   1.000  O
  O8       1.0000 0.23830  0.08756  0.35149  Biso   1.000  O
  C13      1.0000 0.31510  0.93843  0.50915  Biso   1.000  C
  C14      1.0000 0.28320  0.97200  0.47485  Biso   1.000  C
  C15      1.0000 0.21790  0.03200  0.40974  Biso   1.000  C
  C16      1.0000 0.18510  0.06419  0.37438  Biso   1.000  C
  N3       1.0000 0.42110  0.02060  0.47050  Biso   1.000  N
  H11      1.0000 0.44250  0.99420  0.48380  Biso   1.000  H
  H12      1.0000 0.45450  0.02720  0.44810  Biso   1.000  H
  C17      1.0000 0.33690  0.01110  0.45750  Biso   1.000  C
  C18      1.0000 0.19760  0.96340  0.45880  Biso   1.000  C
  H13      1.0000 0.16390  0.93700  0.47030  Biso   1.000  H
  C19      1.0000 0.30170  0.04100  0.42490  Biso   1.000  C
  H14      1.0000 0.33530  0.06740  0.41320  Biso   1.000  H
  C20      1.0000 0.16190  0.99290  0.42640  Biso   1.000  C
  H15      1.0000 0.10440  0.98760  0.41600  Biso   1.000  H
  N4       1.0000 0.43240  0.00010  0.45420  Biso   1.000  N
  H16      1.0000 0.44970  0.97780  0.47310  Biso   1.000  H
  H17      1.0000 0.46090  0.99530  0.43000  Biso   1.000  H
  C21      1.0000 0.34110  0.99820  0.44940  Biso   1.000  C
  C22      1.0000 0.30610  0.02790  0.41690  Biso   1.000  C
  H18      1.0000 0.34500  0.04600  0.39910  Biso   1.000  H
  C23      1.0000 0.16000  0.00540  0.43490  Biso   1.000  C
  H19      1.0000 0.09880  0.00750  0.43040  Biso   1.000  H
  C24      1.0000 0.19480  0.97530  0.46760  Biso   1.000  C
  H20      1.0000 0.15610  0.95670  0.48500  Biso   1.000  H
  O9       1.0000 0.89630  0.43611  0.51764  Biso   1.000  O
  O10      1.0000 0.76280  0.41161  0.52976  Biso   1.000  O
  O11      1.0000 0.60400  0.56777  0.36779  Biso   1.000  O
  O12      1.0000 0.73830  0.58756  0.35149  Biso   1.000  O
  C25      1.0000 0.81510  0.43843  0.50915  Biso   1.000  C
  C26      1.0000 0.78320  0.47200  0.47485  Biso   1.000  C
  C27      1.0000 0.71790  0.53200  0.40974  Biso   1.000  C
  C28      1.0000 0.68510  0.56419  0.37438  Biso   1.000  C
  N5       1.0000 0.92110  0.52060  0.47050  Biso   1.000  N
  H21      1.0000 0.94250  0.49420  0.48380  Biso   1.000  H
  H22      1.0000 0.95450  0.52720  0.44810  Biso   1.000  H
  C29      1.0000 0.83690  0.51110  0.45750  Biso   1.000  C
  C30      1.0000 0.69760  0.46340  0.45880  Biso   1.000  C
  H23      1.0000 0.66390  0.43700  0.47030  Biso   1.000  H
  C31      1.0000 0.80170  0.54100  0.42490  Biso   1.000  C
  H24      1.0000 0.83530  0.56740  0.41320  Biso   1.000  H
  C32      1.0000 0.66190  0.49290  0.42640  Biso   1.000  C
  H25      1.0000 0.60440  0.48760  0.41600  Biso   1.000  H
  N6       1.0000 0.93240  0.50010  0.45420  Biso   1.000  N
  H26      1.0000 0.94970  0.47780  0.47310  Biso   1.000  H
  H27      1.0000 0.96090  0.49530  0.43000  Biso   1.000  H
  C33      1.0000 0.84110  0.49820  0.44940  Biso   1.000  C
  C34      1.0000 0.80610  0.52790  0.41690  Biso   1.000  C
  H28      1.0000 0.84500  0.54600  0.39910  Biso   1.000  H
  C35      1.0000 0.66000  0.50540  0.43490  Biso   1.000  C
  H29      1.0000 0.59880  0.50750  0.43040  Biso   1.000  H
  C36      1.0000 0.69480  0.47530  0.46760  Biso   1.000  C
  H30      1.0000 0.65610  0.45670  0.48500  Biso   1.000  H
  O13      1.0000 0.89630  0.93611  0.01764  Biso   1.000  O
  O14      1.0000 0.76280  0.91161  0.02976  Biso   1.000  O
  O15      1.0000 0.60400  0.06777  0.86779  Biso   1.000  O
  O16      1.0000 0.73830  0.08756  0.85149  Biso   1.000  O
  C37      1.0000 0.81510  0.93843  0.00915  Biso   1.000  C
  C38      1.0000 0.78320  0.97200  0.97485  Biso   1.000  C
  C39      1.0000 0.71790  0.03200  0.90974  Biso   1.000  C
  C40      1.0000 0.68510  0.06419  0.87438  Biso   1.000  C
  N7       1.0000 0.92110  0.02060  0.97050  Biso   1.000  N
  H31      1.0000 0.94250  0.99420  0.98380  Biso   1.000  H
  H32      1.0000 0.95450  0.02720  0.94810  Biso   1.000  H
  C41      1.0000 0.83690  0.01110  0.95750  Biso   1.000  C
  C42      1.0000 0.69760  0.96340  0.95880  Biso   1.000  C
  H33      1.0000 0.66390  0.93700  0.97030  Biso   1.000  H
  C43      1.0000 0.80170  0.04100  0.92490  Biso   1.000  C
  H34      1.0000 0.83530  0.06740  0.91320  Biso   1.000  H
  C44      1.0000 0.66190  0.99290  0.92640  Biso   1.000  C
  H35      1.0000 0.60440  0.98760  0.91600  Biso   1.000  H
  N8       1.0000 0.93240  0.00010  0.95420  Biso   1.000  N
  H36      1.0000 0.94970  0.97780  0.97310  Biso   1.000  H
  H37      1.0000 0.96090  0.99530  0.93000  Biso   1.000  H
  C45      1.0000 0.84110  0.99820  0.94940  Biso   1.000  C
  C46      1.0000 0.80610  0.02790  0.91690  Biso   1.000  C
  H38      1.0000 0.84500  0.04600  0.89910  Biso   1.000  H
  C47      1.0000 0.66000  0.00540  0.93490  Biso   1.000  C
  H39      1.0000 0.59880  0.00750  0.93040  Biso   1.000  H
  C48      1.0000 0.69480  0.97530  0.96760  Biso   1.000  C
  H40      1.0000 0.65610  0.95670  0.98500  Biso   1.000  H
  O17      1.0000 0.35370  0.31389  0.01764  Biso   1.000  O
  O18      1.0000 0.48720  0.33839  0.02976  Biso   1.000  O
  O19      1.0000 0.64600  0.18223  0.86779  Biso   1.000  O
  O20      1.0000 0.51170  0.16244  0.85149  Biso   1.000  O
  C49      1.0000 0.43490  0.31157  0.00915  Biso   1.000  C
  C50      1.0000 0.46680  0.27800  0.97485  Biso   1.000  C
  C51      1.0000 0.53210  0.21800  0.90974  Biso   1.000  C
  C52      1.0000 0.56490  0.18581  0.87438  Biso   1.000  C
  N9       1.0000 0.32890  0.22940  0.97050  Biso   1.000  N
  H41      1.0000 0.30750  0.25580  0.98380  Biso   1.000  H
  H42      1.0000 0.29550  0.22280  0.94810  Biso   1.000  H
  C53      1.0000 0.41310  0.23890  0.95750  Biso   1.000  C
  C54      1.0000 0.55240  0.28660  0.95880  Biso   1.000  C
  H43      1.0000 0.58610  0.31300  0.97030  Biso   1.000  H
  C55      1.0000 0.44830  0.20900  0.92490  Biso   1.000  C
  H44      1.0000 0.41470  0.18260  0.91320  Biso   1.000  H
  C56      1.0000 0.58810  0.25710  0.92640  Biso   1.000  C
  H45      1.0000 0.64560  0.26240  0.91600  Biso   1.000  H
  N10      1.0000 0.31760  0.24990  0.95420  Biso   1.000  N
  H46      1.0000 0.30030  0.27220  0.97310  Biso   1.000  H
  H47      1.0000 0.28910  0.25470  0.93000  Biso   1.000  H
  C57      1.0000 0.40890  0.25180  0.94940  Biso   1.000  C
  C58      1.0000 0.44390  0.22210  0.91690  Biso   1.000  C
  H48      1.0000 0.40500  0.20400  0.89910  Biso   1.000  H
  C59      1.0000 0.59000  0.24460  0.93490  Biso   1.000  C
  H49      1.0000 0.65120  0.24250  0.93040  Biso   1.000  H
  C60      1.0000 0.55520  0.27470  0.96760  Biso   1.000  C
  H50      1.0000 0.59390  0.29330  0.98500  Biso   1.000  H
  O21      1.0000 0.35370  0.81389  0.51764  Biso   1.000  O
  O22      1.0000 0.48720  0.83839  0.52976  Biso   1.000  O
  O23      1.0000 0.64600  0.68223  0.36779  Biso   1.000  O
  O24      1.0000 0.51170  0.66244  0.35149  Biso   1.000  O
  C61      1.0000 0.43490  0.81157  0.50915  Biso   1.000  C
  C62      1.0000 0.46680  0.77800  0.47485  Biso   1.000  C
  C63      1.0000 0.53210  0.71800  0.40974  Biso   1.000  C
  C64      1.0000 0.56490  0.68581  0.37438  Biso   1.000  C
  N11      1.0000 0.32890  0.72940  0.47050  Biso   1.000  N
  H51      1.0000 0.30750  0.75580  0.48380  Biso   1.000  H
  H52      1.0000 0.29550  0.72280  0.44810  Biso   1.000  H
  C65      1.0000 0.41310  0.73890  0.45750  Biso   1.000  C
  C66      1.0000 0.55240  0.78660  0.45880  Biso   1.000  C
  H53      1.0000 0.58610  0.81300  0.47030  Biso   1.000  H
  C67      1.0000 0.44830  0.70900  0.42490  Biso   1.000  C
  H54      1.0000 0.41470  0.68260  0.41320  Biso   1.000  H
  C68      1.0000 0.58810  0.75710  0.42640  Biso   1.000  C
  H55      1.0000 0.64560  0.76240  0.41600  Biso   1.000  H
  N12      1.0000 0.31760  0.74990  0.45420  Biso   1.000  N
  H56      1.0000 0.30030  0.77220  0.47310  Biso   1.000  H
  H57      1.0000 0.28910  0.75470  0.43000  Biso   1.000  H
  C69      1.0000 0.40890  0.75180  0.44940  Biso   1.000  C
  C70      1.0000 0.44390  0.72210  0.41690  Biso   1.000  C
  H58      1.0000 0.40500  0.70400  0.39910  Biso   1.000  H
  C71      1.0000 0.59000  0.74460  0.43490  Biso   1.000  C
  H59      1.0000 0.65120  0.74250  0.43040  Biso   1.000  H
  C72      1.0000 0.55520  0.77470  0.46760  Biso   1.000  C
  H60      1.0000 0.59390  0.79330  0.48500  Biso   1.000  H
  O25      1.0000 0.85370  0.31389  0.51764  Biso   1.000  O
  O26      1.0000 0.98720  0.33839  0.52976  Biso   1.000  O
  O27      1.0000 0.14600  0.18223  0.36779  Biso   1.000  O
  O28      1.0000 0.01170  0.16244  0.35149  Biso   1.000  O
  C73      1.0000 0.93490  0.31157  0.50915  Biso   1.000  C
  C74      1.0000 0.96680  0.27800  0.47485  Biso   1.000  C
  C75      1.0000 0.03210  0.21800  0.40974  Biso   1.000  C
  C76      1.0000 0.06490  0.18581  0.37438  Biso   1.000  C
  N13      1.0000 0.82890  0.22940  0.47050  Biso   1.000  N
  H61      1.0000 0.80750  0.25580  0.48380  Biso   1.000  H
  H62      1.0000 0.79550  0.22280  0.44810  Biso   1.000  H
  C77      1.0000 0.91310  0.23890  0.45750  Biso   1.000  C
  C78      1.0000 0.05240  0.28660  0.45880  Biso   1.000  C
  H63      1.0000 0.08610  0.31300  0.47030  Biso   1.000  H
  C79      1.0000 0.94830  0.20900  0.42490  Biso   1.000  C
  H64      1.0000 0.91470  0.18260  0.41320  Biso   1.000  H
  C80      1.0000 0.08810  0.25710  0.42640  Biso   1.000  C
  H65      1.0000 0.14560  0.26240  0.41600  Biso   1.000  H
  N14      1.0000 0.81760  0.24990  0.45420  Biso   1.000  N
  H66      1.0000 0.80030  0.27220  0.47310  Biso   1.000  H
  H67      1.0000 0.78910  0.25470  0.43000  Biso   1.000  H
  C81      1.0000 0.90890  0.25180  0.44940  Biso   1.000  C
  C82      1.0000 0.94390  0.22210  0.41690  Biso   1.000  C
  H68      1.0000 0.90500  0.20400  0.39910  Biso   1.000  H
  C83      1.0000 0.09000  0.24460  0.43490  Biso   1.000  C
  H69      1.0000 0.15120  0.24250  0.43040  Biso   1.000  H
  C84      1.0000 0.05520  0.27470  0.46760  Biso   1.000  C
  H70      1.0000 0.09390  0.29330  0.48500  Biso   1.000  H
  O29      1.0000 0.85370  0.81389  0.01764  Biso   1.000  O
  O30      1.0000 0.98720  0.83839  0.02976  Biso   1.000  O
  O31      1.0000 0.14600  0.68223  0.86779  Biso   1.000  O
  O32      1.0000 0.01170  0.66244  0.85149  Biso   1.000  O
  C85      1.0000 0.93490  0.81157  0.00915  Biso   1.000  C
  C86      1.0000 0.96680  0.77800  0.97485  Biso   1.000  C
  C87      1.0000 0.03210  0.71800  0.90974  Biso   1.000  C
  C88      1.0000 0.06490  0.68581  0.87438  Biso   1.000  C
  N15      1.0000 0.82890  0.72940  0.97050  Biso   1.000  N
  H71      1.0000 0.80750  0.75580  0.98380  Biso   1.000  H
  H72      1.0000 0.79550  0.72280  0.94810  Biso   1.000  H
  C89      1.0000 0.91310  0.73890  0.95750  Biso   1.000  C
  C90      1.0000 0.05240  0.78660  0.95880  Biso   1.000  C
  H73      1.0000 0.08610  0.81300  0.97030  Biso   1.000  H
  C91      1.0000 0.94830  0.70900  0.92490  Biso   1.000  C
  H74      1.0000 0.91470  0.68260  0.91320  Biso   1.000  H
  C92      1.0000 0.08810  0.75710  0.92640  Biso   1.000  C
  H75      1.0000 0.14560  0.76240  0.91600  Biso   1.000  H
  N16      1.0000 0.81760  0.74990  0.95420  Biso   1.000  N
  H76      1.0000 0.80030  0.77220  0.97310  Biso   1.000  H
  H77      1.0000 0.78910  0.75470  0.93000  Biso   1.000  H
  C93      1.0000 0.90890  0.75180  0.94940  Biso   1.000  C
  C94      1.0000 0.94390  0.72210  0.91690  Biso   1.000  C
  H78      1.0000 0.90500  0.70400  0.89910  Biso   1.000  H
  C95      1.0000 0.09000  0.74460  0.93490  Biso   1.000  C
  H79      1.0000 0.15120  0.74250  0.93040  Biso   1.000  H
  C96      1.0000 0.05520  0.77470  0.96760  Biso   1.000  C
  H80      1.0000 0.09390  0.79330  0.98500  Biso   1.000  H
  O33      1.0000 0.64630  0.56389  0.26764  Biso   1.000  O
  O34      1.0000 0.51280  0.58839  0.27976  Biso   1.000  O
  O35      1.0000 0.35400  0.43223  0.11779  Biso   1.000  O
  O36      1.0000 0.48830  0.41244  0.10149  Biso   1.000  O
  C97      1.0000 0.56510  0.56157  0.25915  Biso   1.000  C
  C98      1.0000 0.53320  0.52800  0.22485  Biso   1.000  C
  C99      1.0000 0.46790  0.46800  0.15974  Biso   1.000  C
  C100     1.0000 0.43510  0.43581  0.12438  Biso   1.000  C
  N17      1.0000 0.67110  0.47940  0.22050  Biso   1.000  N
  H81      1.0000 0.69250  0.50580  0.23380  Biso   1.000  H
  H82      1.0000 0.70450  0.47280  0.19810  Biso   1.000  H
  C101     1.0000 0.58690  0.48890  0.20750  Biso   1.000  C
  C102     1.0000 0.44760  0.53660  0.20880  Biso   1.000  C
  H83      1.0000 0.41390  0.56300  0.22030  Biso   1.000  H
  C103     1.0000 0.55170  0.45900  0.17490  Biso   1.000  C
  H84      1.0000 0.58530  0.43260  0.16320  Biso   1.000  H
  C104     1.0000 0.41190  0.50710  0.17640  Biso   1.000  C
  H85      1.0000 0.35440  0.51240  0.16600  Biso   1.000  H
  N18      1.0000 0.68240  0.49990  0.20420  Biso   1.000  N
  H86      1.0000 0.69970  0.52220  0.22310  Biso   1.000  H
  H87      1.0000 0.71090  0.50470  0.18000  Biso   1.000  H
  C105     1.0000 0.59110  0.50180  0.19940  Biso   1.000  C
  C106     1.0000 0.55610  0.47210  0.16690  Biso   1.000  C
  H88      1.0000 0.59500  0.45400  0.14910  Biso   1.000  H
  C107     1.0000 0.41000  0.49460  0.18490  Biso   1.000  C
  H89      1.0000 0.34880  0.49250  0.18040  Biso   1.000  H
  C108     1.0000 0.44480  0.52470  0.21760  Biso   1.000  C
  H90      1.0000 0.40610  0.54330  0.23500  Biso   1.000  H
  O37      1.0000 0.64630  0.06389  0.76764  Biso   1.000  O
  O38      1.0000 0.51280  0.08839  0.77976  Biso   1.000  O
  O39      1.0000 0.35400  0.93223  0.61779  Biso   1.000  O
  O40      1.0000 0.48830  0.91244  0.60149  Biso   1.000  O
  C109     1.0000 0.56510  0.06157  0.75915  Biso   1.000  C
  C110     1.0000 0.53320  0.02800  0.72485  Biso   1.000  C
  C111     1.0000 0.46790  0.96800  0.65974  Biso   1.000  C
  C112     1.0000 0.43510  0.93581  0.62438  Biso   1.000  C
  N19      1.0000 0.67110  0.97940  0.72050  Biso   1.000  N
  H91      1.0000 0.69250  0.00580  0.73380  Biso   1.000  H
  H92      1.0000 0.70450  0.97280  0.69810  Biso   1.000  H
  C113     1.0000 0.58690  0.98890  0.70750  Biso   1.000  C
  C114     1.0000 0.44760  0.03660  0.70880  Biso   1.000  C
  H93      1.0000 0.41390  0.06300  0.72030  Biso   1.000  H
  C115     1.0000 0.55170  0.95900  0.67490  Biso   1.000  C
  H94      1.0000 0.58530  0.93260  0.66320  Biso   1.000  H
  C116     1.0000 0.41190  0.00710  0.67640  Biso   1.000  C
  H95      1.0000 0.35440  0.01240  0.66600  Biso   1.000  H
  N20      1.0000 0.68240  0.99990  0.70420  Biso   1.000  N
  H96      1.0000 0.69970  0.02220  0.72310  Biso   1.000  H
  H97      1.0000 0.71090  0.00470  0.68000  Biso   1.000  H
  C117     1.0000 0.59110  0.00180  0.69940  Biso   1.000  C
  C118     1.0000 0.55610  0.97210  0.66690  Biso   1.000  C
  H98      1.0000 0.59500  0.95400  0.64910  Biso   1.000  H
  C119     1.0000 0.41000  0.99460  0.68490  Biso   1.000  C
  H99      1.0000 0.34880  0.99250  0.68040  Biso   1.000  H
  C120     1.0000 0.44480  0.02470  0.71760  Biso   1.000  C
  H100     1.0000 0.40610  0.04330  0.73500  Biso   1.000  H
  O41      1.0000 0.14630  0.56389  0.76764  Biso   1.000  O
  O42      1.0000 0.01280  0.58839  0.77976  Biso   1.000  O
  O43      1.0000 0.85400  0.43223  0.61779  Biso   1.000  O
  O44      1.0000 0.98830  0.41244  0.60149  Biso   1.000  O
  C121     1.0000 0.06510  0.56157  0.75915  Biso   1.000  C
  C122     1.0000 0.03320  0.52800  0.72485  Biso   1.000  C
  C123     1.0000 0.96790  0.46800  0.65974  Biso   1.000  C
  C124     1.0000 0.93510  0.43581  0.62438  Biso   1.000  C
  N21      1.0000 0.17110  0.47940  0.72050  Biso   1.000  N
  H101     1.0000 0.19250  0.50580  0.73380  Biso   1.000  H
  H102     1.0000 0.20450  0.47280  0.69810  Biso   1.000  H
  C125     1.0000 0.08690  0.48890  0.70750  Biso   1.000  C
  C126     1.0000 0.94760  0.53660  0.70880  Biso   1.000  C
  H103     1.0000 0.91390  0.56300  0.72030  Biso   1.000  H
  C127     1.0000 0.05170  0.45900  0.67490  Biso   1.000  C
  H104     1.0000 0.08530  0.43260  0.66320  Biso   1.000  H
  C128     1.0000 0.91190  0.50710  0.67640  Biso   1.000  C
  H105     1.0000 0.85440  0.51240  0.66600  Biso   1.000  H
  N22      1.0000 0.18240  0.49990  0.70420  Biso   1.000  N
  H106     1.0000 0.19970  0.52220  0.72310  Biso   1.000  H
  H107     1.0000 0.21090  0.50470  0.68000  Biso   1.000  H
  C129     1.0000 0.09110  0.50180  0.69940  Biso   1.000  C
  C130     1.0000 0.05610  0.47210  0.66690  Biso   1.000  C
  H108     1.0000 0.09500  0.45400  0.64910  Biso   1.000  H
  C131     1.0000 0.91000  0.49460  0.68490  Biso   1.000  C
  H109     1.0000 0.84880  0.49250  0.68040  Biso   1.000  H
  C132     1.0000 0.94480  0.52470  0.71760  Biso   1.000  C
  H110     1.0000 0.90610  0.54330  0.73500  Biso   1.000  H
  O45      1.0000 0.14630  0.06389  0.26764  Biso   1.000  O
  O46      1.0000 0.01280  0.08839  0.27976  Biso   1.000  O
  O47      1.0000 0.85400  0.93223  0.11779  Biso   1.000  O
  O48      1.0000 0.98830  0.91244  0.10149  Biso   1.000  O
  C133     1.0000 0.06510  0.06157  0.25915  Biso   1.000  C
  C134     1.0000 0.03320  0.02800  0.22485  Biso   1.000  C
  C135     1.0000 0.96790  0.96800  0.15974  Biso   1.000  C
  C136     1.0000 0.93510  0.93581  0.12438  Biso   1.000  C
  N23      1.0000 0.17110  0.97940  0.22050  Biso   1.000  N
  H111     1.0000 0.19250  0.00580  0.23380  Biso   1.000  H
  H112     1.0000 0.20450  0.97280  0.19810  Biso   1.000  H
  C137     1.0000 0.08690  0.98890  0.20750  Biso   1.000  C
  C138     1.0000 0.94760  0.03660  0.20880  Biso   1.000  C
  H113     1.0000 0.91390  0.06300  0.22030  Biso   1.000  H
  C139     1.0000 0.05170  0.95900  0.17490  Biso   1.000  C
  H114     1.0000 0.08530  0.93260  0.16320  Biso   1.000  H
  C140     1.0000 0.91190  0.00710  0.17640  Biso   1.000  C
  H115     1.0000 0.85440  0.01240  0.16600  Biso   1.000  H
  N24      1.0000 0.18240  0.99990  0.20420  Biso   1.000  N
  H116     1.0000 0.19970  0.02220  0.22310  Biso   1.000  H
  H117     1.0000 0.21090  0.00470  0.18000  Biso   1.000  H
  C141     1.0000 0.09110  0.00180  0.19940  Biso   1.000  C
  C142     1.0000 0.05610  0.97210  0.16690  Biso   1.000  C
  H118     1.0000 0.09500  0.95400  0.14910  Biso   1.000  H
  C143     1.0000 0.91000  0.99460  0.18490  Biso   1.000  C
  H119     1.0000 0.84880  0.99250  0.18040  Biso   1.000  H
  C144     1.0000 0.94480  0.02470  0.21760  Biso   1.000  C
  H120     1.0000 0.90610  0.04330  0.23500  Biso   1.000  H
  O49      1.0000 0.60370  0.68611  0.26764  Biso   1.000  O
  O50      1.0000 0.73720  0.66161  0.27976  Biso   1.000  O
  O51      1.0000 0.89600  0.81777  0.11779  Biso   1.000  O
  O52      1.0000 0.76170  0.83756  0.10149  Biso   1.000  O
  C145     1.0000 0.68490  0.68843  0.25915  Biso   1.000  C
  C146     1.0000 0.71680  0.72200  0.22485  Biso   1.000  C
  C147     1.0000 0.78210  0.78200  0.15974  Biso   1.000  C
  C148     1.0000 0.81490  0.81419  0.12438  Biso   1.000  C
  N25      1.0000 0.57890  0.77060  0.22050  Biso   1.000  N
  H121     1.0000 0.55750  0.74420  0.23380  Biso   1.000  H
  H122     1.0000 0.54550  0.77720  0.19810  Biso   1.000  H
  C149     1.0000 0.66310  0.76110  0.20750  Biso   1.000  C
  C150     1.0000 0.80240  0.71340  0.20880  Biso   1.000  C
  H123     1.0000 0.83610  0.68700  0.22030  Biso   1.000  H
  C151     1.0000 0.69830  0.79100  0.17490  Biso   1.000  C
  H124     1.0000 0.66470  0.81740  0.16320  Biso   1.000  H
  C152     1.0000 0.83810  0.74290  0.17640  Biso   1.000  C
  H125     1.0000 0.89560  0.73760  0.16600  Biso   1.000  H
  N26      1.0000 0.56760  0.75010  0.20420  Biso   1.000  N
  H126     1.0000 0.55030  0.72780  0.22310  Biso   1.000  H
  H127     1.0000 0.53910  0.74530  0.18000  Biso   1.000  H
  C153     1.0000 0.65890  0.74820  0.19940  Biso   1.000  C
  C154     1.0000 0.69390  0.77790  0.16690  Biso   1.000  C
  H128     1.0000 0.65500  0.79600  0.14910  Biso   1.000  H
  C155     1.0000 0.84000  0.75540  0.18490  Biso   1.000  C
  H129     1.0000 0.90120  0.75750  0.18040  Biso   1.000  H
  C156     1.0000 0.80520  0.72530  0.21760  Biso   1.000  C
  H130     1.0000 0.84390  0.70670  0.23500  Biso   1.000  H
  O53      1.0000 0.60370  0.18611  0.76764  Biso   1.000  O
  O54      1.0000 0.73720  0.16161  0.77976  Biso   1.000  O
  O55      1.0000 0.89600  0.31777  0.61779  Biso   1.000  O
  O56      1.0000 0.76170  0.33756  0.60149  Biso   1.000  O
  C157     1.0000 0.68490  0.18843  0.75915  Biso   1.000  C
  C158     1.0000 0.71680  0.22200  0.72485  Biso   1.000  C
  C159     1.0000 0.78210  0.28200  0.65974  Biso   1.000  C
  C160     1.0000 0.81490  0.31419  0.62438  Biso   1.000  C
  N27      1.0000 0.57890  0.27060  0.72050  Biso   1.000  N
  H131     1.0000 0.55750  0.24420  0.73380  Biso   1.000  H
  H132     1.0000 0.54550  0.27720  0.69810  Biso   1.000  H
  C161     1.0000 0.66310  0.26110  0.70750  Biso   1.000  C
  C162     1.0000 0.80240  0.21340  0.70880  Biso   1.000  C
  H133     1.0000 0.83610  0.18700  0.72030  Biso   1.000  H
  C163     1.0000 0.69830  0.29100  0.67490  Biso   1.000  C
  H134     1.0000 0.66470  0.31740  0.66320  Biso   1.000  H
  C164     1.0000 0.83810  0.24290  0.67640  Biso   1.000  C
  H135     1.0000 0.89560  0.23760  0.66600  Biso   1.000  H
  N28      1.0000 0.56760  0.25010  0.70420  Biso   1.000  N
  H136     1.0000 0.55030  0.22780  0.72310  Biso   1.000  H
  H137     1.0000 0.53910  0.24530  0.68000  Biso   1.000  H
  C165     1.0000 0.65890  0.24820  0.69940  Biso   1.000  C
  C166     1.0000 0.69390  0.27790  0.66690  Biso   1.000  C
  H138     1.0000 0.65500  0.29600  0.64910  Biso   1.000  H
  C167     1.0000 0.84000  0.25540  0.68490  Biso   1.000  C
  H139     1.0000 0.90120  0.25750  0.68040  Biso   1.000  H
  C168     1.0000 0.80520  0.22530  0.71760  Biso   1.000  C
  H140     1.0000 0.84390  0.20670  0.73500  Biso   1.000  H
  O57      1.0000 0.10370  0.68611  0.76764  Biso   1.000  O
  O58      1.0000 0.23720  0.66161  0.77976  Biso   1.000  O
  O59      1.0000 0.39600  0.81777  0.61779  Biso   1.000  O
  O60      1.0000 0.26170  0.83756  0.60149  Biso   1.000  O
  C169     1.0000 0.18490  0.68843  0.75915  Biso   1.000  C
  C170     1.0000 0.21680  0.72200  0.72485  Biso   1.000  C
  C171     1.0000 0.28210  0.78200  0.65974  Biso   1.000  C
  C172     1.0000 0.31490  0.81419  0.62438  Biso   1.000  C
  N29      1.0000 0.07890  0.77060  0.72050  Biso   1.000  N
  H141     1.0000 0.05750  0.74420  0.73380  Biso   1.000  H
  H142     1.0000 0.04550  0.77720  0.69810  Biso   1.000  H
  C173     1.0000 0.16310  0.76110  0.70750  Biso   1.000  C
  C174     1.0000 0.30240  0.71340  0.70880  Biso   1.000  C
  H143     1.0000 0.33610  0.68700  0.72030  Biso   1.000  H
  C175     1.0000 0.19830  0.79100  0.67490  Biso   1.000  C
  H144     1.0000 0.16470  0.81740  0.66320  Biso   1.000  H
  C176     1.0000 0.33810  0.74290  0.67640  Biso   1.000  C
  H145     1.0000 0.39560  0.73760  0.66600  Biso   1.000  H
  N30      1.0000 0.06760  0.75010  0.70420  Biso   1.000  N
  H146     1.0000 0.05030  0.72780  0.72310  Biso   1.000  H
  H147     1.0000 0.03910  0.74530  0.68000  Biso   1.000  H
  C177     1.0000 0.15890  0.74820  0.69940  Biso   1.000  C
  C178     1.0000 0.19390  0.77790  0.66690  Biso   1.000  C
  H148     1.0000 0.15500  0.79600  0.64910  Biso   1.000  H
  C179     1.0000 0.34000  0.75540  0.68490  Biso   1.000  C
  H149     1.0000 0.40120  0.75750  0.68040  Biso   1.000  H
  C180     1.0000 0.30520  0.72530  0.71760  Biso   1.000  C
  H150     1.0000 0.34390  0.70670  0.73500  Biso   1.000  H
  O61      1.0000 0.10370  0.18611  0.26764  Biso   1.000  O
  O62      1.0000 0.23720  0.16161  0.27976  Biso   1.000  O
  O63      1.0000 0.39600  0.31777  0.11779  Biso   1.000  O
  O64      1.0000 0.26170  0.33756  0.10149  Biso   1.000  O
  C181     1.0000 0.18490  0.18843  0.25915  Biso   1.000  C
  C182     1.0000 0.21680  0.22200  0.22485  Biso   1.000  C
  C183     1.0000 0.28210  0.28200  0.15974  Biso   1.000  C
  C184     1.0000 0.31490  0.31419  0.12438  Biso   1.000  C
  N31      1.0000 0.07890  0.27060  0.22050  Biso   1.000  N
  H151     1.0000 0.05750  0.24420  0.23380  Biso   1.000  H
  H152     1.0000 0.04550  0.27720  0.19810  Biso   1.000  H
  C185     1.0000 0.16310  0.26110  0.20750  Biso   1.000  C
  C186     1.0000 0.30240  0.21340  0.20880  Biso   1.000  C
  H153     1.0000 0.33610  0.18700  0.22030  Biso   1.000  H
  C187     1.0000 0.19830  0.29100  0.17490  Biso   1.000  C
  H154     1.0000 0.16470  0.31740  0.16320  Biso   1.000  H
  C188     1.0000 0.33810  0.24290  0.17640  Biso   1.000  C
  H155     1.0000 0.39560  0.23760  0.16600  Biso   1.000  H
  N32      1.0000 0.06760  0.25010  0.20420  Biso   1.000  N
  H156     1.0000 0.05030  0.22780  0.22310  Biso   1.000  H
  H157     1.0000 0.03910  0.24530  0.18000  Biso   1.000  H
  C189     1.0000 0.15890  0.24820  0.19940  Biso   1.000  C
  C190     1.0000 0.19390  0.27790  0.16690  Biso   1.000  C
  H158     1.0000 0.15500  0.29600  0.14910  Biso   1.000  H
  C191     1.0000 0.34000  0.25540  0.18490  Biso   1.000  C
  H159     1.0000 0.40120  0.25750  0.18040  Biso   1.000  H
  C192     1.0000 0.30520  0.22530  0.21760  Biso   1.000  C
  H160     1.0000 0.34390  0.20670  0.23500  Biso   1.000  H
  In1      1.0000 0.37500  0.37500  0.06570  Biso   1.000  In
  In2      1.0000 0.37500  0.87500  0.56570  Biso   1.000  In
  In3      1.0000 0.87500  0.37500  0.56570  Biso   1.000  In
  In4      1.0000 0.87500  0.87500  0.06570  Biso   1.000  In
  In5      1.0000 0.62500  0.62500  0.31570  Biso   1.000  In
  In6      1.0000 0.62500  0.12500  0.81570  Biso   1.000  In
  In7      1.0000 0.12500  0.62500  0.81570  Biso   1.000  In
  In8      1.0000 0.12500  0.12500  0.31570  Biso   1.000  In
  O65      1.0000 0.35370  0.43611  0.73236  Biso   1.000  O
  O66      1.0000 0.48720  0.41161  0.72024  Biso   1.000  O
  O67      1.0000 0.64600  0.56777  0.88221  Biso   1.000  O
  O68      1.0000 0.51170  0.58756  0.89851  Biso   1.000  O
  C193     1.0000 0.43490  0.43843  0.74085  Biso   1.000  C
  C194     1.0000 0.46680  0.47200  0.77515  Biso   1.000  C
  C195     1.0000 0.53210  0.53200  0.84026  Biso   1.000  C
  C196     1.0000 0.56490  0.56419  0.87562  Biso   1.000  C
  N33      1.0000 0.32890  0.52060  0.77950  Biso   1.000  N
  H161     1.0000 0.30750  0.49420  0.76620  Biso   1.000  H
  H162     1.0000 0.29550  0.52720  0.80190  Biso   1.000  H
  C197     1.0000 0.41310  0.51110  0.79250  Biso   1.000  C
  C198     1.0000 0.55240  0.46340  0.79120  Biso   1.000  C
  H163     1.0000 0.58610  0.43700  0.77970  Biso   1.000  H
  C199     1.0000 0.44830  0.54100  0.82510  Biso   1.000  C
  H164     1.0000 0.41470  0.56740  0.83680  Biso   1.000  H
  C200     1.0000 0.58810  0.49290  0.82360  Biso   1.000  C
  H165     1.0000 0.64560  0.48760  0.83400  Biso   1.000  H
  N34      1.0000 0.31760  0.50010  0.79580  Biso   1.000  N
  H166     1.0000 0.30030  0.47780  0.77690  Biso   1.000  H
  H167     1.0000 0.28910  0.49530  0.82000  Biso   1.000  H
  C201     1.0000 0.40890  0.49820  0.80060  Biso   1.000  C
  C202     1.0000 0.44390  0.52790  0.83310  Biso   1.000  C
  H168     1.0000 0.40500  0.54600  0.85090  Biso   1.000  H
  C203     1.0000 0.59000  0.50540  0.81510  Biso   1.000  C
  H169     1.0000 0.65120  0.50750  0.81960  Biso   1.000  H
  C204     1.0000 0.55520  0.47530  0.78240  Biso   1.000  C
  H170     1.0000 0.59390  0.45670  0.76500  Biso   1.000  H
  O69      1.0000 0.35370  0.93611  0.23236  Biso   1.000  O
  O70      1.0000 0.48720  0.91161  0.22024  Biso   1.000  O
  O71      1.0000 0.64600  0.06777  0.38221  Biso   1.000  O
  O72      1.0000 0.51170  0.08756  0.39851  Biso   1.000  O
  C205     1.0000 0.43490  0.93843  0.24085  Biso   1.000  C
  C206     1.0000 0.46680  0.97200  0.27515  Biso   1.000  C
  C207     1.0000 0.53210  0.03200  0.34026  Biso   1.000  C
  C208     1.0000 0.56490  0.06419  0.37562  Biso   1.000  C
  N35      1.0000 0.32890  0.02060  0.27950  Biso   1.000  N
  H171     1.0000 0.30750  0.99420  0.26620  Biso   1.000  H
  H172     1.0000 0.29550  0.02720  0.30190  Biso   1.000  H
  C209     1.0000 0.41310  0.01110  0.29250  Biso   1.000  C
  C210     1.0000 0.55240  0.96340  0.29120  Biso   1.000  C
  H173     1.0000 0.58610  0.93700  0.27970  Biso   1.000  H
  C211     1.0000 0.44830  0.04100  0.32510  Biso   1.000  C
  H174     1.0000 0.41470  0.06740  0.33680  Biso   1.000  H
  C212     1.0000 0.58810  0.99290  0.32360  Biso   1.000  C
  H175     1.0000 0.64560  0.98760  0.33400  Biso   1.000  H
  N36      1.0000 0.31760  0.00010  0.29580  Biso   1.000  N
  H176     1.0000 0.30030  0.97780  0.27690  Biso   1.000  H
  H177     1.0000 0.28910  0.99530  0.32000  Biso   1.000  H
  C213     1.0000 0.40890  0.99820  0.30060  Biso   1.000  C
  C214     1.0000 0.44390  0.02790  0.33310  Biso   1.000  C
  H178     1.0000 0.40500  0.04600  0.35090  Biso   1.000  H
  C215     1.0000 0.59000  0.00540  0.31510  Biso   1.000  C
  H179     1.0000 0.65120  0.00750  0.31960  Biso   1.000  H
  C216     1.0000 0.55520  0.97530  0.28240  Biso   1.000  C
  H180     1.0000 0.59390  0.95670  0.26500  Biso   1.000  H
  O73      1.0000 0.85370  0.43611  0.23236  Biso   1.000  O
  O74      1.0000 0.98720  0.41161  0.22024  Biso   1.000  O
  O75      1.0000 0.14600  0.56777  0.38221  Biso   1.000  O
  O76      1.0000 0.01170  0.58756  0.39851  Biso   1.000  O
  C217     1.0000 0.93490  0.43843  0.24085  Biso   1.000  C
  C218     1.0000 0.96680  0.47200  0.27515  Biso   1.000  C
  C219     1.0000 0.03210  0.53200  0.34026  Biso   1.000  C
  C220     1.0000 0.06490  0.56419  0.37562  Biso   1.000  C
  N37      1.0000 0.82890  0.52060  0.27950  Biso   1.000  N
  H181     1.0000 0.80750  0.49420  0.26620  Biso   1.000  H
  H182     1.0000 0.79550  0.52720  0.30190  Biso   1.000  H
  C221     1.0000 0.91310  0.51110  0.29250  Biso   1.000  C
  C222     1.0000 0.05240  0.46340  0.29120  Biso   1.000  C
  H183     1.0000 0.08610  0.43700  0.27970  Biso   1.000  H
  C223     1.0000 0.94830  0.54100  0.32510  Biso   1.000  C
  H184     1.0000 0.91470  0.56740  0.33680  Biso   1.000  H
  C224     1.0000 0.08810  0.49290  0.32360  Biso   1.000  C
  H185     1.0000 0.14560  0.48760  0.33400  Biso   1.000  H
  N38      1.0000 0.81760  0.50010  0.29580  Biso   1.000  N
  H186     1.0000 0.80030  0.47780  0.27690  Biso   1.000  H
  H187     1.0000 0.78910  0.49530  0.32000  Biso   1.000  H
  C225     1.0000 0.90890  0.49820  0.30060  Biso   1.000  C
  C226     1.0000 0.94390  0.52790  0.33310  Biso   1.000  C
  H188     1.0000 0.90500  0.54600  0.35090  Biso   1.000  H
  C227     1.0000 0.09000  0.50540  0.31510  Biso   1.000  C
  H189     1.0000 0.15120  0.50750  0.31960  Biso   1.000  H
  C228     1.0000 0.05520  0.47530  0.28240  Biso   1.000  C
  H190     1.0000 0.09390  0.45670  0.26500  Biso   1.000  H
  O77      1.0000 0.85370  0.93611  0.73236  Biso   1.000  O
  O78      1.0000 0.98720  0.91161  0.72024  Biso   1.000  O
  O79      1.0000 0.14600  0.06777  0.88221  Biso   1.000  O
  O80      1.0000 0.01170  0.08756  0.89851  Biso   1.000  O
  C229     1.0000 0.93490  0.93843  0.74085  Biso   1.000  C
  C230     1.0000 0.96680  0.97200  0.77515  Biso   1.000  C
  C231     1.0000 0.03210  0.03200  0.84026  Biso   1.000  C
  C232     1.0000 0.06490  0.06419  0.87562  Biso   1.000  C
  N39      1.0000 0.82890  0.02060  0.77950  Biso   1.000  N
  H191     1.0000 0.80750  0.99420  0.76620  Biso   1.000  H
  H192     1.0000 0.79550  0.02720  0.80190  Biso   1.000  H
  C233     1.0000 0.91310  0.01110  0.79250  Biso   1.000  C
  C234     1.0000 0.05240  0.96340  0.79120  Biso   1.000  C
  H193     1.0000 0.08610  0.93700  0.77970  Biso   1.000  H
  C235     1.0000 0.94830  0.04100  0.82510  Biso   1.000  C
  H194     1.0000 0.91470  0.06740  0.83680  Biso   1.000  H
  C236     1.0000 0.08810  0.99290  0.82360  Biso   1.000  C
  H195     1.0000 0.14560  0.98760  0.83400  Biso   1.000  H
  N40      1.0000 0.81760  0.00010  0.79580  Biso   1.000  N
  H196     1.0000 0.80030  0.97780  0.77690  Biso   1.000  H
  H197     1.0000 0.78910  0.99530  0.82000  Biso   1.000  H
  C237     1.0000 0.90890  0.99820  0.80060  Biso   1.000  C
  C238     1.0000 0.94390  0.02790  0.83310  Biso   1.000  C
  H198     1.0000 0.90500  0.04600  0.85090  Biso   1.000  H
  C239     1.0000 0.09000  0.00540  0.81510  Biso   1.000  C
  H199     1.0000 0.15120  0.00750  0.81960  Biso   1.000  H
  C240     1.0000 0.05520  0.97530  0.78240  Biso   1.000  C
  H200     1.0000 0.09390  0.95670  0.76500  Biso   1.000  H
  O81      1.0000 0.39630  0.31389  0.73236  Biso   1.000  O
  O82      1.0000 0.26280  0.33839  0.72024  Biso   1.000  O
  O83      1.0000 0.10400  0.18223  0.88221  Biso   1.000  O
  O84      1.0000 0.23830  0.16244  0.89851  Biso   1.000  O
  C241     1.0000 0.31510  0.31157  0.74085  Biso   1.000  C
  C242     1.0000 0.28320  0.27800  0.77515  Biso   1.000  C
  C243     1.0000 0.21790  0.21800  0.84026  Biso   1.000  C
  C244     1.0000 0.18510  0.18581  0.87562  Biso   1.000  C
  N41      1.0000 0.42110  0.22940  0.77950  Biso   1.000  N
  H201     1.0000 0.44250  0.25580  0.76620  Biso   1.000  H
  H202     1.0000 0.45450  0.22280  0.80190  Biso   1.000  H
  C245     1.0000 0.33690  0.23890  0.79250  Biso   1.000  C
  C246     1.0000 0.19760  0.28660  0.79120  Biso   1.000  C
  H203     1.0000 0.16390  0.31300  0.77970  Biso   1.000  H
  C247     1.0000 0.30170  0.20900  0.82510  Biso   1.000  C
  H204     1.0000 0.33530  0.18260  0.83680  Biso   1.000  H
  C248     1.0000 0.16190  0.25710  0.82360  Biso   1.000  C
  H205     1.0000 0.10440  0.26240  0.83400  Biso   1.000  H
  N42      1.0000 0.43240  0.24990  0.79580  Biso   1.000  N
  H206     1.0000 0.44970  0.27220  0.77690  Biso   1.000  H
  H207     1.0000 0.46090  0.25470  0.82000  Biso   1.000  H
  C249     1.0000 0.34110  0.25180  0.80060  Biso   1.000  C
  C250     1.0000 0.30610  0.22210  0.83310  Biso   1.000  C
  H208     1.0000 0.34500  0.20400  0.85090  Biso   1.000  H
  C251     1.0000 0.16000  0.24460  0.81510  Biso   1.000  C
  H209     1.0000 0.09880  0.24250  0.81960  Biso   1.000  H
  C252     1.0000 0.19480  0.27470  0.78240  Biso   1.000  C
  H210     1.0000 0.15610  0.29330  0.76500  Biso   1.000  H
  O85      1.0000 0.39630  0.81389  0.23236  Biso   1.000  O
  O86      1.0000 0.26280  0.83839  0.22024  Biso   1.000  O
  O87      1.0000 0.10400  0.68223  0.38221  Biso   1.000  O
  O88      1.0000 0.23830  0.66244  0.39851  Biso   1.000  O
  C253     1.0000 0.31510  0.81157  0.24085  Biso   1.000  C
  C254     1.0000 0.28320  0.77800  0.27515  Biso   1.000  C
  C255     1.0000 0.21790  0.71800  0.34026  Biso   1.000  C
  C256     1.0000 0.18510  0.68581  0.37562  Biso   1.000  C
  N43      1.0000 0.42110  0.72940  0.27950  Biso   1.000  N
  H211     1.0000 0.44250  0.75580  0.26620  Biso   1.000  H
  H212     1.0000 0.45450  0.72280  0.30190  Biso   1.000  H
  C257     1.0000 0.33690  0.73890  0.29250  Biso   1.000  C
  C258     1.0000 0.19760  0.78660  0.29120  Biso   1.000  C
  H213     1.0000 0.16390  0.81300  0.27970  Biso   1.000  H
  C259     1.0000 0.30170  0.70900  0.32510  Biso   1.000  C
  H214     1.0000 0.33530  0.68260  0.33680  Biso   1.000  H
  C260     1.0000 0.16190  0.75710  0.32360  Biso   1.000  C
  H215     1.0000 0.10440  0.76240  0.33400  Biso   1.000  H
  N44      1.0000 0.43240  0.74990  0.29580  Biso   1.000  N
  H216     1.0000 0.44970  0.77220  0.27690  Biso   1.000  H
  H217     1.0000 0.46090  0.75470  0.32000  Biso   1.000  H
  C261     1.0000 0.34110  0.75180  0.30060  Biso   1.000  C
  C262     1.0000 0.30610  0.72210  0.33310  Biso   1.000  C
  H218     1.0000 0.34500  0.70400  0.35090  Biso   1.000  H
  C263     1.0000 0.16000  0.74460  0.31510  Biso   1.000  C
  H219     1.0000 0.09880  0.74250  0.31960  Biso   1.000  H
  C264     1.0000 0.19480  0.77470  0.28240  Biso   1.000  C
  H220     1.0000 0.15610  0.79330  0.26500  Biso   1.000  H
  O89      1.0000 0.89630  0.31389  0.23236  Biso   1.000  O
  O90      1.0000 0.76280  0.33839  0.22024  Biso   1.000  O
  O91      1.0000 0.60400  0.18223  0.38221  Biso   1.000  O
  O92      1.0000 0.73830  0.16244  0.39851  Biso   1.000  O
  C265     1.0000 0.81510  0.31157  0.24085  Biso   1.000  C
  C266     1.0000 0.78320  0.27800  0.27515  Biso   1.000  C
  C267     1.0000 0.71790  0.21800  0.34026  Biso   1.000  C
  C268     1.0000 0.68510  0.18581  0.37562  Biso   1.000  C
  N45      1.0000 0.92110  0.22940  0.27950  Biso   1.000  N
  H221     1.0000 0.94250  0.25580  0.26620  Biso   1.000  H
  H222     1.0000 0.95450  0.22280  0.30190  Biso   1.000  H
  C269     1.0000 0.83690  0.23890  0.29250  Biso   1.000  C
  C270     1.0000 0.69760  0.28660  0.29120  Biso   1.000  C
  H223     1.0000 0.66390  0.31300  0.27970  Biso   1.000  H
  C271     1.0000 0.80170  0.20900  0.32510  Biso   1.000  C
  H224     1.0000 0.83530  0.18260  0.33680  Biso   1.000  H
  C272     1.0000 0.66190  0.25710  0.32360  Biso   1.000  C
  H225     1.0000 0.60440  0.26240  0.33400  Biso   1.000  H
  N46      1.0000 0.93240  0.24990  0.29580  Biso   1.000  N
  H226     1.0000 0.94970  0.27220  0.27690  Biso   1.000  H
  H227     1.0000 0.96090  0.25470  0.32000  Biso   1.000  H
  C273     1.0000 0.84110  0.25180  0.30060  Biso   1.000  C
  C274     1.0000 0.80610  0.22210  0.33310  Biso   1.000  C
  H228     1.0000 0.84500  0.20400  0.35090  Biso   1.000  H
  C275     1.0000 0.66000  0.24460  0.31510  Biso   1.000  C
  H229     1.0000 0.59880  0.24250  0.31960  Biso   1.000  H
  C276     1.0000 0.69480  0.27470  0.28240  Biso   1.000  C
  H230     1.0000 0.65610  0.29330  0.26500  Biso   1.000  H
  O93      1.0000 0.89630  0.81389  0.73236  Biso   1.000  O
  O94      1.0000 0.76280  0.83839  0.72024  Biso   1.000  O
  O95      1.0000 0.60400  0.68223  0.88221  Biso   1.000  O
  O96      1.0000 0.73830  0.66244  0.89851  Biso   1.000  O
  C277     1.0000 0.81510  0.81157  0.74085  Biso   1.000  C
  C278     1.0000 0.78320  0.77800  0.77515  Biso   1.000  C
  C279     1.0000 0.71790  0.71800  0.84026  Biso   1.000  C
  C280     1.0000 0.68510  0.68581  0.87562  Biso   1.000  C
  N47      1.0000 0.92110  0.72940  0.77950  Biso   1.000  N
  H231     1.0000 0.94250  0.75580  0.76620  Biso   1.000  H
  H232     1.0000 0.95450  0.72280  0.80190  Biso   1.000  H
  C281     1.0000 0.83690  0.73890  0.79250  Biso   1.000  C
  C282     1.0000 0.69760  0.78660  0.79120  Biso   1.000  C
  H233     1.0000 0.66390  0.81300  0.77970  Biso   1.000  H
  C283     1.0000 0.80170  0.70900  0.82510  Biso   1.000  C
  H234     1.0000 0.83530  0.68260  0.83680  Biso   1.000  H
  C284     1.0000 0.66190  0.75710  0.82360  Biso   1.000  C
  H235     1.0000 0.60440  0.76240  0.83400  Biso   1.000  H
  N48      1.0000 0.93240  0.74990  0.79580  Biso   1.000  N
  H236     1.0000 0.94970  0.77220  0.77690  Biso   1.000  H
  H237     1.0000 0.96090  0.75470  0.82000  Biso   1.000  H
  C285     1.0000 0.84110  0.75180  0.80060  Biso   1.000  C
  C286     1.0000 0.80610  0.72210  0.83310  Biso   1.000  C
  H238     1.0000 0.84500  0.70400  0.85090  Biso   1.000  H
  C287     1.0000 0.66000  0.74460  0.81510  Biso   1.000  C
  H239     1.0000 0.59880  0.74250  0.81960  Biso   1.000  H
  C288     1.0000 0.69480  0.77470  0.78240  Biso   1.000  C
  H240     1.0000 0.65610  0.79330  0.76500  Biso   1.000  H
  O97      1.0000 0.60370  0.56389  0.98236  Biso   1.000  O
  O98      1.0000 0.73720  0.58839  0.97024  Biso   1.000  O
  O99      1.0000 0.89600  0.43223  0.13221  Biso   1.000  O
  O100     1.0000 0.76170  0.41244  0.14851  Biso   1.000  O
  C289     1.0000 0.68490  0.56157  0.99085  Biso   1.000  C
  C290     1.0000 0.71680  0.52800  0.02515  Biso   1.000  C
  C291     1.0000 0.78210  0.46800  0.09026  Biso   1.000  C
  C292     1.0000 0.81490  0.43581  0.12562  Biso   1.000  C
  N49      1.0000 0.57890  0.47940  0.02950  Biso   1.000  N
  H241     1.0000 0.55750  0.50580  0.01620  Biso   1.000  H
  H242     1.0000 0.54550  0.47280  0.05190  Biso   1.000  H
  C293     1.0000 0.66310  0.48890  0.04250  Biso   1.000  C
  C294     1.0000 0.80240  0.53660  0.04120  Biso   1.000  C
  H243     1.0000 0.83610  0.56300  0.02970  Biso   1.000  H
  C295     1.0000 0.69830  0.45900  0.07510  Biso   1.000  C
  H244     1.0000 0.66470  0.43260  0.08680  Biso   1.000  H
  C296     1.0000 0.83810  0.50710  0.07360  Biso   1.000  C
  H245     1.0000 0.89560  0.51240  0.08400  Biso   1.000  H
  N50      1.0000 0.56760  0.49990  0.04580  Biso   1.000  N
  H246     1.0000 0.55030  0.52220  0.02690  Biso   1.000  H
  H247     1.0000 0.53910  0.50470  0.07000  Biso   1.000  H
  C297     1.0000 0.65890  0.50180  0.05060  Biso   1.000  C
  C298     1.0000 0.69390  0.47210  0.08310  Biso   1.000  C
  H248     1.0000 0.65500  0.45400  0.10090  Biso   1.000  H
  C299     1.0000 0.84000  0.49460  0.06510  Biso   1.000  C
  H249     1.0000 0.90120  0.49250  0.06960  Biso   1.000  H
  C300     1.0000 0.80520  0.52470  0.03240  Biso   1.000  C
  H250     1.0000 0.84390  0.54330  0.01500  Biso   1.000  H
  O101     1.0000 0.60370  0.06389  0.48236  Biso   1.000  O
  O102     1.0000 0.73720  0.08839  0.47024  Biso   1.000  O
  O103     1.0000 0.89600  0.93223  0.63221  Biso   1.000  O
  O104     1.0000 0.76170  0.91244  0.64851  Biso   1.000  O
  C301     1.0000 0.68490  0.06157  0.49085  Biso   1.000  C
  C302     1.0000 0.71680  0.02800  0.52515  Biso   1.000  C
  C303     1.0000 0.78210  0.96800  0.59026  Biso   1.000  C
  C304     1.0000 0.81490  0.93581  0.62562  Biso   1.000  C
  N51      1.0000 0.57890  0.97940  0.52950  Biso   1.000  N
  H251     1.0000 0.55750  0.00580  0.51620  Biso   1.000  H
  H252     1.0000 0.54550  0.97280  0.55190  Biso   1.000  H
  C305     1.0000 0.66310  0.98890  0.54250  Biso   1.000  C
  C306     1.0000 0.80240  0.03660  0.54120  Biso   1.000  C
  H253     1.0000 0.83610  0.06300  0.52970  Biso   1.000  H
  C307     1.0000 0.69830  0.95900  0.57510  Biso   1.000  C
  H254     1.0000 0.66470  0.93260  0.58680  Biso   1.000  H
  C308     1.0000 0.83810  0.00710  0.57360  Biso   1.000  C
  H255     1.0000 0.89560  0.01240  0.58400  Biso   1.000  H
  N52      1.0000 0.56760  0.99990  0.54580  Biso   1.000  N
  H256     1.0000 0.55030  0.02220  0.52690  Biso   1.000  H
  H257     1.0000 0.53910  0.00470  0.57000  Biso   1.000  H
  C309     1.0000 0.65890  0.00180  0.55060  Biso   1.000  C
  C310     1.0000 0.69390  0.97210  0.58310  Biso   1.000  C
  H258     1.0000 0.65500  0.95400  0.60090  Biso   1.000  H
  C311     1.0000 0.84000  0.99460  0.56510  Biso   1.000  C
  H259     1.0000 0.90120  0.99250  0.56960  Biso   1.000  H
  C312     1.0000 0.80520  0.02470  0.53240  Biso   1.000  C
  H260     1.0000 0.84390  0.04330  0.51500  Biso   1.000  H
  O105     1.0000 0.10370  0.56389  0.48236  Biso   1.000  O
  O106     1.0000 0.23720  0.58839  0.47024  Biso   1.000  O
  O107     1.0000 0.39600  0.43223  0.63221  Biso   1.000  O
  O108     1.0000 0.26170  0.41244  0.64851  Biso   1.000  O
  C313     1.0000 0.18490  0.56157  0.49085  Biso   1.000  C
  C314     1.0000 0.21680  0.52800  0.52515  Biso   1.000  C
  C315     1.0000 0.28210  0.46800  0.59026  Biso   1.000  C
  C316     1.0000 0.31490  0.43581  0.62562  Biso   1.000  C
  N53      1.0000 0.07890  0.47940  0.52950  Biso   1.000  N
  H261     1.0000 0.05750  0.50580  0.51620  Biso   1.000  H
  H262     1.0000 0.04550  0.47280  0.55190  Biso   1.000  H
  C317     1.0000 0.16310  0.48890  0.54250  Biso   1.000  C
  C318     1.0000 0.30240  0.53660  0.54120  Biso   1.000  C
  H263     1.0000 0.33610  0.56300  0.52970  Biso   1.000  H
  C319     1.0000 0.19830  0.45900  0.57510  Biso   1.000  C
  H264     1.0000 0.16470  0.43260  0.58680  Biso   1.000  H
  C320     1.0000 0.33810  0.50710  0.57360  Biso   1.000  C
  H265     1.0000 0.39560  0.51240  0.58400  Biso   1.000  H
  N54      1.0000 0.06760  0.49990  0.54580  Biso   1.000  N
  H266     1.0000 0.05030  0.52220  0.52690  Biso   1.000  H
  H267     1.0000 0.03910  0.50470  0.57000  Biso   1.000  H
  C321     1.0000 0.15890  0.50180  0.55060  Biso   1.000  C
  C322     1.0000 0.19390  0.47210  0.58310  Biso   1.000  C
  H268     1.0000 0.15500  0.45400  0.60090  Biso   1.000  H
  C323     1.0000 0.34000  0.49460  0.56510  Biso   1.000  C
  H269     1.0000 0.40120  0.49250  0.56960  Biso   1.000  H
  C324     1.0000 0.30520  0.52470  0.53240  Biso   1.000  C
  H270     1.0000 0.34390  0.54330  0.51500  Biso   1.000  H
  O109     1.0000 0.10370  0.06389  0.98236  Biso   1.000  O
  O110     1.0000 0.23720  0.08839  0.97024  Biso   1.000  O
  O111     1.0000 0.39600  0.93223  0.13221  Biso   1.000  O
  O112     1.0000 0.26170  0.91244  0.14851  Biso   1.000  O
  C325     1.0000 0.18490  0.06157  0.99085  Biso   1.000  C
  C326     1.0000 0.21680  0.02800  0.02515  Biso   1.000  C
  C327     1.0000 0.28210  0.96800  0.09026  Biso   1.000  C
  C328     1.0000 0.31490  0.93581  0.12562  Biso   1.000  C
  N55      1.0000 0.07890  0.97940  0.02950  Biso   1.000  N
  H271     1.0000 0.05750  0.00580  0.01620  Biso   1.000  H
  H272     1.0000 0.04550  0.97280  0.05190  Biso   1.000  H
  C329     1.0000 0.16310  0.98890  0.04250  Biso   1.000  C
  C330     1.0000 0.30240  0.03660  0.04120  Biso   1.000  C
  H273     1.0000 0.33610  0.06300  0.02970  Biso   1.000  H
  C331     1.0000 0.19830  0.95900  0.07510  Biso   1.000  C
  H274     1.0000 0.16470  0.93260  0.08680  Biso   1.000  H
  C332     1.0000 0.33810  0.00710  0.07360  Biso   1.000  C
  H275     1.0000 0.39560  0.01240  0.08400  Biso   1.000  H
  N56      1.0000 0.06760  0.99990  0.04580  Biso   1.000  N
  H276     1.0000 0.05030  0.02220  0.02690  Biso   1.000  H
  H277     1.0000 0.03910  0.00470  0.07000  Biso   1.000  H
  C333     1.0000 0.15890  0.00180  0.05060  Biso   1.000  C
  C334     1.0000 0.19390  0.97210  0.08310  Biso   1.000  C
  H278     1.0000 0.15500  0.95400  0.10090  Biso   1.000  H
  C335     1.0000 0.34000  0.99460  0.06510  Biso   1.000  C
  H279     1.0000 0.40120  0.99250  0.06960  Biso   1.000  H
  C336     1.0000 0.30520  0.02470  0.03240  Biso   1.000  C
  H280     1.0000 0.34390  0.04330  0.01500  Biso   1.000  H
  O113     1.0000 0.64630  0.68611  0.98236  Biso   1.000  O
  O114     1.0000 0.51280  0.66161  0.97024  Biso   1.000  O
  O115     1.0000 0.35400  0.81777  0.13221  Biso   1.000  O
  O116     1.0000 0.48830  0.83756  0.14851  Biso   1.000  O
  C337     1.0000 0.56510  0.68843  0.99085  Biso   1.000  C
  C338     1.0000 0.53320  0.72200  0.02515  Biso   1.000  C
  C339     1.0000 0.46790  0.78200  0.09026  Biso   1.000  C
  C340     1.0000 0.43510  0.81419  0.12562  Biso   1.000  C
  N57      1.0000 0.67110  0.77060  0.02950  Biso   1.000  N
  H281     1.0000 0.69250  0.74420  0.01620  Biso   1.000  H
  H282     1.0000 0.70450  0.77720  0.05190  Biso   1.000  H
  C341     1.0000 0.58690  0.76110  0.04250  Biso   1.000  C
  C342     1.0000 0.44760  0.71340  0.04120  Biso   1.000  C
  H283     1.0000 0.41390  0.68700  0.02970  Biso   1.000  H
  C343     1.0000 0.55170  0.79100  0.07510  Biso   1.000  C
  H284     1.0000 0.58530  0.81740  0.08680  Biso   1.000  H
  C344     1.0000 0.41190  0.74290  0.07360  Biso   1.000  C
  H285     1.0000 0.35440  0.73760  0.08400  Biso   1.000  H
  N58      1.0000 0.68240  0.75010  0.04580  Biso   1.000  N
  H286     1.0000 0.69970  0.72780  0.02690  Biso   1.000  H
  H287     1.0000 0.71090  0.74530  0.07000  Biso   1.000  H
  C345     1.0000 0.59110  0.74820  0.05060  Biso   1.000  C
  C346     1.0000 0.55610  0.77790  0.08310  Biso   1.000  C
  H288     1.0000 0.59500  0.79600  0.10090  Biso   1.000  H
  C347     1.0000 0.41000  0.75540  0.06510  Biso   1.000  C
  H289     1.0000 0.34880  0.75750  0.06960  Biso   1.000  H
  C348     1.0000 0.44480  0.72530  0.03240  Biso   1.000  C
  H290     1.0000 0.40610  0.70670  0.01500  Biso   1.000  H
  O117     1.0000 0.64630  0.18611  0.48236  Biso   1.000  O
  O118     1.0000 0.51280  0.16161  0.47024  Biso   1.000  O
  O119     1.0000 0.35400  0.31777  0.63221  Biso   1.000  O
  O120     1.0000 0.48830  0.33756  0.64851  Biso   1.000  O
  C349     1.0000 0.56510  0.18843  0.49085  Biso   1.000  C
  C350     1.0000 0.53320  0.22200  0.52515  Biso   1.000  C
  C351     1.0000 0.46790  0.28200  0.59026  Biso   1.000  C
  C352     1.0000 0.43510  0.31419  0.62562  Biso   1.000  C
  N59      1.0000 0.67110  0.27060  0.52950  Biso   1.000  N
  H291     1.0000 0.69250  0.24420  0.51620  Biso   1.000  H
  H292     1.0000 0.70450  0.27720  0.55190  Biso   1.000  H
  C353     1.0000 0.58690  0.26110  0.54250  Biso   1.000  C
  C354     1.0000 0.44760  0.21340  0.54120  Biso   1.000  C
  H293     1.0000 0.41390  0.18700  0.52970  Biso   1.000  H
  C355     1.0000 0.55170  0.29100  0.57510  Biso   1.000  C
  H294     1.0000 0.58530  0.31740  0.58680  Biso   1.000  H
  C356     1.0000 0.41190  0.24290  0.57360  Biso   1.000  C
  H295     1.0000 0.35440  0.23760  0.58400  Biso   1.000  H
  N60      1.0000 0.68240  0.25010  0.54580  Biso   1.000  N
  H296     1.0000 0.69970  0.22780  0.52690  Biso   1.000  H
  H297     1.0000 0.71090  0.24530  0.57000  Biso   1.000  H
  C357     1.0000 0.59110  0.24820  0.55060  Biso   1.000  C
  C358     1.0000 0.55610  0.27790  0.58310  Biso   1.000  C
  H298     1.0000 0.59500  0.29600  0.60090  Biso   1.000  H
  C359     1.0000 0.41000  0.25540  0.56510  Biso   1.000  C
  H299     1.0000 0.34880  0.25750  0.56960  Biso   1.000  H
  C360     1.0000 0.44480  0.22530  0.53240  Biso   1.000  C
  H300     1.0000 0.40610  0.20670  0.51500  Biso   1.000  H
  O121     1.0000 0.14630  0.68611  0.48236  Biso   1.000  O
  O122     1.0000 0.01280  0.66161  0.47024  Biso   1.000  O
  O123     1.0000 0.85400  0.81777  0.63221  Biso   1.000  O
  O124     1.0000 0.98830  0.83756  0.64851  Biso   1.000  O
  C361     1.0000 0.06510  0.68843  0.49085  Biso   1.000  C
  C362     1.0000 0.03320  0.72200  0.52515  Biso   1.000  C
  C363     1.0000 0.96790  0.78200  0.59026  Biso   1.000  C
  C364     1.0000 0.93510  0.81419  0.62562  Biso   1.000  C
  N61      1.0000 0.17110  0.77060  0.52950  Biso   1.000  N
  H301     1.0000 0.19250  0.74420  0.51620  Biso   1.000  H
  H302     1.0000 0.20450  0.77720  0.55190  Biso   1.000  H
  C365     1.0000 0.08690  0.76110  0.54250  Biso   1.000  C
  C366     1.0000 0.94760  0.71340  0.54120  Biso   1.000  C
  H303     1.0000 0.91390  0.68700  0.52970  Biso   1.000  H
  C367     1.0000 0.05170  0.79100  0.57510  Biso   1.000  C
  H304     1.0000 0.08530  0.81740  0.58680  Biso   1.000  H
  C368     1.0000 0.91190  0.74290  0.57360  Biso   1.000  C
  H305     1.0000 0.85440  0.73760  0.58400  Biso   1.000  H
  N62      1.0000 0.18240  0.75010  0.54580  Biso   1.000  N
  H306     1.0000 0.19970  0.72780  0.52690  Biso   1.000  H
  H307     1.0000 0.21090  0.74530  0.57000  Biso   1.000  H
  C369     1.0000 0.09110  0.74820  0.55060  Biso   1.000  C
  C370     1.0000 0.05610  0.77790  0.58310  Biso   1.000  C
  H308     1.0000 0.09500  0.79600  0.60090  Biso   1.000  H
  C371     1.0000 0.91000  0.75540  0.56510  Biso   1.000  C
  H309     1.0000 0.84880  0.75750  0.56960  Biso   1.000  H
  C372     1.0000 0.94480  0.72530  0.53240  Biso   1.000  C
  H310     1.0000 0.90610  0.70670  0.51500  Biso   1.000  H
  O125     1.0000 0.14630  0.18611  0.98236  Biso   1.000  O
  O126     1.0000 0.01280  0.16161  0.97024  Biso   1.000  O
  O127     1.0000 0.85400  0.31777  0.13221  Biso   1.000  O
  O128     1.0000 0.98830  0.33756  0.14851  Biso   1.000  O
  C373     1.0000 0.06510  0.18843  0.99085  Biso   1.000  C
  C374     1.0000 0.03320  0.22200  0.02515  Biso   1.000  C
  C375     1.0000 0.96790  0.28200  0.09026  Biso   1.000  C
  C376     1.0000 0.93510  0.31419  0.12562  Biso   1.000  C
  N63      1.0000 0.17110  0.27060  0.02950  Biso   1.000  N
  H311     1.0000 0.19250  0.24420  0.01620  Biso   1.000  H
  H312     1.0000 0.20450  0.27720  0.05190  Biso   1.000  H
  C377     1.0000 0.08690  0.26110  0.04250  Biso   1.000  C
  C378     1.0000 0.94760  0.21340  0.04120  Biso   1.000  C
  H313     1.0000 0.91390  0.18700  0.02970  Biso   1.000  H
  C379     1.0000 0.05170  0.29100  0.07510  Biso   1.000  C
  H314     1.0000 0.08530  0.31740  0.08680  Biso   1.000  H
  C380     1.0000 0.91190  0.24290  0.07360  Biso   1.000  C
  H315     1.0000 0.85440  0.23760  0.08400  Biso   1.000  H
  N64      1.0000 0.18240  0.25010  0.04580  Biso   1.000  N
  H316     1.0000 0.19970  0.22780  0.02690  Biso   1.000  H
  H317     1.0000 0.21090  0.24530  0.07000  Biso   1.000  H
  C381     1.0000 0.09110  0.24820  0.05060  Biso   1.000  C
  C382     1.0000 0.05610  0.27790  0.08310  Biso   1.000  C
  H318     1.0000 0.09500  0.29600  0.10090  Biso   1.000  H
  C383     1.0000 0.91000  0.25540  0.06510  Biso   1.000  C
  H319     1.0000 0.84880  0.25750  0.06960  Biso   1.000  H
  C384     1.0000 0.94480  0.22530  0.03240  Biso   1.000  C
  H320     1.0000 0.90610  0.20670  0.01500  Biso   1.000  H
  In9      1.0000 0.37500  0.37500  0.68430  Biso   1.000  In
  In10     1.0000 0.37500  0.87500  0.18430  Biso   1.000  In
  In11     1.0000 0.87500  0.37500  0.18430  Biso   1.000  In
  In12     1.0000 0.87500  0.87500  0.68430  Biso   1.000  In
  In13     1.0000 0.62500  0.62500  0.93430  Biso   1.000  In
  In14     1.0000 0.62500  0.12500  0.43430  Biso   1.000  In
  In15     1.0000 0.12500  0.62500  0.43430  Biso   1.000  In
  In16     1.0000 0.12500  0.12500  0.93430  Biso   1.000  In
