data_image0
_cell_length_a       15.151
_cell_length_b       23.282
_cell_length_c       33.961
_cell_angle_alpha    90
_cell_angle_beta     90
_cell_angle_gamma    90

_symmetry_space_group_name_H-M    "P 1"
_symmetry_int_tables_number       1

loop_
  _symmetry_equiv_pos_as_xyz
  'x, y, z'

loop_
  _atom_site_label
  _atom_site_occupancy
  _atom_site_fract_x
  _atom_site_fract_y
  _atom_site_fract_z
  _atom_site_thermal_displace_type
  _atom_site_B_iso_or_equiv
  _atom_site_type_symbol
  O1       1.0000 0.48870  0.41760  0.10521  Biso   1.000  O
  O2       1.0000 0.35350  0.44040  0.12052  Biso   1.000  O
  O3       1.0000 0.64330  0.55800  0.27554  Biso   1.000  O
  O4       1.0000 0.50880  0.58510  0.28857  Biso   1.000  O
  C1       1.0000 0.43480  0.44310  0.12760  Biso   1.000  C
  C2       1.0000 0.46670  0.47770  0.16260  Biso   1.000  C
  C3       1.0000 0.41050  0.50680  0.18620  Biso   1.000  C
  C4       1.0000 0.55750  0.47560  0.17180  Biso   1.000  C
  C5       1.0000 0.44280  0.53370  0.22010  Biso   1.000  C
  H1       1.0000 0.35250  0.51440  0.17710  Biso   1.000  H
  H2       1.0000 0.59690  0.45550  0.15500  Biso   1.000  H
  C6       1.0000 0.59000  0.50260  0.20540  Biso   1.000  C
  C7       1.0000 0.53120  0.53370  0.22980  Biso   1.000  C
  C8       1.0000 0.56140  0.55720  0.26690  Biso   1.000  C
  N1       1.0000 0.67850  0.49430  0.21110  Biso   1.000  N
  H3       1.0000 0.70890  0.47350  0.19420  Biso   1.000  H
  H4       1.0000 0.70500  0.50980  0.23160  Biso   1.000  H
  C9       1.0000 0.54870  0.45810  0.17800  Biso   1.000  C
  C10      1.0000 0.58050  0.48180  0.21220  Biso   1.000  C
  N2       1.0000 0.66360  0.46100  0.22580  Biso   1.000  N
  C11      1.0000 0.46780  0.46650  0.16500  Biso   1.000  C
  C12      1.0000 0.52790  0.51990  0.23310  Biso   1.000  C
  H5       1.0000 0.34960  0.50890  0.17980  Biso   1.000  H
  H6       1.0000 0.58690  0.43430  0.16300  Biso   1.000  H
  H7       1.0000 0.68680  0.47480  0.24750  Biso   1.000  H
  H8       1.0000 0.69160  0.43430  0.21230  Biso   1.000  H
  N3       1.0000 0.38100  0.56400  0.23800  Biso   1.000  N
  H9       1.0000 0.32710  0.56570  0.22820  Biso   1.000  H
  H10      1.0000 0.39330  0.58330  0.25970  Biso   1.000  H
  O5       1.0000 0.48870  0.91760  0.60521  Biso   1.000  O
  O6       1.0000 0.35350  0.94040  0.62052  Biso   1.000  O
  O7       1.0000 0.64330  0.05800  0.77554  Biso   1.000  O
  O8       1.0000 0.50880  0.08510  0.78857  Biso   1.000  O
  C13      1.0000 0.43480  0.94310  0.62760  Biso   1.000  C
  C14      1.0000 0.46670  0.97770  0.66260  Biso   1.000  C
  C15      1.0000 0.41050  0.00680  0.68620  Biso   1.000  C
  C16      1.0000 0.55750  0.97560  0.67180  Biso   1.000  C
  C17      1.0000 0.44280  0.03370  0.72010  Biso   1.000  C
  H11      1.0000 0.35250  0.01440  0.67710  Biso   1.000  H
  H12      1.0000 0.59690  0.95550  0.65500  Biso   1.000  H
  C18      1.0000 0.59000  0.00260  0.70540  Biso   1.000  C
  C19      1.0000 0.53120  0.03370  0.72980  Biso   1.000  C
  C20      1.0000 0.56140  0.05720  0.76690  Biso   1.000  C
  N4       1.0000 0.67850  0.99430  0.71110  Biso   1.000  N
  H13      1.0000 0.70890  0.97350  0.69420  Biso   1.000  H
  H14      1.0000 0.70500  0.00980  0.73160  Biso   1.000  H
  C21      1.0000 0.54870  0.95810  0.67800  Biso   1.000  C
  C22      1.0000 0.58050  0.98180  0.71220  Biso   1.000  C
  N5       1.0000 0.66360  0.96100  0.72580  Biso   1.000  N
  C23      1.0000 0.46780  0.96650  0.66500  Biso   1.000  C
  C24      1.0000 0.52790  0.01990  0.73310  Biso   1.000  C
  H15      1.0000 0.34960  0.00890  0.67980  Biso   1.000  H
  H16      1.0000 0.58690  0.93430  0.66300  Biso   1.000  H
  H17      1.0000 0.68680  0.97480  0.74750  Biso   1.000  H
  H18      1.0000 0.69160  0.93430  0.71230  Biso   1.000  H
  N6       1.0000 0.38100  0.06400  0.73800  Biso   1.000  N
  H19      1.0000 0.32710  0.06570  0.72820  Biso   1.000  H
  H20      1.0000 0.39330  0.08330  0.75970  Biso   1.000  H
  O9       1.0000 0.98870  0.41760  0.60521  Biso   1.000  O
  O10      1.0000 0.85350  0.44040  0.62052  Biso   1.000  O
  O11      1.0000 0.14330  0.55800  0.77554  Biso   1.000  O
  O12      1.0000 0.00880  0.58510  0.78857  Biso   1.000  O
  C25      1.0000 0.93480  0.44310  0.62760  Biso   1.000  C
  C26      1.0000 0.96670  0.47770  0.66260  Biso   1.000  C
  C27      1.0000 0.91050  0.50680  0.68620  Biso   1.000  C
  C28      1.0000 0.05750  0.47560  0.67180  Biso   1.000  C
  C29      1.0000 0.94280  0.53370  0.72010  Biso   1.000  C
  H21      1.0000 0.85250  0.51440  0.67710  Biso   1.000  H
  H22      1.0000 0.09690  0.45550  0.65500  Biso   1.000  H
  C30      1.0000 0.09000  0.50260  0.70540  Biso   1.000  C
  C31      1.0000 0.03120  0.53370  0.72980  Biso   1.000  C
  C32      1.0000 0.06140  0.55720  0.76690  Biso   1.000  C
  N7       1.0000 0.17850  0.49430  0.71110  Biso   1.000  N
  H23      1.0000 0.20890  0.47350  0.69420  Biso   1.000  H
  H24      1.0000 0.20500  0.50980  0.73160  Biso   1.000  H
  C33      1.0000 0.04870  0.45810  0.67800  Biso   1.000  C
  C34      1.0000 0.08050  0.48180  0.71220  Biso   1.000  C
  N8       1.0000 0.16360  0.46100  0.72580  Biso   1.000  N
  C35      1.0000 0.96780  0.46650  0.66500  Biso   1.000  C
  C36      1.0000 0.02790  0.51990  0.73310  Biso   1.000  C
  H25      1.0000 0.84960  0.50890  0.67980  Biso   1.000  H
  H26      1.0000 0.08690  0.43430  0.66300  Biso   1.000  H
  H27      1.0000 0.18680  0.47480  0.74750  Biso   1.000  H
  H28      1.0000 0.19160  0.43430  0.71230  Biso   1.000  H
  N9       1.0000 0.88100  0.56400  0.73800  Biso   1.000  N
  H29      1.0000 0.82710  0.56570  0.72820  Biso   1.000  H
  H30      1.0000 0.89330  0.58330  0.75970  Biso   1.000  H
  O13      1.0000 0.98870  0.91760  0.10521  Biso   1.000  O
  O14      1.0000 0.85350  0.94040  0.12052  Biso   1.000  O
  O15      1.0000 0.14330  0.05800  0.27554  Biso   1.000  O
  O16      1.0000 0.00880  0.08510  0.28857  Biso   1.000  O
  C37      1.0000 0.93480  0.94310  0.12760  Biso   1.000  C
  C38      1.0000 0.96670  0.97770  0.16260  Biso   1.000  C
  C39      1.0000 0.91050  0.00680  0.18620  Biso   1.000  C
  C40      1.0000 0.05750  0.97560  0.17180  Biso   1.000  C
  C41      1.0000 0.94280  0.03370  0.22010  Biso   1.000  C
  H31      1.0000 0.85250  0.01440  0.17710  Biso   1.000  H
  H32      1.0000 0.09690  0.95550  0.15500  Biso   1.000  H
  C42      1.0000 0.09000  0.00260  0.20540  Biso   1.000  C
  C43      1.0000 0.03120  0.03370  0.22980  Biso   1.000  C
  C44      1.0000 0.06140  0.05720  0.26690  Biso   1.000  C
  N10      1.0000 0.17850  0.99430  0.21110  Biso   1.000  N
  H33      1.0000 0.20890  0.97350  0.19420  Biso   1.000  H
  H34      1.0000 0.20500  0.00980  0.23160  Biso   1.000  H
  C45      1.0000 0.04870  0.95810  0.17800  Biso   1.000  C
  C46      1.0000 0.08050  0.98180  0.21220  Biso   1.000  C
  N11      1.0000 0.16360  0.96100  0.22580  Biso   1.000  N
  C47      1.0000 0.96780  0.96650  0.16500  Biso   1.000  C
  C48      1.0000 0.02790  0.01990  0.23310  Biso   1.000  C
  H35      1.0000 0.84960  0.00890  0.17980  Biso   1.000  H
  H36      1.0000 0.08690  0.93430  0.16300  Biso   1.000  H
  H37      1.0000 0.18680  0.97480  0.24750  Biso   1.000  H
  H38      1.0000 0.19160  0.93430  0.21230  Biso   1.000  H
  N12      1.0000 0.88100  0.06400  0.23800  Biso   1.000  N
  H39      1.0000 0.82710  0.06570  0.22820  Biso   1.000  H
  H40      1.0000 0.89330  0.08330  0.25970  Biso   1.000  H
  O17      1.0000 0.26130  0.33240  0.10521  Biso   1.000  O
  O18      1.0000 0.39650  0.30960  0.12052  Biso   1.000  O
  O19      1.0000 0.10670  0.19200  0.27554  Biso   1.000  O
  O20      1.0000 0.24120  0.16490  0.28857  Biso   1.000  O
  C49      1.0000 0.31520  0.30690  0.12760  Biso   1.000  C
  C50      1.0000 0.28330  0.27230  0.16260  Biso   1.000  C
  C51      1.0000 0.33950  0.24320  0.18620  Biso   1.000  C
  C52      1.0000 0.19250  0.27440  0.17180  Biso   1.000  C
  C53      1.0000 0.30720  0.21630  0.22010  Biso   1.000  C
  H41      1.0000 0.39750  0.23560  0.17710  Biso   1.000  H
  H42      1.0000 0.15310  0.29450  0.15500  Biso   1.000  H
  C54      1.0000 0.16000  0.24740  0.20540  Biso   1.000  C
  C55      1.0000 0.21880  0.21630  0.22980  Biso   1.000  C
  C56      1.0000 0.18860  0.19280  0.26690  Biso   1.000  C
  N13      1.0000 0.07150  0.25570  0.21110  Biso   1.000  N
  H43      1.0000 0.04110  0.27650  0.19420  Biso   1.000  H
  H44      1.0000 0.04500  0.24020  0.23160  Biso   1.000  H
  C57      1.0000 0.20130  0.29190  0.17800  Biso   1.000  C
  C58      1.0000 0.16950  0.26820  0.21220  Biso   1.000  C
  N14      1.0000 0.08640  0.28900  0.22580  Biso   1.000  N
  C59      1.0000 0.28220  0.28350  0.16500  Biso   1.000  C
  C60      1.0000 0.22210  0.23010  0.23310  Biso   1.000  C
  H45      1.0000 0.40040  0.24110  0.17980  Biso   1.000  H
  H46      1.0000 0.16310  0.31570  0.16300  Biso   1.000  H
  H47      1.0000 0.06320  0.27520  0.24750  Biso   1.000  H
  H48      1.0000 0.05840  0.31570  0.21230  Biso   1.000  H
  N15      1.0000 0.36900  0.18600  0.23800  Biso   1.000  N
  H49      1.0000 0.42290  0.18430  0.22820  Biso   1.000  H
  H50      1.0000 0.35670  0.16670  0.25970  Biso   1.000  H
  O21      1.0000 0.26130  0.83240  0.60521  Biso   1.000  O
  O22      1.0000 0.39650  0.80960  0.62052  Biso   1.000  O
  O23      1.0000 0.10670  0.69200  0.77554  Biso   1.000  O
  O24      1.0000 0.24120  0.66490  0.78857  Biso   1.000  O
  C61      1.0000 0.31520  0.80690  0.62760  Biso   1.000  C
  C62      1.0000 0.28330  0.77230  0.66260  Biso   1.000  C
  C63      1.0000 0.33950  0.74320  0.68620  Biso   1.000  C
  C64      1.0000 0.19250  0.77440  0.67180  Biso   1.000  C
  C65      1.0000 0.30720  0.71630  0.72010  Biso   1.000  C
  H51      1.0000 0.39750  0.73560  0.67710  Biso   1.000  H
  H52      1.0000 0.15310  0.79450  0.65500  Biso   1.000  H
  C66      1.0000 0.16000  0.74740  0.70540  Biso   1.000  C
  C67      1.0000 0.21880  0.71630  0.72980  Biso   1.000  C
  C68      1.0000 0.18860  0.69280  0.76690  Biso   1.000  C
  N16      1.0000 0.07150  0.75570  0.71110  Biso   1.000  N
  H53      1.0000 0.04110  0.77650  0.69420  Biso   1.000  H
  H54      1.0000 0.04500  0.74020  0.73160  Biso   1.000  H
  C69      1.0000 0.20130  0.79190  0.67800  Biso   1.000  C
  C70      1.0000 0.16950  0.76820  0.71220  Biso   1.000  C
  N17      1.0000 0.08640  0.78900  0.72580  Biso   1.000  N
  C71      1.0000 0.28220  0.78350  0.66500  Biso   1.000  C
  C72      1.0000 0.22210  0.73010  0.73310  Biso   1.000  C
  H55      1.0000 0.40040  0.74110  0.67980  Biso   1.000  H
  H56      1.0000 0.16310  0.81570  0.66300  Biso   1.000  H
  H57      1.0000 0.06320  0.77520  0.74750  Biso   1.000  H
  H58      1.0000 0.05840  0.81570  0.71230  Biso   1.000  H
  N18      1.0000 0.36900  0.68600  0.73800  Biso   1.000  N
  H59      1.0000 0.42290  0.68430  0.72820  Biso   1.000  H
  H60      1.0000 0.35670  0.66670  0.75970  Biso   1.000  H
  O25      1.0000 0.76130  0.33240  0.60521  Biso   1.000  O
  O26      1.0000 0.89650  0.30960  0.62052  Biso   1.000  O
  O27      1.0000 0.60670  0.19200  0.77554  Biso   1.000  O
  O28      1.0000 0.74120  0.16490  0.78857  Biso   1.000  O
  C73      1.0000 0.81520  0.30690  0.62760  Biso   1.000  C
  C74      1.0000 0.78330  0.27230  0.66260  Biso   1.000  C
  C75      1.0000 0.83950  0.24320  0.68620  Biso   1.000  C
  C76      1.0000 0.69250  0.27440  0.67180  Biso   1.000  C
  C77      1.0000 0.80720  0.21630  0.72010  Biso   1.000  C
  H61      1.0000 0.89750  0.23560  0.67710  Biso   1.000  H
  H62      1.0000 0.65310  0.29450  0.65500  Biso   1.000  H
  C78      1.0000 0.66000  0.24740  0.70540  Biso   1.000  C
  C79      1.0000 0.71880  0.21630  0.72980  Biso   1.000  C
  C80      1.0000 0.68860  0.19280  0.76690  Biso   1.000  C
  N19      1.0000 0.57150  0.25570  0.71110  Biso   1.000  N
  H63      1.0000 0.54110  0.27650  0.69420  Biso   1.000  H
  H64      1.0000 0.54500  0.24020  0.73160  Biso   1.000  H
  C81      1.0000 0.70130  0.29190  0.67800  Biso   1.000  C
  C82      1.0000 0.66950  0.26820  0.71220  Biso   1.000  C
  N20      1.0000 0.58640  0.28900  0.72580  Biso   1.000  N
  C83      1.0000 0.78220  0.28350  0.66500  Biso   1.000  C
  C84      1.0000 0.72210  0.23010  0.73310  Biso   1.000  C
  H65      1.0000 0.90040  0.24110  0.67980  Biso   1.000  H
  H66      1.0000 0.66310  0.31570  0.66300  Biso   1.000  H
  H67      1.0000 0.56320  0.27520  0.74750  Biso   1.000  H
  H68      1.0000 0.55840  0.31570  0.71230  Biso   1.000  H
  N21      1.0000 0.86900  0.18600  0.73800  Biso   1.000  N
  H69      1.0000 0.92290  0.18430  0.72820  Biso   1.000  H
  H70      1.0000 0.85670  0.16670  0.75970  Biso   1.000  H
  O29      1.0000 0.76130  0.83240  0.10521  Biso   1.000  O
  O30      1.0000 0.89650  0.80960  0.12052  Biso   1.000  O
  O31      1.0000 0.60670  0.69200  0.27554  Biso   1.000  O
  O32      1.0000 0.74120  0.66490  0.28857  Biso   1.000  O
  C85      1.0000 0.81520  0.80690  0.12760  Biso   1.000  C
  C86      1.0000 0.78330  0.77230  0.16260  Biso   1.000  C
  C87      1.0000 0.83950  0.74320  0.18620  Biso   1.000  C
  C88      1.0000 0.69250  0.77440  0.17180  Biso   1.000  C
  C89      1.0000 0.80720  0.71630  0.22010  Biso   1.000  C
  H71      1.0000 0.89750  0.73560  0.17710  Biso   1.000  H
  H72      1.0000 0.65310  0.79450  0.15500  Biso   1.000  H
  C90      1.0000 0.66000  0.74740  0.20540  Biso   1.000  C
  C91      1.0000 0.71880  0.71630  0.22980  Biso   1.000  C
  C92      1.0000 0.68860  0.69280  0.26690  Biso   1.000  C
  N22      1.0000 0.57150  0.75570  0.21110  Biso   1.000  N
  H73      1.0000 0.54110  0.77650  0.19420  Biso   1.000  H
  H74      1.0000 0.54500  0.74020  0.23160  Biso   1.000  H
  C93      1.0000 0.70130  0.79190  0.17800  Biso   1.000  C
  C94      1.0000 0.66950  0.76820  0.21220  Biso   1.000  C
  N23      1.0000 0.58640  0.78900  0.22580  Biso   1.000  N
  C95      1.0000 0.78220  0.78350  0.16500  Biso   1.000  C
  C96      1.0000 0.72210  0.73010  0.23310  Biso   1.000  C
  H75      1.0000 0.90040  0.74110  0.17980  Biso   1.000  H
  H76      1.0000 0.66310  0.81570  0.16300  Biso   1.000  H
  H77      1.0000 0.56320  0.77520  0.24750  Biso   1.000  H
  H78      1.0000 0.55840  0.81570  0.21230  Biso   1.000  H
  N24      1.0000 0.86900  0.68600  0.23800  Biso   1.000  N
  H79      1.0000 0.92290  0.68430  0.22820  Biso   1.000  H
  H80      1.0000 0.85670  0.66670  0.25970  Biso   1.000  H
  O33      1.0000 0.73870  0.58240  0.35521  Biso   1.000  O
  O34      1.0000 0.60350  0.55960  0.37052  Biso   1.000  O
  O35      1.0000 0.89330  0.44200  0.52554  Biso   1.000  O
  O36      1.0000 0.75880  0.41490  0.53857  Biso   1.000  O
  C97      1.0000 0.68480  0.55690  0.37760  Biso   1.000  C
  C98      1.0000 0.71670  0.52230  0.41260  Biso   1.000  C
  C99      1.0000 0.66050  0.49320  0.43620  Biso   1.000  C
  C100     1.0000 0.80750  0.52440  0.42180  Biso   1.000  C
  C101     1.0000 0.69280  0.46630  0.47010  Biso   1.000  C
  H81      1.0000 0.60250  0.48560  0.42710  Biso   1.000  H
  H82      1.0000 0.84690  0.54450  0.40500  Biso   1.000  H
  C102     1.0000 0.84000  0.49740  0.45540  Biso   1.000  C
  C103     1.0000 0.78120  0.46630  0.47980  Biso   1.000  C
  C104     1.0000 0.81140  0.44280  0.51690  Biso   1.000  C
  N25      1.0000 0.92850  0.50570  0.46110  Biso   1.000  N
  H83      1.0000 0.95890  0.52650  0.44420  Biso   1.000  H
  H84      1.0000 0.95500  0.49020  0.48160  Biso   1.000  H
  C105     1.0000 0.79870  0.54190  0.42800  Biso   1.000  C
  C106     1.0000 0.83050  0.51820  0.46220  Biso   1.000  C
  N26      1.0000 0.91360  0.53900  0.47580  Biso   1.000  N
  C107     1.0000 0.71780  0.53350  0.41500  Biso   1.000  C
  C108     1.0000 0.77790  0.48010  0.48310  Biso   1.000  C
  H85      1.0000 0.59960  0.49110  0.42980  Biso   1.000  H
  H86      1.0000 0.83690  0.56570  0.41300  Biso   1.000  H
  H87      1.0000 0.93680  0.52520  0.49750  Biso   1.000  H
  H88      1.0000 0.94160  0.56570  0.46230  Biso   1.000  H
  N27      1.0000 0.63100  0.43600  0.48800  Biso   1.000  N
  H89      1.0000 0.57710  0.43430  0.47820  Biso   1.000  H
  H90      1.0000 0.64330  0.41670  0.50970  Biso   1.000  H
  O37      1.0000 0.73870  0.08240  0.85521  Biso   1.000  O
  O38      1.0000 0.60350  0.05960  0.87052  Biso   1.000  O
  O39      1.0000 0.89330  0.94200  0.02554  Biso   1.000  O
  O40      1.0000 0.75880  0.91490  0.03857  Biso   1.000  O
  C109     1.0000 0.68480  0.05690  0.87760  Biso   1.000  C
  C110     1.0000 0.71670  0.02230  0.91260  Biso   1.000  C
  C111     1.0000 0.66050  0.99320  0.93620  Biso   1.000  C
  C112     1.0000 0.80750  0.02440  0.92180  Biso   1.000  C
  C113     1.0000 0.69280  0.96630  0.97010  Biso   1.000  C
  H91      1.0000 0.60250  0.98560  0.92710  Biso   1.000  H
  H92      1.0000 0.84690  0.04450  0.90500  Biso   1.000  H
  C114     1.0000 0.84000  0.99740  0.95540  Biso   1.000  C
  C115     1.0000 0.78120  0.96630  0.97980  Biso   1.000  C
  C116     1.0000 0.81140  0.94280  0.01690  Biso   1.000  C
  N28      1.0000 0.92850  0.00570  0.96110  Biso   1.000  N
  H93      1.0000 0.95890  0.02650  0.94420  Biso   1.000  H
  H94      1.0000 0.95500  0.99020  0.98160  Biso   1.000  H
  C117     1.0000 0.79870  0.04190  0.92800  Biso   1.000  C
  C118     1.0000 0.83050  0.01820  0.96220  Biso   1.000  C
  N29      1.0000 0.91360  0.03900  0.97580  Biso   1.000  N
  C119     1.0000 0.71780  0.03350  0.91500  Biso   1.000  C
  C120     1.0000 0.77790  0.98010  0.98310  Biso   1.000  C
  H95      1.0000 0.59960  0.99110  0.92980  Biso   1.000  H
  H96      1.0000 0.83690  0.06570  0.91300  Biso   1.000  H
  H97      1.0000 0.93680  0.02520  0.99750  Biso   1.000  H
  H98      1.0000 0.94160  0.06570  0.96230  Biso   1.000  H
  N30      1.0000 0.63100  0.93600  0.98800  Biso   1.000  N
  H99      1.0000 0.57710  0.93430  0.97820  Biso   1.000  H
  H100     1.0000 0.64330  0.91670  0.00970  Biso   1.000  H
  O41      1.0000 0.23870  0.58240  0.85521  Biso   1.000  O
  O42      1.0000 0.10350  0.55960  0.87052  Biso   1.000  O
  O43      1.0000 0.39330  0.44200  0.02554  Biso   1.000  O
  O44      1.0000 0.25880  0.41490  0.03857  Biso   1.000  O
  C121     1.0000 0.18480  0.55690  0.87760  Biso   1.000  C
  C122     1.0000 0.21670  0.52230  0.91260  Biso   1.000  C
  C123     1.0000 0.16050  0.49320  0.93620  Biso   1.000  C
  C124     1.0000 0.30750  0.52440  0.92180  Biso   1.000  C
  C125     1.0000 0.19280  0.46630  0.97010  Biso   1.000  C
  H101     1.0000 0.10250  0.48560  0.92710  Biso   1.000  H
  H102     1.0000 0.34690  0.54450  0.90500  Biso   1.000  H
  C126     1.0000 0.34000  0.49740  0.95540  Biso   1.000  C
  C127     1.0000 0.28120  0.46630  0.97980  Biso   1.000  C
  C128     1.0000 0.31140  0.44280  0.01690  Biso   1.000  C
  N31      1.0000 0.42850  0.50570  0.96110  Biso   1.000  N
  H103     1.0000 0.45890  0.52650  0.94420  Biso   1.000  H
  H104     1.0000 0.45500  0.49020  0.98160  Biso   1.000  H
  C129     1.0000 0.29870  0.54190  0.92800  Biso   1.000  C
  C130     1.0000 0.33050  0.51820  0.96220  Biso   1.000  C
  N32      1.0000 0.41360  0.53900  0.97580  Biso   1.000  N
  C131     1.0000 0.21780  0.53350  0.91500  Biso   1.000  C
  C132     1.0000 0.27790  0.48010  0.98310  Biso   1.000  C
  H105     1.0000 0.09960  0.49110  0.92980  Biso   1.000  H
  H106     1.0000 0.33690  0.56570  0.91300  Biso   1.000  H
  H107     1.0000 0.43680  0.52520  0.99750  Biso   1.000  H
  H108     1.0000 0.44160  0.56570  0.96230  Biso   1.000  H
  N33      1.0000 0.13100  0.43600  0.98800  Biso   1.000  N
  H109     1.0000 0.07710  0.43430  0.97820  Biso   1.000  H
  H110     1.0000 0.14330  0.41670  0.00970  Biso   1.000  H
  O45      1.0000 0.23870  0.08240  0.35521  Biso   1.000  O
  O46      1.0000 0.10350  0.05960  0.37052  Biso   1.000  O
  O47      1.0000 0.39330  0.94200  0.52554  Biso   1.000  O
  O48      1.0000 0.25880  0.91490  0.53857  Biso   1.000  O
  C133     1.0000 0.18480  0.05690  0.37760  Biso   1.000  C
  C134     1.0000 0.21670  0.02230  0.41260  Biso   1.000  C
  C135     1.0000 0.16050  0.99320  0.43620  Biso   1.000  C
  C136     1.0000 0.30750  0.02440  0.42180  Biso   1.000  C
  C137     1.0000 0.19280  0.96630  0.47010  Biso   1.000  C
  H111     1.0000 0.10250  0.98560  0.42710  Biso   1.000  H
  H112     1.0000 0.34690  0.04450  0.40500  Biso   1.000  H
  C138     1.0000 0.34000  0.99740  0.45540  Biso   1.000  C
  C139     1.0000 0.28120  0.96630  0.47980  Biso   1.000  C
  C140     1.0000 0.31140  0.94280  0.51690  Biso   1.000  C
  N34      1.0000 0.42850  0.00570  0.46110  Biso   1.000  N
  H113     1.0000 0.45890  0.02650  0.44420  Biso   1.000  H
  H114     1.0000 0.45500  0.99020  0.48160  Biso   1.000  H
  C141     1.0000 0.29870  0.04190  0.42800  Biso   1.000  C
  C142     1.0000 0.33050  0.01820  0.46220  Biso   1.000  C
  N35      1.0000 0.41360  0.03900  0.47580  Biso   1.000  N
  C143     1.0000 0.21780  0.03350  0.41500  Biso   1.000  C
  C144     1.0000 0.27790  0.98010  0.48310  Biso   1.000  C
  H115     1.0000 0.09960  0.99110  0.42980  Biso   1.000  H
  H116     1.0000 0.33690  0.06570  0.41300  Biso   1.000  H
  H117     1.0000 0.43680  0.02520  0.49750  Biso   1.000  H
  H118     1.0000 0.44160  0.06570  0.46230  Biso   1.000  H
  N36      1.0000 0.13100  0.93600  0.48800  Biso   1.000  N
  H119     1.0000 0.07710  0.93430  0.47820  Biso   1.000  H
  H120     1.0000 0.14330  0.91670  0.50970  Biso   1.000  H
  O49      1.0000 0.51130  0.66760  0.35521  Biso   1.000  O
  O50      1.0000 0.64650  0.69040  0.37052  Biso   1.000  O
  O51      1.0000 0.35670  0.80800  0.52554  Biso   1.000  O
  O52      1.0000 0.49120  0.83510  0.53857  Biso   1.000  O
  C145     1.0000 0.56520  0.69310  0.37760  Biso   1.000  C
  C146     1.0000 0.53330  0.72770  0.41260  Biso   1.000  C
  C147     1.0000 0.58950  0.75680  0.43620  Biso   1.000  C
  C148     1.0000 0.44250  0.72560  0.42180  Biso   1.000  C
  C149     1.0000 0.55720  0.78370  0.47010  Biso   1.000  C
  H121     1.0000 0.64750  0.76440  0.42710  Biso   1.000  H
  H122     1.0000 0.40310  0.70550  0.40500  Biso   1.000  H
  C150     1.0000 0.41000  0.75260  0.45540  Biso   1.000  C
  C151     1.0000 0.46880  0.78370  0.47980  Biso   1.000  C
  C152     1.0000 0.43860  0.80720  0.51690  Biso   1.000  C
  N37      1.0000 0.32150  0.74430  0.46110  Biso   1.000  N
  H123     1.0000 0.29110  0.72350  0.44420  Biso   1.000  H
  H124     1.0000 0.29500  0.75980  0.48160  Biso   1.000  H
  C153     1.0000 0.45130  0.70810  0.42800  Biso   1.000  C
  C154     1.0000 0.41950  0.73180  0.46220  Biso   1.000  C
  N38      1.0000 0.33640  0.71100  0.47580  Biso   1.000  N
  C155     1.0000 0.53220  0.71650  0.41500  Biso   1.000  C
  C156     1.0000 0.47210  0.76990  0.48310  Biso   1.000  C
  H125     1.0000 0.65040  0.75890  0.42980  Biso   1.000  H
  H126     1.0000 0.41310  0.68430  0.41300  Biso   1.000  H
  H127     1.0000 0.31320  0.72480  0.49750  Biso   1.000  H
  H128     1.0000 0.30840  0.68430  0.46230  Biso   1.000  H
  N39      1.0000 0.61900  0.81400  0.48800  Biso   1.000  N
  H129     1.0000 0.67290  0.81570  0.47820  Biso   1.000  H
  H130     1.0000 0.60670  0.83330  0.50970  Biso   1.000  H
  O53      1.0000 0.51130  0.16760  0.85521  Biso   1.000  O
  O54      1.0000 0.64650  0.19040  0.87052  Biso   1.000  O
  O55      1.0000 0.35670  0.30800  0.02554  Biso   1.000  O
  O56      1.0000 0.49120  0.33510  0.03857  Biso   1.000  O
  C157     1.0000 0.56520  0.19310  0.87760  Biso   1.000  C
  C158     1.0000 0.53330  0.22770  0.91260  Biso   1.000  C
  C159     1.0000 0.58950  0.25680  0.93620  Biso   1.000  C
  C160     1.0000 0.44250  0.22560  0.92180  Biso   1.000  C
  C161     1.0000 0.55720  0.28370  0.97010  Biso   1.000  C
  H131     1.0000 0.64750  0.26440  0.92710  Biso   1.000  H
  H132     1.0000 0.40310  0.20550  0.90500  Biso   1.000  H
  C162     1.0000 0.41000  0.25260  0.95540  Biso   1.000  C
  C163     1.0000 0.46880  0.28370  0.97980  Biso   1.000  C
  C164     1.0000 0.43860  0.30720  0.01690  Biso   1.000  C
  N40      1.0000 0.32150  0.24430  0.96110  Biso   1.000  N
  H133     1.0000 0.29110  0.22350  0.94420  Biso   1.000  H
  H134     1.0000 0.29500  0.25980  0.98160  Biso   1.000  H
  C165     1.0000 0.45130  0.20810  0.92800  Biso   1.000  C
  C166     1.0000 0.41950  0.23180  0.96220  Biso   1.000  C
  N41      1.0000 0.33640  0.21100  0.97580  Biso   1.000  N
  C167     1.0000 0.53220  0.21650  0.91500  Biso   1.000  C
  C168     1.0000 0.47210  0.26990  0.98310  Biso   1.000  C
  H135     1.0000 0.65040  0.25890  0.92980  Biso   1.000  H
  H136     1.0000 0.41310  0.18430  0.91300  Biso   1.000  H
  H137     1.0000 0.31320  0.22480  0.99750  Biso   1.000  H
  H138     1.0000 0.30840  0.18430  0.96230  Biso   1.000  H
  N42      1.0000 0.61900  0.31400  0.98800  Biso   1.000  N
  H139     1.0000 0.67290  0.31570  0.97820  Biso   1.000  H
  H140     1.0000 0.60670  0.33330  0.00970  Biso   1.000  H
  O57      1.0000 0.01130  0.66760  0.85521  Biso   1.000  O
  O58      1.0000 0.14650  0.69040  0.87052  Biso   1.000  O
  O59      1.0000 0.85670  0.80800  0.02554  Biso   1.000  O
  O60      1.0000 0.99120  0.83510  0.03857  Biso   1.000  O
  C169     1.0000 0.06520  0.69310  0.87760  Biso   1.000  C
  C170     1.0000 0.03330  0.72770  0.91260  Biso   1.000  C
  C171     1.0000 0.08950  0.75680  0.93620  Biso   1.000  C
  C172     1.0000 0.94250  0.72560  0.92180  Biso   1.000  C
  C173     1.0000 0.05720  0.78370  0.97010  Biso   1.000  C
  H141     1.0000 0.14750  0.76440  0.92710  Biso   1.000  H
  H142     1.0000 0.90310  0.70550  0.90500  Biso   1.000  H
  C174     1.0000 0.91000  0.75260  0.95540  Biso   1.000  C
  C175     1.0000 0.96880  0.78370  0.97980  Biso   1.000  C
  C176     1.0000 0.93860  0.80720  0.01690  Biso   1.000  C
  N43      1.0000 0.82150  0.74430  0.96110  Biso   1.000  N
  H143     1.0000 0.79110  0.72350  0.94420  Biso   1.000  H
  H144     1.0000 0.79500  0.75980  0.98160  Biso   1.000  H
  C177     1.0000 0.95130  0.70810  0.92800  Biso   1.000  C
  C178     1.0000 0.91950  0.73180  0.96220  Biso   1.000  C
  N44      1.0000 0.83640  0.71100  0.97580  Biso   1.000  N
  C179     1.0000 0.03220  0.71650  0.91500  Biso   1.000  C
  C180     1.0000 0.97210  0.76990  0.98310  Biso   1.000  C
  H145     1.0000 0.15040  0.75890  0.92980  Biso   1.000  H
  H146     1.0000 0.91310  0.68430  0.91300  Biso   1.000  H
  H147     1.0000 0.81320  0.72480  0.99750  Biso   1.000  H
  H148     1.0000 0.80840  0.68430  0.96230  Biso   1.000  H
  N45      1.0000 0.11900  0.81400  0.98800  Biso   1.000  N
  H149     1.0000 0.17290  0.81570  0.97820  Biso   1.000  H
  H150     1.0000 0.10670  0.83330  0.00970  Biso   1.000  H
  O61      1.0000 0.01130  0.16760  0.35521  Biso   1.000  O
  O62      1.0000 0.14650  0.19040  0.37052  Biso   1.000  O
  O63      1.0000 0.85670  0.30800  0.52554  Biso   1.000  O
  O64      1.0000 0.99120  0.33510  0.53857  Biso   1.000  O
  C181     1.0000 0.06520  0.19310  0.37760  Biso   1.000  C
  C182     1.0000 0.03330  0.22770  0.41260  Biso   1.000  C
  C183     1.0000 0.08950  0.25680  0.43620  Biso   1.000  C
  C184     1.0000 0.94250  0.22560  0.42180  Biso   1.000  C
  C185     1.0000 0.05720  0.28370  0.47010  Biso   1.000  C
  H151     1.0000 0.14750  0.26440  0.42710  Biso   1.000  H
  H152     1.0000 0.90310  0.20550  0.40500  Biso   1.000  H
  C186     1.0000 0.91000  0.25260  0.45540  Biso   1.000  C
  C187     1.0000 0.96880  0.28370  0.47980  Biso   1.000  C
  C188     1.0000 0.93860  0.30720  0.51690  Biso   1.000  C
  N46      1.0000 0.82150  0.24430  0.46110  Biso   1.000  N
  H153     1.0000 0.79110  0.22350  0.44420  Biso   1.000  H
  H154     1.0000 0.79500  0.25980  0.48160  Biso   1.000  H
  C189     1.0000 0.95130  0.20810  0.42800  Biso   1.000  C
  C190     1.0000 0.91950  0.23180  0.46220  Biso   1.000  C
  N47      1.0000 0.83640  0.21100  0.47580  Biso   1.000  N
  C191     1.0000 0.03220  0.21650  0.41500  Biso   1.000  C
  C192     1.0000 0.97210  0.26990  0.48310  Biso   1.000  C
  H155     1.0000 0.15040  0.25890  0.42980  Biso   1.000  H
  H156     1.0000 0.91310  0.18430  0.41300  Biso   1.000  H
  H157     1.0000 0.81320  0.22480  0.49750  Biso   1.000  H
  H158     1.0000 0.80840  0.18430  0.46230  Biso   1.000  H
  N48      1.0000 0.11900  0.31400  0.48800  Biso   1.000  N
  H159     1.0000 0.17290  0.31570  0.47820  Biso   1.000  H
  H160     1.0000 0.10670  0.33330  0.50970  Biso   1.000  H
  In1      1.0000 0.37500  0.37500  0.07207  Biso   1.000  In
  In2      1.0000 0.37500  0.87500  0.57207  Biso   1.000  In
  In3      1.0000 0.87500  0.37500  0.57207  Biso   1.000  In
  In4      1.0000 0.87500  0.87500  0.07207  Biso   1.000  In
  In5      1.0000 0.62500  0.62500  0.32207  Biso   1.000  In
  In6      1.0000 0.62500  0.12500  0.82207  Biso   1.000  In
  In7      1.0000 0.12500  0.62500  0.82207  Biso   1.000  In
  In8      1.0000 0.12500  0.12500  0.32207  Biso   1.000  In
  O65      1.0000 0.26130  0.41760  0.64479  Biso   1.000  O
  O66      1.0000 0.39650  0.44040  0.62948  Biso   1.000  O
  O67      1.0000 0.10670  0.55800  0.47446  Biso   1.000  O
  O68      1.0000 0.24120  0.58510  0.46143  Biso   1.000  O
  C193     1.0000 0.31520  0.44310  0.62240  Biso   1.000  C
  C194     1.0000 0.28330  0.47770  0.58740  Biso   1.000  C
  C195     1.0000 0.33950  0.50680  0.56380  Biso   1.000  C
  C196     1.0000 0.19250  0.47560  0.57820  Biso   1.000  C
  C197     1.0000 0.30720  0.53370  0.52990  Biso   1.000  C
  H161     1.0000 0.39750  0.51440  0.57290  Biso   1.000  H
  H162     1.0000 0.15310  0.45550  0.59500  Biso   1.000  H
  C198     1.0000 0.16000  0.50260  0.54460  Biso   1.000  C
  C199     1.0000 0.21880  0.53370  0.52020  Biso   1.000  C
  C200     1.0000 0.18860  0.55720  0.48310  Biso   1.000  C
  N49      1.0000 0.07150  0.49430  0.53890  Biso   1.000  N
  H163     1.0000 0.04110  0.47350  0.55580  Biso   1.000  H
  H164     1.0000 0.04500  0.50980  0.51840  Biso   1.000  H
  C201     1.0000 0.20130  0.45810  0.57200  Biso   1.000  C
  C202     1.0000 0.16950  0.48180  0.53780  Biso   1.000  C
  N50      1.0000 0.08640  0.46100  0.52420  Biso   1.000  N
  C203     1.0000 0.28220  0.46650  0.58500  Biso   1.000  C
  C204     1.0000 0.22210  0.51990  0.51690  Biso   1.000  C
  H165     1.0000 0.40040  0.50890  0.57020  Biso   1.000  H
  H166     1.0000 0.16310  0.43430  0.58700  Biso   1.000  H
  H167     1.0000 0.06320  0.47480  0.50250  Biso   1.000  H
  H168     1.0000 0.05840  0.43430  0.53770  Biso   1.000  H
  N51      1.0000 0.36900  0.56400  0.51200  Biso   1.000  N
  H169     1.0000 0.42290  0.56570  0.52180  Biso   1.000  H
  H170     1.0000 0.35670  0.58330  0.49030  Biso   1.000  H
  O69      1.0000 0.26130  0.91760  0.14479  Biso   1.000  O
  O70      1.0000 0.39650  0.94040  0.12948  Biso   1.000  O
  O71      1.0000 0.10670  0.05800  0.97446  Biso   1.000  O
  O72      1.0000 0.24120  0.08510  0.96143  Biso   1.000  O
  C205     1.0000 0.31520  0.94310  0.12240  Biso   1.000  C
  C206     1.0000 0.28330  0.97770  0.08740  Biso   1.000  C
  C207     1.0000 0.33950  0.00680  0.06380  Biso   1.000  C
  C208     1.0000 0.19250  0.97560  0.07820  Biso   1.000  C
  C209     1.0000 0.30720  0.03370  0.02990  Biso   1.000  C
  H171     1.0000 0.39750  0.01440  0.07290  Biso   1.000  H
  H172     1.0000 0.15310  0.95550  0.09500  Biso   1.000  H
  C210     1.0000 0.16000  0.00260  0.04460  Biso   1.000  C
  C211     1.0000 0.21880  0.03370  0.02020  Biso   1.000  C
  C212     1.0000 0.18860  0.05720  0.98310  Biso   1.000  C
  N52      1.0000 0.07150  0.99430  0.03890  Biso   1.000  N
  H173     1.0000 0.04110  0.97350  0.05580  Biso   1.000  H
  H174     1.0000 0.04500  0.00980  0.01840  Biso   1.000  H
  C213     1.0000 0.20130  0.95810  0.07200  Biso   1.000  C
  C214     1.0000 0.16950  0.98180  0.03780  Biso   1.000  C
  N53      1.0000 0.08640  0.96100  0.02420  Biso   1.000  N
  C215     1.0000 0.28220  0.96650  0.08500  Biso   1.000  C
  C216     1.0000 0.22210  0.01990  0.01690  Biso   1.000  C
  H175     1.0000 0.40040  0.00890  0.07020  Biso   1.000  H
  H176     1.0000 0.16310  0.93430  0.08700  Biso   1.000  H
  H177     1.0000 0.06320  0.97480  0.00250  Biso   1.000  H
  H178     1.0000 0.05840  0.93430  0.03770  Biso   1.000  H
  N54      1.0000 0.36900  0.06400  0.01200  Biso   1.000  N
  H179     1.0000 0.42290  0.06570  0.02180  Biso   1.000  H
  H180     1.0000 0.35670  0.08330  0.99030  Biso   1.000  H
  O73      1.0000 0.76130  0.41760  0.14479  Biso   1.000  O
  O74      1.0000 0.89650  0.44040  0.12948  Biso   1.000  O
  O75      1.0000 0.60670  0.55800  0.97446  Biso   1.000  O
  O76      1.0000 0.74120  0.58510  0.96143  Biso   1.000  O
  C217     1.0000 0.81520  0.44310  0.12240  Biso   1.000  C
  C218     1.0000 0.78330  0.47770  0.08740  Biso   1.000  C
  C219     1.0000 0.83950  0.50680  0.06380  Biso   1.000  C
  C220     1.0000 0.69250  0.47560  0.07820  Biso   1.000  C
  C221     1.0000 0.80720  0.53370  0.02990  Biso   1.000  C
  H181     1.0000 0.89750  0.51440  0.07290  Biso   1.000  H
  H182     1.0000 0.65310  0.45550  0.09500  Biso   1.000  H
  C222     1.0000 0.66000  0.50260  0.04460  Biso   1.000  C
  C223     1.0000 0.71880  0.53370  0.02020  Biso   1.000  C
  C224     1.0000 0.68860  0.55720  0.98310  Biso   1.000  C
  N55      1.0000 0.57150  0.49430  0.03890  Biso   1.000  N
  H183     1.0000 0.54110  0.47350  0.05580  Biso   1.000  H
  H184     1.0000 0.54500  0.50980  0.01840  Biso   1.000  H
  C225     1.0000 0.70130  0.45810  0.07200  Biso   1.000  C
  C226     1.0000 0.66950  0.48180  0.03780  Biso   1.000  C
  N56      1.0000 0.58640  0.46100  0.02420  Biso   1.000  N
  C227     1.0000 0.78220  0.46650  0.08500  Biso   1.000  C
  C228     1.0000 0.72210  0.51990  0.01690  Biso   1.000  C
  H185     1.0000 0.90040  0.50890  0.07020  Biso   1.000  H
  H186     1.0000 0.66310  0.43430  0.08700  Biso   1.000  H
  H187     1.0000 0.56320  0.47480  0.00250  Biso   1.000  H
  H188     1.0000 0.55840  0.43430  0.03770  Biso   1.000  H
  N57      1.0000 0.86900  0.56400  0.01200  Biso   1.000  N
  H189     1.0000 0.92290  0.56570  0.02180  Biso   1.000  H
  H190     1.0000 0.85670  0.58330  0.99030  Biso   1.000  H
  O77      1.0000 0.76130  0.91760  0.64479  Biso   1.000  O
  O78      1.0000 0.89650  0.94040  0.62948  Biso   1.000  O
  O79      1.0000 0.60670  0.05800  0.47446  Biso   1.000  O
  O80      1.0000 0.74120  0.08510  0.46143  Biso   1.000  O
  C229     1.0000 0.81520  0.94310  0.62240  Biso   1.000  C
  C230     1.0000 0.78330  0.97770  0.58740  Biso   1.000  C
  C231     1.0000 0.83950  0.00680  0.56380  Biso   1.000  C
  C232     1.0000 0.69250  0.97560  0.57820  Biso   1.000  C
  C233     1.0000 0.80720  0.03370  0.52990  Biso   1.000  C
  H191     1.0000 0.89750  0.01440  0.57290  Biso   1.000  H
  H192     1.0000 0.65310  0.95550  0.59500  Biso   1.000  H
  C234     1.0000 0.66000  0.00260  0.54460  Biso   1.000  C
  C235     1.0000 0.71880  0.03370  0.52020  Biso   1.000  C
  C236     1.0000 0.68860  0.05720  0.48310  Biso   1.000  C
  N58      1.0000 0.57150  0.99430  0.53890  Biso   1.000  N
  H193     1.0000 0.54110  0.97350  0.55580  Biso   1.000  H
  H194     1.0000 0.54500  0.00980  0.51840  Biso   1.000  H
  C237     1.0000 0.70130  0.95810  0.57200  Biso   1.000  C
  C238     1.0000 0.66950  0.98180  0.53780  Biso   1.000  C
  N59      1.0000 0.58640  0.96100  0.52420  Biso   1.000  N
  C239     1.0000 0.78220  0.96650  0.58500  Biso   1.000  C
  C240     1.0000 0.72210  0.01990  0.51690  Biso   1.000  C
  H195     1.0000 0.90040  0.00890  0.57020  Biso   1.000  H
  H196     1.0000 0.66310  0.93430  0.58700  Biso   1.000  H
  H197     1.0000 0.56320  0.97480  0.50250  Biso   1.000  H
  H198     1.0000 0.55840  0.93430  0.53770  Biso   1.000  H
  N60      1.0000 0.86900  0.06400  0.51200  Biso   1.000  N
  H199     1.0000 0.92290  0.06570  0.52180  Biso   1.000  H
  H200     1.0000 0.85670  0.08330  0.49030  Biso   1.000  H
  O81      1.0000 0.48870  0.33240  0.64479  Biso   1.000  O
  O82      1.0000 0.35350  0.30960  0.62948  Biso   1.000  O
  O83      1.0000 0.64330  0.19200  0.47446  Biso   1.000  O
  O84      1.0000 0.50880  0.16490  0.46143  Biso   1.000  O
  C241     1.0000 0.43480  0.30690  0.62240  Biso   1.000  C
  C242     1.0000 0.46670  0.27230  0.58740  Biso   1.000  C
  C243     1.0000 0.41050  0.24320  0.56380  Biso   1.000  C
  C244     1.0000 0.55750  0.27440  0.57820  Biso   1.000  C
  C245     1.0000 0.44280  0.21630  0.52990  Biso   1.000  C
  H201     1.0000 0.35250  0.23560  0.57290  Biso   1.000  H
  H202     1.0000 0.59690  0.29450  0.59500  Biso   1.000  H
  C246     1.0000 0.59000  0.24740  0.54460  Biso   1.000  C
  C247     1.0000 0.53120  0.21630  0.52020  Biso   1.000  C
  C248     1.0000 0.56140  0.19280  0.48310  Biso   1.000  C
  N61      1.0000 0.67850  0.25570  0.53890  Biso   1.000  N
  H203     1.0000 0.70890  0.27650  0.55580  Biso   1.000  H
  H204     1.0000 0.70500  0.24020  0.51840  Biso   1.000  H
  C249     1.0000 0.54870  0.29190  0.57200  Biso   1.000  C
  C250     1.0000 0.58050  0.26820  0.53780  Biso   1.000  C
  N62      1.0000 0.66360  0.28900  0.52420  Biso   1.000  N
  C251     1.0000 0.46780  0.28350  0.58500  Biso   1.000  C
  C252     1.0000 0.52790  0.23010  0.51690  Biso   1.000  C
  H205     1.0000 0.34960  0.24110  0.57020  Biso   1.000  H
  H206     1.0000 0.58690  0.31570  0.58700  Biso   1.000  H
  H207     1.0000 0.68680  0.27520  0.50250  Biso   1.000  H
  H208     1.0000 0.69160  0.31570  0.53770  Biso   1.000  H
  N63      1.0000 0.38100  0.18600  0.51200  Biso   1.000  N
  H209     1.0000 0.32710  0.18430  0.52180  Biso   1.000  H
  H210     1.0000 0.39330  0.16670  0.49030  Biso   1.000  H
  O85      1.0000 0.48870  0.83240  0.14479  Biso   1.000  O
  O86      1.0000 0.35350  0.80960  0.12948  Biso   1.000  O
  O87      1.0000 0.64330  0.69200  0.97446  Biso   1.000  O
  O88      1.0000 0.50880  0.66490  0.96143  Biso   1.000  O
  C253     1.0000 0.43480  0.80690  0.12240  Biso   1.000  C
  C254     1.0000 0.46670  0.77230  0.08740  Biso   1.000  C
  C255     1.0000 0.41050  0.74320  0.06380  Biso   1.000  C
  C256     1.0000 0.55750  0.77440  0.07820  Biso   1.000  C
  C257     1.0000 0.44280  0.71630  0.02990  Biso   1.000  C
  H211     1.0000 0.35250  0.73560  0.07290  Biso   1.000  H
  H212     1.0000 0.59690  0.79450  0.09500  Biso   1.000  H
  C258     1.0000 0.59000  0.74740  0.04460  Biso   1.000  C
  C259     1.0000 0.53120  0.71630  0.02020  Biso   1.000  C
  C260     1.0000 0.56140  0.69280  0.98310  Biso   1.000  C
  N64      1.0000 0.67850  0.75570  0.03890  Biso   1.000  N
  H213     1.0000 0.70890  0.77650  0.05580  Biso   1.000  H
  H214     1.0000 0.70500  0.74020  0.01840  Biso   1.000  H
  C261     1.0000 0.54870  0.79190  0.07200  Biso   1.000  C
  C262     1.0000 0.58050  0.76820  0.03780  Biso   1.000  C
  N65      1.0000 0.66360  0.78900  0.02420  Biso   1.000  N
  C263     1.0000 0.46780  0.78350  0.08500  Biso   1.000  C
  C264     1.0000 0.52790  0.73010  0.01690  Biso   1.000  C
  H215     1.0000 0.34960  0.74110  0.07020  Biso   1.000  H
  H216     1.0000 0.58690  0.81570  0.08700  Biso   1.000  H
  H217     1.0000 0.68680  0.77520  0.00250  Biso   1.000  H
  H218     1.0000 0.69160  0.81570  0.03770  Biso   1.000  H
  N66      1.0000 0.38100  0.68600  0.01200  Biso   1.000  N
  H219     1.0000 0.32710  0.68430  0.02180  Biso   1.000  H
  H220     1.0000 0.39330  0.66670  0.99030  Biso   1.000  H
  O89      1.0000 0.98870  0.33240  0.14479  Biso   1.000  O
  O90      1.0000 0.85350  0.30960  0.12948  Biso   1.000  O
  O91      1.0000 0.14330  0.19200  0.97446  Biso   1.000  O
  O92      1.0000 0.00880  0.16490  0.96143  Biso   1.000  O
  C265     1.0000 0.93480  0.30690  0.12240  Biso   1.000  C
  C266     1.0000 0.96670  0.27230  0.08740  Biso   1.000  C
  C267     1.0000 0.91050  0.24320  0.06380  Biso   1.000  C
  C268     1.0000 0.05750  0.27440  0.07820  Biso   1.000  C
  C269     1.0000 0.94280  0.21630  0.02990  Biso   1.000  C
  H221     1.0000 0.85250  0.23560  0.07290  Biso   1.000  H
  H222     1.0000 0.09690  0.29450  0.09500  Biso   1.000  H
  C270     1.0000 0.09000  0.24740  0.04460  Biso   1.000  C
  C271     1.0000 0.03120  0.21630  0.02020  Biso   1.000  C
  C272     1.0000 0.06140  0.19280  0.98310  Biso   1.000  C
  N67      1.0000 0.17850  0.25570  0.03890  Biso   1.000  N
  H223     1.0000 0.20890  0.27650  0.05580  Biso   1.000  H
  H224     1.0000 0.20500  0.24020  0.01840  Biso   1.000  H
  C273     1.0000 0.04870  0.29190  0.07200  Biso   1.000  C
  C274     1.0000 0.08050  0.26820  0.03780  Biso   1.000  C
  N68      1.0000 0.16360  0.28900  0.02420  Biso   1.000  N
  C275     1.0000 0.96780  0.28350  0.08500  Biso   1.000  C
  C276     1.0000 0.02790  0.23010  0.01690  Biso   1.000  C
  H225     1.0000 0.84960  0.24110  0.07020  Biso   1.000  H
  H226     1.0000 0.08690  0.31570  0.08700  Biso   1.000  H
  H227     1.0000 0.18680  0.27520  0.00250  Biso   1.000  H
  H228     1.0000 0.19160  0.31570  0.03770  Biso   1.000  H
  N69      1.0000 0.88100  0.18600  0.01200  Biso   1.000  N
  H229     1.0000 0.82710  0.18430  0.02180  Biso   1.000  H
  H230     1.0000 0.89330  0.16670  0.99030  Biso   1.000  H
  O93      1.0000 0.98870  0.83240  0.64479  Biso   1.000  O
  O94      1.0000 0.85350  0.80960  0.62948  Biso   1.000  O
  O95      1.0000 0.14330  0.69200  0.47446  Biso   1.000  O
  O96      1.0000 0.00880  0.66490  0.46143  Biso   1.000  O
  C277     1.0000 0.93480  0.80690  0.62240  Biso   1.000  C
  C278     1.0000 0.96670  0.77230  0.58740  Biso   1.000  C
  C279     1.0000 0.91050  0.74320  0.56380  Biso   1.000  C
  C280     1.0000 0.05750  0.77440  0.57820  Biso   1.000  C
  C281     1.0000 0.94280  0.71630  0.52990  Biso   1.000  C
  H231     1.0000 0.85250  0.73560  0.57290  Biso   1.000  H
  H232     1.0000 0.09690  0.79450  0.59500  Biso   1.000  H
  C282     1.0000 0.09000  0.74740  0.54460  Biso   1.000  C
  C283     1.0000 0.03120  0.71630  0.52020  Biso   1.000  C
  C284     1.0000 0.06140  0.69280  0.48310  Biso   1.000  C
  N70      1.0000 0.17850  0.75570  0.53890  Biso   1.000  N
  H233     1.0000 0.20890  0.77650  0.55580  Biso   1.000  H
  H234     1.0000 0.20500  0.74020  0.51840  Biso   1.000  H
  C285     1.0000 0.04870  0.79190  0.57200  Biso   1.000  C
  C286     1.0000 0.08050  0.76820  0.53780  Biso   1.000  C
  N71      1.0000 0.16360  0.78900  0.52420  Biso   1.000  N
  C287     1.0000 0.96780  0.78350  0.58500  Biso   1.000  C
  C288     1.0000 0.02790  0.73010  0.51690  Biso   1.000  C
  H235     1.0000 0.84960  0.74110  0.57020  Biso   1.000  H
  H236     1.0000 0.08690  0.81570  0.58700  Biso   1.000  H
  H237     1.0000 0.18680  0.77520  0.50250  Biso   1.000  H
  H238     1.0000 0.19160  0.81570  0.53770  Biso   1.000  H
  N72      1.0000 0.88100  0.68600  0.51200  Biso   1.000  N
  H239     1.0000 0.82710  0.68430  0.52180  Biso   1.000  H
  H240     1.0000 0.89330  0.66670  0.49030  Biso   1.000  H
  O97      1.0000 0.51130  0.58240  0.89479  Biso   1.000  O
  O98      1.0000 0.64650  0.55960  0.87948  Biso   1.000  O
  O99      1.0000 0.35670  0.44200  0.72446  Biso   1.000  O
  O100     1.0000 0.49120  0.41490  0.71143  Biso   1.000  O
  C289     1.0000 0.56520  0.55690  0.87240  Biso   1.000  C
  C290     1.0000 0.53330  0.52230  0.83740  Biso   1.000  C
  C291     1.0000 0.58950  0.49320  0.81380  Biso   1.000  C
  C292     1.0000 0.44250  0.52440  0.82820  Biso   1.000  C
  C293     1.0000 0.55720  0.46630  0.77990  Biso   1.000  C
  H241     1.0000 0.64750  0.48560  0.82290  Biso   1.000  H
  H242     1.0000 0.40310  0.54450  0.84500  Biso   1.000  H
  C294     1.0000 0.41000  0.49740  0.79460  Biso   1.000  C
  C295     1.0000 0.46880  0.46630  0.77020  Biso   1.000  C
  C296     1.0000 0.43860  0.44280  0.73310  Biso   1.000  C
  N73      1.0000 0.32150  0.50570  0.78890  Biso   1.000  N
  H243     1.0000 0.29110  0.52650  0.80580  Biso   1.000  H
  H244     1.0000 0.29500  0.49020  0.76840  Biso   1.000  H
  C297     1.0000 0.45130  0.54190  0.82200  Biso   1.000  C
  C298     1.0000 0.41950  0.51820  0.78780  Biso   1.000  C
  N74      1.0000 0.33640  0.53900  0.77420  Biso   1.000  N
  C299     1.0000 0.53220  0.53350  0.83500  Biso   1.000  C
  C300     1.0000 0.47210  0.48010  0.76690  Biso   1.000  C
  H245     1.0000 0.65040  0.49110  0.82020  Biso   1.000  H
  H246     1.0000 0.41310  0.56570  0.83700  Biso   1.000  H
  H247     1.0000 0.31320  0.52520  0.75250  Biso   1.000  H
  H248     1.0000 0.30840  0.56570  0.78770  Biso   1.000  H
  N75      1.0000 0.61900  0.43600  0.76200  Biso   1.000  N
  H249     1.0000 0.67290  0.43430  0.77180  Biso   1.000  H
  H250     1.0000 0.60670  0.41670  0.74030  Biso   1.000  H
  O101     1.0000 0.51130  0.08240  0.39479  Biso   1.000  O
  O102     1.0000 0.64650  0.05960  0.37948  Biso   1.000  O
  O103     1.0000 0.35670  0.94200  0.22446  Biso   1.000  O
  O104     1.0000 0.49120  0.91490  0.21143  Biso   1.000  O
  C301     1.0000 0.56520  0.05690  0.37240  Biso   1.000  C
  C302     1.0000 0.53330  0.02230  0.33740  Biso   1.000  C
  C303     1.0000 0.58950  0.99320  0.31380  Biso   1.000  C
  C304     1.0000 0.44250  0.02440  0.32820  Biso   1.000  C
  C305     1.0000 0.55720  0.96630  0.27990  Biso   1.000  C
  H251     1.0000 0.64750  0.98560  0.32290  Biso   1.000  H
  H252     1.0000 0.40310  0.04450  0.34500  Biso   1.000  H
  C306     1.0000 0.41000  0.99740  0.29460  Biso   1.000  C
  C307     1.0000 0.46880  0.96630  0.27020  Biso   1.000  C
  C308     1.0000 0.43860  0.94280  0.23310  Biso   1.000  C
  N76      1.0000 0.32150  0.00570  0.28890  Biso   1.000  N
  H253     1.0000 0.29110  0.02650  0.30580  Biso   1.000  H
  H254     1.0000 0.29500  0.99020  0.26840  Biso   1.000  H
  C309     1.0000 0.45130  0.04190  0.32200  Biso   1.000  C
  C310     1.0000 0.41950  0.01820  0.28780  Biso   1.000  C
  N77      1.0000 0.33640  0.03900  0.27420  Biso   1.000  N
  C311     1.0000 0.53220  0.03350  0.33500  Biso   1.000  C
  C312     1.0000 0.47210  0.98010  0.26690  Biso   1.000  C
  H255     1.0000 0.65040  0.99110  0.32020  Biso   1.000  H
  H256     1.0000 0.41310  0.06570  0.33700  Biso   1.000  H
  H257     1.0000 0.31320  0.02520  0.25250  Biso   1.000  H
  H258     1.0000 0.30840  0.06570  0.28770  Biso   1.000  H
  N78      1.0000 0.61900  0.93600  0.26200  Biso   1.000  N
  H259     1.0000 0.67290  0.93430  0.27180  Biso   1.000  H
  H260     1.0000 0.60670  0.91670  0.24030  Biso   1.000  H
  O105     1.0000 0.01130  0.58240  0.39479  Biso   1.000  O
  O106     1.0000 0.14650  0.55960  0.37948  Biso   1.000  O
  O107     1.0000 0.85670  0.44200  0.22446  Biso   1.000  O
  O108     1.0000 0.99120  0.41490  0.21143  Biso   1.000  O
  C313     1.0000 0.06520  0.55690  0.37240  Biso   1.000  C
  C314     1.0000 0.03330  0.52230  0.33740  Biso   1.000  C
  C315     1.0000 0.08950  0.49320  0.31380  Biso   1.000  C
  C316     1.0000 0.94250  0.52440  0.32820  Biso   1.000  C
  C317     1.0000 0.05720  0.46630  0.27990  Biso   1.000  C
  H261     1.0000 0.14750  0.48560  0.32290  Biso   1.000  H
  H262     1.0000 0.90310  0.54450  0.34500  Biso   1.000  H
  C318     1.0000 0.91000  0.49740  0.29460  Biso   1.000  C
  C319     1.0000 0.96880  0.46630  0.27020  Biso   1.000  C
  C320     1.0000 0.93860  0.44280  0.23310  Biso   1.000  C
  N79      1.0000 0.82150  0.50570  0.28890  Biso   1.000  N
  H263     1.0000 0.79110  0.52650  0.30580  Biso   1.000  H
  H264     1.0000 0.79500  0.49020  0.26840  Biso   1.000  H
  C321     1.0000 0.95130  0.54190  0.32200  Biso   1.000  C
  C322     1.0000 0.91950  0.51820  0.28780  Biso   1.000  C
  N80      1.0000 0.83640  0.53900  0.27420  Biso   1.000  N
  C323     1.0000 0.03220  0.53350  0.33500  Biso   1.000  C
  C324     1.0000 0.97210  0.48010  0.26690  Biso   1.000  C
  H265     1.0000 0.15040  0.49110  0.32020  Biso   1.000  H
  H266     1.0000 0.91310  0.56570  0.33700  Biso   1.000  H
  H267     1.0000 0.81320  0.52520  0.25250  Biso   1.000  H
  H268     1.0000 0.80840  0.56570  0.28770  Biso   1.000  H
  N81      1.0000 0.11900  0.43600  0.26200  Biso   1.000  N
  H269     1.0000 0.17290  0.43430  0.27180  Biso   1.000  H
  H270     1.0000 0.10670  0.41670  0.24030  Biso   1.000  H
  O109     1.0000 0.01130  0.08240  0.89479  Biso   1.000  O
  O110     1.0000 0.14650  0.05960  0.87948  Biso   1.000  O
  O111     1.0000 0.85670  0.94200  0.72446  Biso   1.000  O
  O112     1.0000 0.99120  0.91490  0.71143  Biso   1.000  O
  C325     1.0000 0.06520  0.05690  0.87240  Biso   1.000  C
  C326     1.0000 0.03330  0.02230  0.83740  Biso   1.000  C
  C327     1.0000 0.08950  0.99320  0.81380  Biso   1.000  C
  C328     1.0000 0.94250  0.02440  0.82820  Biso   1.000  C
  C329     1.0000 0.05720  0.96630  0.77990  Biso   1.000  C
  H271     1.0000 0.14750  0.98560  0.82290  Biso   1.000  H
  H272     1.0000 0.90310  0.04450  0.84500  Biso   1.000  H
  C330     1.0000 0.91000  0.99740  0.79460  Biso   1.000  C
  C331     1.0000 0.96880  0.96630  0.77020  Biso   1.000  C
  C332     1.0000 0.93860  0.94280  0.73310  Biso   1.000  C
  N82      1.0000 0.82150  0.00570  0.78890  Biso   1.000  N
  H273     1.0000 0.79110  0.02650  0.80580  Biso   1.000  H
  H274     1.0000 0.79500  0.99020  0.76840  Biso   1.000  H
  C333     1.0000 0.95130  0.04190  0.82200  Biso   1.000  C
  C334     1.0000 0.91950  0.01820  0.78780  Biso   1.000  C
  N83      1.0000 0.83640  0.03900  0.77420  Biso   1.000  N
  C335     1.0000 0.03220  0.03350  0.83500  Biso   1.000  C
  C336     1.0000 0.97210  0.98010  0.76690  Biso   1.000  C
  H275     1.0000 0.15040  0.99110  0.82020  Biso   1.000  H
  H276     1.0000 0.91310  0.06570  0.83700  Biso   1.000  H
  H277     1.0000 0.81320  0.02520  0.75250  Biso   1.000  H
  H278     1.0000 0.80840  0.06570  0.78770  Biso   1.000  H
  N84      1.0000 0.11900  0.93600  0.76200  Biso   1.000  N
  H279     1.0000 0.17290  0.93430  0.77180  Biso   1.000  H
  H280     1.0000 0.10670  0.91670  0.74030  Biso   1.000  H
  O113     1.0000 0.73870  0.66760  0.89479  Biso   1.000  O
  O114     1.0000 0.60350  0.69040  0.87948  Biso   1.000  O
  O115     1.0000 0.89330  0.80800  0.72446  Biso   1.000  O
  O116     1.0000 0.75880  0.83510  0.71143  Biso   1.000  O
  C337     1.0000 0.68480  0.69310  0.87240  Biso   1.000  C
  C338     1.0000 0.71670  0.72770  0.83740  Biso   1.000  C
  C339     1.0000 0.66050  0.75680  0.81380  Biso   1.000  C
  C340     1.0000 0.80750  0.72560  0.82820  Biso   1.000  C
  C341     1.0000 0.69280  0.78370  0.77990  Biso   1.000  C
  H281     1.0000 0.60250  0.76440  0.82290  Biso   1.000  H
  H282     1.0000 0.84690  0.70550  0.84500  Biso   1.000  H
  C342     1.0000 0.84000  0.75260  0.79460  Biso   1.000  C
  C343     1.0000 0.78120  0.78370  0.77020  Biso   1.000  C
  C344     1.0000 0.81140  0.80720  0.73310  Biso   1.000  C
  N85      1.0000 0.92850  0.74430  0.78890  Biso   1.000  N
  H283     1.0000 0.95890  0.72350  0.80580  Biso   1.000  H
  H284     1.0000 0.95500  0.75980  0.76840  Biso   1.000  H
  C345     1.0000 0.79870  0.70810  0.82200  Biso   1.000  C
  C346     1.0000 0.83050  0.73180  0.78780  Biso   1.000  C
  N86      1.0000 0.91360  0.71100  0.77420  Biso   1.000  N
  C347     1.0000 0.71780  0.71650  0.83500  Biso   1.000  C
  C348     1.0000 0.77790  0.76990  0.76690  Biso   1.000  C
  H285     1.0000 0.59960  0.75890  0.82020  Biso   1.000  H
  H286     1.0000 0.83690  0.68430  0.83700  Biso   1.000  H
  H287     1.0000 0.93680  0.72480  0.75250  Biso   1.000  H
  H288     1.0000 0.94160  0.68430  0.78770  Biso   1.000  H
  N87      1.0000 0.63100  0.81400  0.76200  Biso   1.000  N
  H289     1.0000 0.57710  0.81570  0.77180  Biso   1.000  H
  H290     1.0000 0.64330  0.83330  0.74030  Biso   1.000  H
  O117     1.0000 0.73870  0.16760  0.39479  Biso   1.000  O
  O118     1.0000 0.60350  0.19040  0.37948  Biso   1.000  O
  O119     1.0000 0.89330  0.30800  0.22446  Biso   1.000  O
  O120     1.0000 0.75880  0.33510  0.21143  Biso   1.000  O
  C349     1.0000 0.68480  0.19310  0.37240  Biso   1.000  C
  C350     1.0000 0.71670  0.22770  0.33740  Biso   1.000  C
  C351     1.0000 0.66050  0.25680  0.31380  Biso   1.000  C
  C352     1.0000 0.80750  0.22560  0.32820  Biso   1.000  C
  C353     1.0000 0.69280  0.28370  0.27990  Biso   1.000  C
  H291     1.0000 0.60250  0.26440  0.32290  Biso   1.000  H
  H292     1.0000 0.84690  0.20550  0.34500  Biso   1.000  H
  C354     1.0000 0.84000  0.25260  0.29460  Biso   1.000  C
  C355     1.0000 0.78120  0.28370  0.27020  Biso   1.000  C
  C356     1.0000 0.81140  0.30720  0.23310  Biso   1.000  C
  N88      1.0000 0.92850  0.24430  0.28890  Biso   1.000  N
  H293     1.0000 0.95890  0.22350  0.30580  Biso   1.000  H
  H294     1.0000 0.95500  0.25980  0.26840  Biso   1.000  H
  C357     1.0000 0.79870  0.20810  0.32200  Biso   1.000  C
  C358     1.0000 0.83050  0.23180  0.28780  Biso   1.000  C
  N89      1.0000 0.91360  0.21100  0.27420  Biso   1.000  N
  C359     1.0000 0.71780  0.21650  0.33500  Biso   1.000  C
  C360     1.0000 0.77790  0.26990  0.26690  Biso   1.000  C
  H295     1.0000 0.59960  0.25890  0.32020  Biso   1.000  H
  H296     1.0000 0.83690  0.18430  0.33700  Biso   1.000  H
  H297     1.0000 0.93680  0.22480  0.25250  Biso   1.000  H
  H298     1.0000 0.94160  0.18430  0.28770  Biso   1.000  H
  N90      1.0000 0.63100  0.31400  0.26200  Biso   1.000  N
  H299     1.0000 0.57710  0.31570  0.27180  Biso   1.000  H
  H300     1.0000 0.64330  0.33330  0.24030  Biso   1.000  H
  O121     1.0000 0.23870  0.66760  0.39479  Biso   1.000  O
  O122     1.0000 0.10350  0.69040  0.37948  Biso   1.000  O
  O123     1.0000 0.39330  0.80800  0.22446  Biso   1.000  O
  O124     1.0000 0.25880  0.83510  0.21143  Biso   1.000  O
  C361     1.0000 0.18480  0.69310  0.37240  Biso   1.000  C
  C362     1.0000 0.21670  0.72770  0.33740  Biso   1.000  C
  C363     1.0000 0.16050  0.75680  0.31380  Biso   1.000  C
  C364     1.0000 0.30750  0.72560  0.32820  Biso   1.000  C
  C365     1.0000 0.19280  0.78370  0.27990  Biso   1.000  C
  H301     1.0000 0.10250  0.76440  0.32290  Biso   1.000  H
  H302     1.0000 0.34690  0.70550  0.34500  Biso   1.000  H
  C366     1.0000 0.34000  0.75260  0.29460  Biso   1.000  C
  C367     1.0000 0.28120  0.78370  0.27020  Biso   1.000  C
  C368     1.0000 0.31140  0.80720  0.23310  Biso   1.000  C
  N91      1.0000 0.42850  0.74430  0.28890  Biso   1.000  N
  H303     1.0000 0.45890  0.72350  0.30580  Biso   1.000  H
  H304     1.0000 0.45500  0.75980  0.26840  Biso   1.000  H
  C369     1.0000 0.29870  0.70810  0.32200  Biso   1.000  C
  C370     1.0000 0.33050  0.73180  0.28780  Biso   1.000  C
  N92      1.0000 0.41360  0.71100  0.27420  Biso   1.000  N
  C371     1.0000 0.21780  0.71650  0.33500  Biso   1.000  C
  C372     1.0000 0.27790  0.76990  0.26690  Biso   1.000  C
  H305     1.0000 0.09960  0.75890  0.32020  Biso   1.000  H
  H306     1.0000 0.33690  0.68430  0.33700  Biso   1.000  H
  H307     1.0000 0.43680  0.72480  0.25250  Biso   1.000  H
  H308     1.0000 0.44160  0.68430  0.28770  Biso   1.000  H
  N93      1.0000 0.13100  0.81400  0.26200  Biso   1.000  N
  H309     1.0000 0.07710  0.81570  0.27180  Biso   1.000  H
  H310     1.0000 0.14330  0.83330  0.24030  Biso   1.000  H
  O125     1.0000 0.23870  0.16760  0.89479  Biso   1.000  O
  O126     1.0000 0.10350  0.19040  0.87948  Biso   1.000  O
  O127     1.0000 0.39330  0.30800  0.72446  Biso   1.000  O
  O128     1.0000 0.25880  0.33510  0.71143  Biso   1.000  O
  C373     1.0000 0.18480  0.19310  0.87240  Biso   1.000  C
  C374     1.0000 0.21670  0.22770  0.83740  Biso   1.000  C
  C375     1.0000 0.16050  0.25680  0.81380  Biso   1.000  C
  C376     1.0000 0.30750  0.22560  0.82820  Biso   1.000  C
  C377     1.0000 0.19280  0.28370  0.77990  Biso   1.000  C
  H311     1.0000 0.10250  0.26440  0.82290  Biso   1.000  H
  H312     1.0000 0.34690  0.20550  0.84500  Biso   1.000  H
  C378     1.0000 0.34000  0.25260  0.79460  Biso   1.000  C
  C379     1.0000 0.28120  0.28370  0.77020  Biso   1.000  C
  C380     1.0000 0.31140  0.30720  0.73310  Biso   1.000  C
  N94      1.0000 0.42850  0.24430  0.78890  Biso   1.000  N
  H313     1.0000 0.45890  0.22350  0.80580  Biso   1.000  H
  H314     1.0000 0.45500  0.25980  0.76840  Biso   1.000  H
  C381     1.0000 0.29870  0.20810  0.82200  Biso   1.000  C
  C382     1.0000 0.33050  0.23180  0.78780  Biso   1.000  C
  N95      1.0000 0.41360  0.21100  0.77420  Biso   1.000  N
  C383     1.0000 0.21780  0.21650  0.83500  Biso   1.000  C
  C384     1.0000 0.27790  0.26990  0.76690  Biso   1.000  C
  H315     1.0000 0.09960  0.25890  0.82020  Biso   1.000  H
  H316     1.0000 0.33690  0.18430  0.83700  Biso   1.000  H
  H317     1.0000 0.43680  0.22480  0.75250  Biso   1.000  H
  H318     1.0000 0.44160  0.18430  0.78770  Biso   1.000  H
  N96      1.0000 0.13100  0.31400  0.76200  Biso   1.000  N
  H319     1.0000 0.07710  0.31570  0.77180  Biso   1.000  H
  H320     1.0000 0.14330  0.33330  0.74030  Biso   1.000  H
  In9      1.0000 0.37500  0.37500  0.67793  Biso   1.000  In
  In10     1.0000 0.37500  0.87500  0.17793  Biso   1.000  In
  In11     1.0000 0.87500  0.37500  0.17793  Biso   1.000  In
  In12     1.0000 0.87500  0.87500  0.67793  Biso   1.000  In
  In13     1.0000 0.62500  0.62500  0.92793  Biso   1.000  In
  In14     1.0000 0.62500  0.12500  0.42793  Biso   1.000  In
  In15     1.0000 0.12500  0.62500  0.42793  Biso   1.000  In
  In16     1.0000 0.12500  0.12500  0.92793  Biso   1.000  In
