data_image0
_cell_length_a       14.9603
_cell_length_b       21.8384
_cell_length_c       34.7768
_cell_angle_alpha    90
_cell_angle_beta     90
_cell_angle_gamma    90

_symmetry_space_group_name_H-M    "P 1"
_symmetry_int_tables_number       1

loop_
  _symmetry_equiv_pos_as_xyz
  'x, y, z'

loop_
  _atom_site_label
  _atom_site_occupancy
  _atom_site_fract_x
  _atom_site_fract_y
  _atom_site_fract_z
  _atom_site_thermal_displace_type
  _atom_site_B_iso_or_equiv
  _atom_site_type_symbol
  O1       1.0000 0.85970  0.30270  0.03330  Biso   1.000  O
  O2       1.0000 0.99370  0.33500  0.04520  Biso   1.000  O
  O3       1.0000 0.01050  0.16930  0.86150  Biso   1.000  O
  O4       1.0000 0.14720  0.19530  0.87570  Biso   1.000  O
  C1       1.0000 0.94010  0.30520  0.02400  Biso   1.000  C
  C2       1.0000 0.06500  0.19640  0.88320  Biso   1.000  C
  N1       1.0000 0.84200  0.21470  0.97870  Biso   1.000  N
  H1       1.0000 0.81720  0.22950  0.99970  Biso   1.000  H
  H2       1.0000 0.81240  0.18860  0.96420  Biso   1.000  H
  C3       1.0000 0.97560  0.27250  0.98950  Biso   1.000  C
  C4       1.0000 0.92260  0.23160  0.96900  Biso   1.000  C
  C5       1.0000 0.95220  0.20840  0.93400  Biso   1.000  C
  H3       1.0000 0.91600  0.18050  0.92000  Biso   1.000  H
  C6       1.0000 0.03480  0.22610  0.91950  Biso   1.000  C
  C7       1.0000 0.08780  0.26700  0.94000  Biso   1.000  C
  H4       1.0000 0.14430  0.27910  0.93010  Biso   1.000  H
  C8       1.0000 0.05820  0.29020  0.97500  Biso   1.000  C
  N2       1.0000 0.81850  0.24680  0.96670  Biso   1.000  N
  H5       1.0000 0.78590  0.22730  0.94950  Biso   1.000  H
  H6       1.0000 0.79290  0.26280  0.98720  Biso   1.000  H
  C9       1.0000 0.96900  0.27800  0.98740  Biso   1.000  C
  C10      1.0000 0.90880  0.25220  0.96160  Biso   1.000  C
  C11      1.0000 0.93970  0.22470  0.92810  Biso   1.000  C
  H7       1.0000 0.89850  0.20710  0.91050  Biso   1.000  H
  C12      1.0000 0.03080  0.22300  0.92030  Biso   1.000  C
  C13      1.0000 0.09100  0.24880  0.94610  Biso   1.000  C
  H8       1.0000 0.15330  0.24760  0.94080  Biso   1.000  H
  C14      1.0000 0.06010  0.27630  0.97960  Biso   1.000  C
  N3       1.0000 0.13100  0.30200  0.99840  Biso   1.000  N
  H9       1.0000 0.18490  0.29860  0.98870  Biso   1.000  H
  H10      1.0000 0.12240  0.32080  0.02040  Biso   1.000  H
  N4       1.0000 0.12100  0.32690  0.99300  Biso   1.000  N
  H11      1.0000 0.17270  0.33340  0.98160  Biso   1.000  H
  H12      1.0000 0.10850  0.34390  0.01500  Biso   1.000  H
  O5       1.0000 0.85970  0.80270  0.53330  Biso   1.000  O
  O6       1.0000 0.99370  0.83500  0.54520  Biso   1.000  O
  O7       1.0000 0.01050  0.66930  0.36150  Biso   1.000  O
  O8       1.0000 0.14720  0.69530  0.37570  Biso   1.000  O
  C15      1.0000 0.94010  0.80520  0.52400  Biso   1.000  C
  C16      1.0000 0.06500  0.69640  0.38320  Biso   1.000  C
  N5       1.0000 0.84200  0.71470  0.47870  Biso   1.000  N
  H13      1.0000 0.81720  0.72950  0.49970  Biso   1.000  H
  H14      1.0000 0.81240  0.68860  0.46420  Biso   1.000  H
  C17      1.0000 0.97560  0.77250  0.48950  Biso   1.000  C
  C18      1.0000 0.92260  0.73160  0.46900  Biso   1.000  C
  C19      1.0000 0.95220  0.70840  0.43400  Biso   1.000  C
  H15      1.0000 0.91600  0.68050  0.42000  Biso   1.000  H
  C20      1.0000 0.03480  0.72610  0.41950  Biso   1.000  C
  C21      1.0000 0.08780  0.76700  0.44000  Biso   1.000  C
  H16      1.0000 0.14430  0.77910  0.43010  Biso   1.000  H
  C22      1.0000 0.05820  0.79020  0.47500  Biso   1.000  C
  N6       1.0000 0.81850  0.74680  0.46670  Biso   1.000  N
  H17      1.0000 0.78590  0.72730  0.44950  Biso   1.000  H
  H18      1.0000 0.79290  0.76280  0.48720  Biso   1.000  H
  C23      1.0000 0.96900  0.77800  0.48740  Biso   1.000  C
  C24      1.0000 0.90880  0.75220  0.46160  Biso   1.000  C
  C25      1.0000 0.93970  0.72470  0.42810  Biso   1.000  C
  H19      1.0000 0.89850  0.70710  0.41050  Biso   1.000  H
  C26      1.0000 0.03080  0.72300  0.42030  Biso   1.000  C
  C27      1.0000 0.09100  0.74880  0.44610  Biso   1.000  C
  H20      1.0000 0.15330  0.74760  0.44080  Biso   1.000  H
  C28      1.0000 0.06010  0.77630  0.47960  Biso   1.000  C
  N7       1.0000 0.13100  0.80200  0.49840  Biso   1.000  N
  H21      1.0000 0.18490  0.79860  0.48870  Biso   1.000  H
  H22      1.0000 0.12240  0.82080  0.52040  Biso   1.000  H
  N8       1.0000 0.12100  0.82690  0.49300  Biso   1.000  N
  H23      1.0000 0.17270  0.83340  0.48160  Biso   1.000  H
  H24      1.0000 0.10850  0.84390  0.51500  Biso   1.000  H
  O9       1.0000 0.35970  0.30270  0.53330  Biso   1.000  O
  O10      1.0000 0.49370  0.33500  0.54520  Biso   1.000  O
  O11      1.0000 0.51050  0.16930  0.36150  Biso   1.000  O
  O12      1.0000 0.64720  0.19530  0.37570  Biso   1.000  O
  C29      1.0000 0.44010  0.30520  0.52400  Biso   1.000  C
  C30      1.0000 0.56500  0.19640  0.38320  Biso   1.000  C
  N9       1.0000 0.34200  0.21470  0.47870  Biso   1.000  N
  H25      1.0000 0.31720  0.22950  0.49970  Biso   1.000  H
  H26      1.0000 0.31240  0.18860  0.46420  Biso   1.000  H
  C31      1.0000 0.47560  0.27250  0.48950  Biso   1.000  C
  C32      1.0000 0.42260  0.23160  0.46900  Biso   1.000  C
  C33      1.0000 0.45220  0.20840  0.43400  Biso   1.000  C
  H27      1.0000 0.41600  0.18050  0.42000  Biso   1.000  H
  C34      1.0000 0.53480  0.22610  0.41950  Biso   1.000  C
  C35      1.0000 0.58780  0.26700  0.44000  Biso   1.000  C
  H28      1.0000 0.64430  0.27910  0.43010  Biso   1.000  H
  C36      1.0000 0.55820  0.29020  0.47500  Biso   1.000  C
  N10      1.0000 0.31850  0.24680  0.46670  Biso   1.000  N
  H29      1.0000 0.28590  0.22730  0.44950  Biso   1.000  H
  H30      1.0000 0.29290  0.26280  0.48720  Biso   1.000  H
  C37      1.0000 0.46900  0.27800  0.48740  Biso   1.000  C
  C38      1.0000 0.40880  0.25220  0.46160  Biso   1.000  C
  C39      1.0000 0.43970  0.22470  0.42810  Biso   1.000  C
  H31      1.0000 0.39850  0.20710  0.41050  Biso   1.000  H
  C40      1.0000 0.53080  0.22300  0.42030  Biso   1.000  C
  C41      1.0000 0.59100  0.24880  0.44610  Biso   1.000  C
  H32      1.0000 0.65330  0.24760  0.44080  Biso   1.000  H
  C42      1.0000 0.56010  0.27630  0.47960  Biso   1.000  C
  N11      1.0000 0.63100  0.30200  0.49840  Biso   1.000  N
  H33      1.0000 0.68490  0.29860  0.48870  Biso   1.000  H
  H34      1.0000 0.62240  0.32080  0.52040  Biso   1.000  H
  N12      1.0000 0.62100  0.32690  0.49300  Biso   1.000  N
  H35      1.0000 0.67270  0.33340  0.48160  Biso   1.000  H
  H36      1.0000 0.60850  0.34390  0.51500  Biso   1.000  H
  O13      1.0000 0.35970  0.80270  0.03330  Biso   1.000  O
  O14      1.0000 0.49370  0.83500  0.04520  Biso   1.000  O
  O15      1.0000 0.51050  0.66930  0.86150  Biso   1.000  O
  O16      1.0000 0.64720  0.69530  0.87570  Biso   1.000  O
  C43      1.0000 0.44010  0.80520  0.02400  Biso   1.000  C
  C44      1.0000 0.56500  0.69640  0.88320  Biso   1.000  C
  N13      1.0000 0.34200  0.71470  0.97870  Biso   1.000  N
  H37      1.0000 0.31720  0.72950  0.99970  Biso   1.000  H
  H38      1.0000 0.31240  0.68860  0.96420  Biso   1.000  H
  C45      1.0000 0.47560  0.77250  0.98950  Biso   1.000  C
  C46      1.0000 0.42260  0.73160  0.96900  Biso   1.000  C
  C47      1.0000 0.45220  0.70840  0.93400  Biso   1.000  C
  H39      1.0000 0.41600  0.68050  0.92000  Biso   1.000  H
  C48      1.0000 0.53480  0.72610  0.91950  Biso   1.000  C
  C49      1.0000 0.58780  0.76700  0.94000  Biso   1.000  C
  H40      1.0000 0.64430  0.77910  0.93010  Biso   1.000  H
  C50      1.0000 0.55820  0.79020  0.97500  Biso   1.000  C
  N14      1.0000 0.31850  0.74680  0.96670  Biso   1.000  N
  H41      1.0000 0.28590  0.72730  0.94950  Biso   1.000  H
  H42      1.0000 0.29290  0.76280  0.98720  Biso   1.000  H
  C51      1.0000 0.46900  0.77800  0.98740  Biso   1.000  C
  C52      1.0000 0.40880  0.75220  0.96160  Biso   1.000  C
  C53      1.0000 0.43970  0.72470  0.92810  Biso   1.000  C
  H43      1.0000 0.39850  0.70710  0.91050  Biso   1.000  H
  C54      1.0000 0.53080  0.72300  0.92030  Biso   1.000  C
  C55      1.0000 0.59100  0.74880  0.94610  Biso   1.000  C
  H44      1.0000 0.65330  0.74760  0.94080  Biso   1.000  H
  C56      1.0000 0.56010  0.77630  0.97960  Biso   1.000  C
  N15      1.0000 0.63100  0.80200  0.99840  Biso   1.000  N
  H45      1.0000 0.68490  0.79860  0.98870  Biso   1.000  H
  H46      1.0000 0.62240  0.82080  0.02040  Biso   1.000  H
  N16      1.0000 0.62100  0.82690  0.99300  Biso   1.000  N
  H47      1.0000 0.67270  0.83340  0.98160  Biso   1.000  H
  H48      1.0000 0.60850  0.84390  0.01500  Biso   1.000  H
  O17      1.0000 0.89030  0.44730  0.03330  Biso   1.000  O
  O18      1.0000 0.75630  0.41500  0.04520  Biso   1.000  O
  O19      1.0000 0.73950  0.58070  0.86150  Biso   1.000  O
  O20      1.0000 0.60280  0.55470  0.87570  Biso   1.000  O
  C57      1.0000 0.80990  0.44480  0.02400  Biso   1.000  C
  C58      1.0000 0.68500  0.55360  0.88320  Biso   1.000  C
  N17      1.0000 0.90800  0.53530  0.97870  Biso   1.000  N
  H49      1.0000 0.93280  0.52050  0.99970  Biso   1.000  H
  H50      1.0000 0.93760  0.56140  0.96420  Biso   1.000  H
  C59      1.0000 0.77440  0.47750  0.98950  Biso   1.000  C
  C60      1.0000 0.82740  0.51840  0.96900  Biso   1.000  C
  C61      1.0000 0.79780  0.54160  0.93400  Biso   1.000  C
  H51      1.0000 0.83400  0.56950  0.92000  Biso   1.000  H
  C62      1.0000 0.71520  0.52390  0.91950  Biso   1.000  C
  C63      1.0000 0.66220  0.48300  0.94000  Biso   1.000  C
  H52      1.0000 0.60570  0.47090  0.93010  Biso   1.000  H
  C64      1.0000 0.69180  0.45980  0.97500  Biso   1.000  C
  N18      1.0000 0.93150  0.50320  0.96670  Biso   1.000  N
  H53      1.0000 0.96410  0.52270  0.94950  Biso   1.000  H
  H54      1.0000 0.95710  0.48720  0.98720  Biso   1.000  H
  C65      1.0000 0.78100  0.47200  0.98740  Biso   1.000  C
  C66      1.0000 0.84120  0.49780  0.96160  Biso   1.000  C
  C67      1.0000 0.81030  0.52530  0.92810  Biso   1.000  C
  H55      1.0000 0.85150  0.54290  0.91050  Biso   1.000  H
  C68      1.0000 0.71920  0.52700  0.92030  Biso   1.000  C
  C69      1.0000 0.65900  0.50120  0.94610  Biso   1.000  C
  H56      1.0000 0.59670  0.50240  0.94080  Biso   1.000  H
  C70      1.0000 0.68990  0.47370  0.97960  Biso   1.000  C
  N19      1.0000 0.61900  0.44800  0.99840  Biso   1.000  N
  H57      1.0000 0.56510  0.45140  0.98870  Biso   1.000  H
  H58      1.0000 0.62760  0.42920  0.02040  Biso   1.000  H
  N20      1.0000 0.62900  0.42310  0.99300  Biso   1.000  N
  H59      1.0000 0.57730  0.41660  0.98160  Biso   1.000  H
  H60      1.0000 0.64150  0.40610  0.01500  Biso   1.000  H
  O21      1.0000 0.89030  0.94730  0.53330  Biso   1.000  O
  O22      1.0000 0.75630  0.91500  0.54520  Biso   1.000  O
  O23      1.0000 0.73950  0.08070  0.36150  Biso   1.000  O
  O24      1.0000 0.60280  0.05470  0.37570  Biso   1.000  O
  C71      1.0000 0.80990  0.94480  0.52400  Biso   1.000  C
  C72      1.0000 0.68500  0.05360  0.38320  Biso   1.000  C
  N21      1.0000 0.90800  0.03530  0.47870  Biso   1.000  N
  H61      1.0000 0.93280  0.02050  0.49970  Biso   1.000  H
  H62      1.0000 0.93760  0.06140  0.46420  Biso   1.000  H
  C73      1.0000 0.77440  0.97750  0.48950  Biso   1.000  C
  C74      1.0000 0.82740  0.01840  0.46900  Biso   1.000  C
  C75      1.0000 0.79780  0.04160  0.43400  Biso   1.000  C
  H63      1.0000 0.83400  0.06950  0.42000  Biso   1.000  H
  C76      1.0000 0.71520  0.02390  0.41950  Biso   1.000  C
  C77      1.0000 0.66220  0.98300  0.44000  Biso   1.000  C
  H64      1.0000 0.60570  0.97090  0.43010  Biso   1.000  H
  C78      1.0000 0.69180  0.95980  0.47500  Biso   1.000  C
  N22      1.0000 0.93150  0.00320  0.46670  Biso   1.000  N
  H65      1.0000 0.96410  0.02270  0.44950  Biso   1.000  H
  H66      1.0000 0.95710  0.98720  0.48720  Biso   1.000  H
  C79      1.0000 0.78100  0.97200  0.48740  Biso   1.000  C
  C80      1.0000 0.84120  0.99780  0.46160  Biso   1.000  C
  C81      1.0000 0.81030  0.02530  0.42810  Biso   1.000  C
  H67      1.0000 0.85150  0.04290  0.41050  Biso   1.000  H
  C82      1.0000 0.71920  0.02700  0.42030  Biso   1.000  C
  C83      1.0000 0.65900  0.00120  0.44610  Biso   1.000  C
  H68      1.0000 0.59670  0.00240  0.44080  Biso   1.000  H
  C84      1.0000 0.68990  0.97370  0.47960  Biso   1.000  C
  N23      1.0000 0.61900  0.94800  0.49840  Biso   1.000  N
  H69      1.0000 0.56510  0.95140  0.48870  Biso   1.000  H
  H70      1.0000 0.62760  0.92920  0.52040  Biso   1.000  H
  N24      1.0000 0.62900  0.92310  0.49300  Biso   1.000  N
  H71      1.0000 0.57730  0.91660  0.48160  Biso   1.000  H
  H72      1.0000 0.64150  0.90610  0.51500  Biso   1.000  H
  O25      1.0000 0.39030  0.44730  0.53330  Biso   1.000  O
  O26      1.0000 0.25630  0.41500  0.54520  Biso   1.000  O
  O27      1.0000 0.23950  0.58070  0.36150  Biso   1.000  O
  O28      1.0000 0.10280  0.55470  0.37570  Biso   1.000  O
  C85      1.0000 0.30990  0.44480  0.52400  Biso   1.000  C
  C86      1.0000 0.18500  0.55360  0.38320  Biso   1.000  C
  N25      1.0000 0.40800  0.53530  0.47870  Biso   1.000  N
  H73      1.0000 0.43280  0.52050  0.49970  Biso   1.000  H
  H74      1.0000 0.43760  0.56140  0.46420  Biso   1.000  H
  C87      1.0000 0.27440  0.47750  0.48950  Biso   1.000  C
  C88      1.0000 0.32740  0.51840  0.46900  Biso   1.000  C
  C89      1.0000 0.29780  0.54160  0.43400  Biso   1.000  C
  H75      1.0000 0.33400  0.56950  0.42000  Biso   1.000  H
  C90      1.0000 0.21520  0.52390  0.41950  Biso   1.000  C
  C91      1.0000 0.16220  0.48300  0.44000  Biso   1.000  C
  H76      1.0000 0.10570  0.47090  0.43010  Biso   1.000  H
  C92      1.0000 0.19180  0.45980  0.47500  Biso   1.000  C
  N26      1.0000 0.43150  0.50320  0.46670  Biso   1.000  N
  H77      1.0000 0.46410  0.52270  0.44950  Biso   1.000  H
  H78      1.0000 0.45710  0.48720  0.48720  Biso   1.000  H
  C93      1.0000 0.28100  0.47200  0.48740  Biso   1.000  C
  C94      1.0000 0.34120  0.49780  0.46160  Biso   1.000  C
  C95      1.0000 0.31030  0.52530  0.42810  Biso   1.000  C
  H79      1.0000 0.35150  0.54290  0.41050  Biso   1.000  H
  C96      1.0000 0.21920  0.52700  0.42030  Biso   1.000  C
  C97      1.0000 0.15900  0.50120  0.44610  Biso   1.000  C
  H80      1.0000 0.09670  0.50240  0.44080  Biso   1.000  H
  C98      1.0000 0.18990  0.47370  0.47960  Biso   1.000  C
  N27      1.0000 0.11900  0.44800  0.49840  Biso   1.000  N
  H81      1.0000 0.06510  0.45140  0.48870  Biso   1.000  H
  H82      1.0000 0.12760  0.42920  0.52040  Biso   1.000  H
  N28      1.0000 0.12900  0.42310  0.49300  Biso   1.000  N
  H83      1.0000 0.07730  0.41660  0.48160  Biso   1.000  H
  H84      1.0000 0.14150  0.40610  0.51500  Biso   1.000  H
  O29      1.0000 0.39030  0.94730  0.03330  Biso   1.000  O
  O30      1.0000 0.25630  0.91500  0.04520  Biso   1.000  O
  O31      1.0000 0.23950  0.08070  0.86150  Biso   1.000  O
  O32      1.0000 0.10280  0.05470  0.87570  Biso   1.000  O
  C99      1.0000 0.30990  0.94480  0.02400  Biso   1.000  C
  C100     1.0000 0.18500  0.05360  0.88320  Biso   1.000  C
  N29      1.0000 0.40800  0.03530  0.97870  Biso   1.000  N
  H85      1.0000 0.43280  0.02050  0.99970  Biso   1.000  H
  H86      1.0000 0.43760  0.06140  0.96420  Biso   1.000  H
  C101     1.0000 0.27440  0.97750  0.98950  Biso   1.000  C
  C102     1.0000 0.32740  0.01840  0.96900  Biso   1.000  C
  C103     1.0000 0.29780  0.04160  0.93400  Biso   1.000  C
  H87      1.0000 0.33400  0.06950  0.92000  Biso   1.000  H
  C104     1.0000 0.21520  0.02390  0.91950  Biso   1.000  C
  C105     1.0000 0.16220  0.98300  0.94000  Biso   1.000  C
  H88      1.0000 0.10570  0.97090  0.93010  Biso   1.000  H
  C106     1.0000 0.19180  0.95980  0.97500  Biso   1.000  C
  N30      1.0000 0.43150  0.00320  0.96670  Biso   1.000  N
  H89      1.0000 0.46410  0.02270  0.94950  Biso   1.000  H
  H90      1.0000 0.45710  0.98720  0.98720  Biso   1.000  H
  C107     1.0000 0.28100  0.97200  0.98740  Biso   1.000  C
  C108     1.0000 0.34120  0.99780  0.96160  Biso   1.000  C
  C109     1.0000 0.31030  0.02530  0.92810  Biso   1.000  C
  H91      1.0000 0.35150  0.04290  0.91050  Biso   1.000  H
  C110     1.0000 0.21920  0.02700  0.92030  Biso   1.000  C
  C111     1.0000 0.15900  0.00120  0.94610  Biso   1.000  C
  H92      1.0000 0.09670  0.00240  0.94080  Biso   1.000  H
  C112     1.0000 0.18990  0.97370  0.97960  Biso   1.000  C
  N31      1.0000 0.11900  0.94800  0.99840  Biso   1.000  N
  H93      1.0000 0.06510  0.95140  0.98870  Biso   1.000  H
  H94      1.0000 0.12760  0.92920  0.02040  Biso   1.000  H
  N32      1.0000 0.12900  0.92310  0.99300  Biso   1.000  N
  H95      1.0000 0.07730  0.91660  0.98160  Biso   1.000  H
  H96      1.0000 0.14150  0.90610  0.01500  Biso   1.000  H
  O33      1.0000 0.10970  0.69730  0.28330  Biso   1.000  O
  O34      1.0000 0.24370  0.66500  0.29520  Biso   1.000  O
  O35      1.0000 0.26050  0.83070  0.11150  Biso   1.000  O
  O36      1.0000 0.39720  0.80470  0.12570  Biso   1.000  O
  C113     1.0000 0.19010  0.69480  0.27400  Biso   1.000  C
  C114     1.0000 0.31500  0.80360  0.13320  Biso   1.000  C
  N33      1.0000 0.09200  0.78530  0.22870  Biso   1.000  N
  H97      1.0000 0.06720  0.77050  0.24970  Biso   1.000  H
  H98      1.0000 0.06240  0.81140  0.21420  Biso   1.000  H
  C115     1.0000 0.22560  0.72750  0.23950  Biso   1.000  C
  C116     1.0000 0.17260  0.76840  0.21900  Biso   1.000  C
  C117     1.0000 0.20220  0.79160  0.18400  Biso   1.000  C
  H99      1.0000 0.16600  0.81950  0.17000  Biso   1.000  H
  C118     1.0000 0.28480  0.77390  0.16950  Biso   1.000  C
  C119     1.0000 0.33780  0.73300  0.19000  Biso   1.000  C
  H100     1.0000 0.39430  0.72090  0.18010  Biso   1.000  H
  C120     1.0000 0.30820  0.70980  0.22500  Biso   1.000  C
  N34      1.0000 0.06850  0.75320  0.21670  Biso   1.000  N
  H101     1.0000 0.03590  0.77270  0.19950  Biso   1.000  H
  H102     1.0000 0.04290  0.73720  0.23720  Biso   1.000  H
  C121     1.0000 0.21900  0.72200  0.23740  Biso   1.000  C
  C122     1.0000 0.15880  0.74780  0.21160  Biso   1.000  C
  C123     1.0000 0.18970  0.77530  0.17810  Biso   1.000  C
  H103     1.0000 0.14850  0.79290  0.16050  Biso   1.000  H
  C124     1.0000 0.28080  0.77700  0.17030  Biso   1.000  C
  C125     1.0000 0.34100  0.75120  0.19610  Biso   1.000  C
  H104     1.0000 0.40330  0.75240  0.19080  Biso   1.000  H
  C126     1.0000 0.31010  0.72370  0.22960  Biso   1.000  C
  N35      1.0000 0.38100  0.69800  0.24840  Biso   1.000  N
  H105     1.0000 0.43490  0.70140  0.23870  Biso   1.000  H
  H106     1.0000 0.37240  0.67920  0.27040  Biso   1.000  H
  N36      1.0000 0.37100  0.67310  0.24300  Biso   1.000  N
  H107     1.0000 0.42270  0.66660  0.23160  Biso   1.000  H
  H108     1.0000 0.35850  0.65610  0.26500  Biso   1.000  H
  O37      1.0000 0.10970  0.19730  0.78330  Biso   1.000  O
  O38      1.0000 0.24370  0.16500  0.79520  Biso   1.000  O
  O39      1.0000 0.26050  0.33070  0.61150  Biso   1.000  O
  O40      1.0000 0.39720  0.30470  0.62570  Biso   1.000  O
  C127     1.0000 0.19010  0.19480  0.77400  Biso   1.000  C
  C128     1.0000 0.31500  0.30360  0.63320  Biso   1.000  C
  N37      1.0000 0.09200  0.28530  0.72870  Biso   1.000  N
  H109     1.0000 0.06720  0.27050  0.74970  Biso   1.000  H
  H110     1.0000 0.06240  0.31140  0.71420  Biso   1.000  H
  C129     1.0000 0.22560  0.22750  0.73950  Biso   1.000  C
  C130     1.0000 0.17260  0.26840  0.71900  Biso   1.000  C
  C131     1.0000 0.20220  0.29160  0.68400  Biso   1.000  C
  H111     1.0000 0.16600  0.31950  0.67000  Biso   1.000  H
  C132     1.0000 0.28480  0.27390  0.66950  Biso   1.000  C
  C133     1.0000 0.33780  0.23300  0.69000  Biso   1.000  C
  H112     1.0000 0.39430  0.22090  0.68010  Biso   1.000  H
  C134     1.0000 0.30820  0.20980  0.72500  Biso   1.000  C
  N38      1.0000 0.06850  0.25320  0.71670  Biso   1.000  N
  H113     1.0000 0.03590  0.27270  0.69950  Biso   1.000  H
  H114     1.0000 0.04290  0.23720  0.73720  Biso   1.000  H
  C135     1.0000 0.21900  0.22200  0.73740  Biso   1.000  C
  C136     1.0000 0.15880  0.24780  0.71160  Biso   1.000  C
  C137     1.0000 0.18970  0.27530  0.67810  Biso   1.000  C
  H115     1.0000 0.14850  0.29290  0.66050  Biso   1.000  H
  C138     1.0000 0.28080  0.27700  0.67030  Biso   1.000  C
  C139     1.0000 0.34100  0.25120  0.69610  Biso   1.000  C
  H116     1.0000 0.40330  0.25240  0.69080  Biso   1.000  H
  C140     1.0000 0.31010  0.22370  0.72960  Biso   1.000  C
  N39      1.0000 0.38100  0.19800  0.74840  Biso   1.000  N
  H117     1.0000 0.43490  0.20140  0.73870  Biso   1.000  H
  H118     1.0000 0.37240  0.17920  0.77040  Biso   1.000  H
  N40      1.0000 0.37100  0.17310  0.74300  Biso   1.000  N
  H119     1.0000 0.42270  0.16660  0.73160  Biso   1.000  H
  H120     1.0000 0.35850  0.15610  0.76500  Biso   1.000  H
  O41      1.0000 0.60970  0.69730  0.78330  Biso   1.000  O
  O42      1.0000 0.74370  0.66500  0.79520  Biso   1.000  O
  O43      1.0000 0.76050  0.83070  0.61150  Biso   1.000  O
  O44      1.0000 0.89720  0.80470  0.62570  Biso   1.000  O
  C141     1.0000 0.69010  0.69480  0.77400  Biso   1.000  C
  C142     1.0000 0.81500  0.80360  0.63320  Biso   1.000  C
  N41      1.0000 0.59200  0.78530  0.72870  Biso   1.000  N
  H121     1.0000 0.56720  0.77050  0.74970  Biso   1.000  H
  H122     1.0000 0.56240  0.81140  0.71420  Biso   1.000  H
  C143     1.0000 0.72560  0.72750  0.73950  Biso   1.000  C
  C144     1.0000 0.67260  0.76840  0.71900  Biso   1.000  C
  C145     1.0000 0.70220  0.79160  0.68400  Biso   1.000  C
  H123     1.0000 0.66600  0.81950  0.67000  Biso   1.000  H
  C146     1.0000 0.78480  0.77390  0.66950  Biso   1.000  C
  C147     1.0000 0.83780  0.73300  0.69000  Biso   1.000  C
  H124     1.0000 0.89430  0.72090  0.68010  Biso   1.000  H
  C148     1.0000 0.80820  0.70980  0.72500  Biso   1.000  C
  N42      1.0000 0.56850  0.75320  0.71670  Biso   1.000  N
  H125     1.0000 0.53590  0.77270  0.69950  Biso   1.000  H
  H126     1.0000 0.54290  0.73720  0.73720  Biso   1.000  H
  C149     1.0000 0.71900  0.72200  0.73740  Biso   1.000  C
  C150     1.0000 0.65880  0.74780  0.71160  Biso   1.000  C
  C151     1.0000 0.68970  0.77530  0.67810  Biso   1.000  C
  H127     1.0000 0.64850  0.79290  0.66050  Biso   1.000  H
  C152     1.0000 0.78080  0.77700  0.67030  Biso   1.000  C
  C153     1.0000 0.84100  0.75120  0.69610  Biso   1.000  C
  H128     1.0000 0.90330  0.75240  0.69080  Biso   1.000  H
  C154     1.0000 0.81010  0.72370  0.72960  Biso   1.000  C
  N43      1.0000 0.88100  0.69800  0.74840  Biso   1.000  N
  H129     1.0000 0.93490  0.70140  0.73870  Biso   1.000  H
  H130     1.0000 0.87240  0.67920  0.77040  Biso   1.000  H
  N44      1.0000 0.87100  0.67310  0.74300  Biso   1.000  N
  H131     1.0000 0.92270  0.66660  0.73160  Biso   1.000  H
  H132     1.0000 0.85850  0.65610  0.76500  Biso   1.000  H
  O45      1.0000 0.60970  0.19730  0.28330  Biso   1.000  O
  O46      1.0000 0.74370  0.16500  0.29520  Biso   1.000  O
  O47      1.0000 0.76050  0.33070  0.11150  Biso   1.000  O
  O48      1.0000 0.89720  0.30470  0.12570  Biso   1.000  O
  C155     1.0000 0.69010  0.19480  0.27400  Biso   1.000  C
  C156     1.0000 0.81500  0.30360  0.13320  Biso   1.000  C
  N45      1.0000 0.59200  0.28530  0.22870  Biso   1.000  N
  H133     1.0000 0.56720  0.27050  0.24970  Biso   1.000  H
  H134     1.0000 0.56240  0.31140  0.21420  Biso   1.000  H
  C157     1.0000 0.72560  0.22750  0.23950  Biso   1.000  C
  C158     1.0000 0.67260  0.26840  0.21900  Biso   1.000  C
  C159     1.0000 0.70220  0.29160  0.18400  Biso   1.000  C
  H135     1.0000 0.66600  0.31950  0.17000  Biso   1.000  H
  C160     1.0000 0.78480  0.27390  0.16950  Biso   1.000  C
  C161     1.0000 0.83780  0.23300  0.19000  Biso   1.000  C
  H136     1.0000 0.89430  0.22090  0.18010  Biso   1.000  H
  C162     1.0000 0.80820  0.20980  0.22500  Biso   1.000  C
  N46      1.0000 0.56850  0.25320  0.21670  Biso   1.000  N
  H137     1.0000 0.53590  0.27270  0.19950  Biso   1.000  H
  H138     1.0000 0.54290  0.23720  0.23720  Biso   1.000  H
  C163     1.0000 0.71900  0.22200  0.23740  Biso   1.000  C
  C164     1.0000 0.65880  0.24780  0.21160  Biso   1.000  C
  C165     1.0000 0.68970  0.27530  0.17810  Biso   1.000  C
  H139     1.0000 0.64850  0.29290  0.16050  Biso   1.000  H
  C166     1.0000 0.78080  0.27700  0.17030  Biso   1.000  C
  C167     1.0000 0.84100  0.25120  0.19610  Biso   1.000  C
  H140     1.0000 0.90330  0.25240  0.19080  Biso   1.000  H
  C168     1.0000 0.81010  0.22370  0.22960  Biso   1.000  C
  N47      1.0000 0.88100  0.19800  0.24840  Biso   1.000  N
  H141     1.0000 0.93490  0.20140  0.23870  Biso   1.000  H
  H142     1.0000 0.87240  0.17920  0.27040  Biso   1.000  H
  N48      1.0000 0.87100  0.17310  0.24300  Biso   1.000  N
  H143     1.0000 0.92270  0.16660  0.23160  Biso   1.000  H
  H144     1.0000 0.85850  0.15610  0.26500  Biso   1.000  H
  O49      1.0000 0.14030  0.55270  0.28330  Biso   1.000  O
  O50      1.0000 0.00630  0.58500  0.29520  Biso   1.000  O
  O51      1.0000 0.98950  0.41930  0.11150  Biso   1.000  O
  O52      1.0000 0.85280  0.44530  0.12570  Biso   1.000  O
  C169     1.0000 0.05990  0.55520  0.27400  Biso   1.000  C
  C170     1.0000 0.93500  0.44640  0.13320  Biso   1.000  C
  N49      1.0000 0.15800  0.46470  0.22870  Biso   1.000  N
  H145     1.0000 0.18280  0.47950  0.24970  Biso   1.000  H
  H146     1.0000 0.18760  0.43860  0.21420  Biso   1.000  H
  C171     1.0000 0.02440  0.52250  0.23950  Biso   1.000  C
  C172     1.0000 0.07740  0.48160  0.21900  Biso   1.000  C
  C173     1.0000 0.04780  0.45840  0.18400  Biso   1.000  C
  H147     1.0000 0.08400  0.43050  0.17000  Biso   1.000  H
  C174     1.0000 0.96520  0.47610  0.16950  Biso   1.000  C
  C175     1.0000 0.91220  0.51700  0.19000  Biso   1.000  C
  H148     1.0000 0.85570  0.52910  0.18010  Biso   1.000  H
  C176     1.0000 0.94180  0.54020  0.22500  Biso   1.000  C
  N50      1.0000 0.18150  0.49680  0.21670  Biso   1.000  N
  H149     1.0000 0.21410  0.47730  0.19950  Biso   1.000  H
  H150     1.0000 0.20710  0.51280  0.23720  Biso   1.000  H
  C177     1.0000 0.03100  0.52800  0.23740  Biso   1.000  C
  C178     1.0000 0.09120  0.50220  0.21160  Biso   1.000  C
  C179     1.0000 0.06030  0.47470  0.17810  Biso   1.000  C
  H151     1.0000 0.10150  0.45710  0.16050  Biso   1.000  H
  C180     1.0000 0.96920  0.47300  0.17030  Biso   1.000  C
  C181     1.0000 0.90900  0.49880  0.19610  Biso   1.000  C
  H152     1.0000 0.84670  0.49760  0.19080  Biso   1.000  H
  C182     1.0000 0.93990  0.52630  0.22960  Biso   1.000  C
  N51      1.0000 0.86900  0.55200  0.24840  Biso   1.000  N
  H153     1.0000 0.81510  0.54860  0.23870  Biso   1.000  H
  H154     1.0000 0.87760  0.57080  0.27040  Biso   1.000  H
  N52      1.0000 0.87900  0.57690  0.24300  Biso   1.000  N
  H155     1.0000 0.82730  0.58340  0.23160  Biso   1.000  H
  H156     1.0000 0.89150  0.59390  0.26500  Biso   1.000  H
  O53      1.0000 0.14030  0.05270  0.78330  Biso   1.000  O
  O54      1.0000 0.00630  0.08500  0.79520  Biso   1.000  O
  O55      1.0000 0.98950  0.91930  0.61150  Biso   1.000  O
  O56      1.0000 0.85280  0.94530  0.62570  Biso   1.000  O
  C183     1.0000 0.05990  0.05520  0.77400  Biso   1.000  C
  C184     1.0000 0.93500  0.94640  0.63320  Biso   1.000  C
  N53      1.0000 0.15800  0.96470  0.72870  Biso   1.000  N
  H157     1.0000 0.18280  0.97950  0.74970  Biso   1.000  H
  H158     1.0000 0.18760  0.93860  0.71420  Biso   1.000  H
  C185     1.0000 0.02440  0.02250  0.73950  Biso   1.000  C
  C186     1.0000 0.07740  0.98160  0.71900  Biso   1.000  C
  C187     1.0000 0.04780  0.95840  0.68400  Biso   1.000  C
  H159     1.0000 0.08400  0.93050  0.67000  Biso   1.000  H
  C188     1.0000 0.96520  0.97610  0.66950  Biso   1.000  C
  C189     1.0000 0.91220  0.01700  0.69000  Biso   1.000  C
  H160     1.0000 0.85570  0.02910  0.68010  Biso   1.000  H
  C190     1.0000 0.94180  0.04020  0.72500  Biso   1.000  C
  N54      1.0000 0.18150  0.99680  0.71670  Biso   1.000  N
  H161     1.0000 0.21410  0.97730  0.69950  Biso   1.000  H
  H162     1.0000 0.20710  0.01280  0.73720  Biso   1.000  H
  C191     1.0000 0.03100  0.02800  0.73740  Biso   1.000  C
  C192     1.0000 0.09120  0.00220  0.71160  Biso   1.000  C
  C193     1.0000 0.06030  0.97470  0.67810  Biso   1.000  C
  H163     1.0000 0.10150  0.95710  0.66050  Biso   1.000  H
  C194     1.0000 0.96920  0.97300  0.67030  Biso   1.000  C
  C195     1.0000 0.90900  0.99880  0.69610  Biso   1.000  C
  H164     1.0000 0.84670  0.99760  0.69080  Biso   1.000  H
  C196     1.0000 0.93990  0.02630  0.72960  Biso   1.000  C
  N55      1.0000 0.86900  0.05200  0.74840  Biso   1.000  N
  H165     1.0000 0.81510  0.04860  0.73870  Biso   1.000  H
  H166     1.0000 0.87760  0.07080  0.77040  Biso   1.000  H
  N56      1.0000 0.87900  0.07690  0.74300  Biso   1.000  N
  H167     1.0000 0.82730  0.08340  0.73160  Biso   1.000  H
  H168     1.0000 0.89150  0.09390  0.76500  Biso   1.000  H
  O57      1.0000 0.64030  0.55270  0.78330  Biso   1.000  O
  O58      1.0000 0.50630  0.58500  0.79520  Biso   1.000  O
  O59      1.0000 0.48950  0.41930  0.61150  Biso   1.000  O
  O60      1.0000 0.35280  0.44530  0.62570  Biso   1.000  O
  C197     1.0000 0.55990  0.55520  0.77400  Biso   1.000  C
  C198     1.0000 0.43500  0.44640  0.63320  Biso   1.000  C
  N57      1.0000 0.65800  0.46470  0.72870  Biso   1.000  N
  H169     1.0000 0.68280  0.47950  0.74970  Biso   1.000  H
  H170     1.0000 0.68760  0.43860  0.71420  Biso   1.000  H
  C199     1.0000 0.52440  0.52250  0.73950  Biso   1.000  C
  C200     1.0000 0.57740  0.48160  0.71900  Biso   1.000  C
  C201     1.0000 0.54780  0.45840  0.68400  Biso   1.000  C
  H171     1.0000 0.58400  0.43050  0.67000  Biso   1.000  H
  C202     1.0000 0.46520  0.47610  0.66950  Biso   1.000  C
  C203     1.0000 0.41220  0.51700  0.69000  Biso   1.000  C
  H172     1.0000 0.35570  0.52910  0.68010  Biso   1.000  H
  C204     1.0000 0.44180  0.54020  0.72500  Biso   1.000  C
  N58      1.0000 0.68150  0.49680  0.71670  Biso   1.000  N
  H173     1.0000 0.71410  0.47730  0.69950  Biso   1.000  H
  H174     1.0000 0.70710  0.51280  0.73720  Biso   1.000  H
  C205     1.0000 0.53100  0.52800  0.73740  Biso   1.000  C
  C206     1.0000 0.59120  0.50220  0.71160  Biso   1.000  C
  C207     1.0000 0.56030  0.47470  0.67810  Biso   1.000  C
  H175     1.0000 0.60150  0.45710  0.66050  Biso   1.000  H
  C208     1.0000 0.46920  0.47300  0.67030  Biso   1.000  C
  C209     1.0000 0.40900  0.49880  0.69610  Biso   1.000  C
  H176     1.0000 0.34670  0.49760  0.69080  Biso   1.000  H
  C210     1.0000 0.43990  0.52630  0.72960  Biso   1.000  C
  N59      1.0000 0.36900  0.55200  0.74840  Biso   1.000  N
  H177     1.0000 0.31510  0.54860  0.73870  Biso   1.000  H
  H178     1.0000 0.37760  0.57080  0.77040  Biso   1.000  H
  N60      1.0000 0.37900  0.57690  0.74300  Biso   1.000  N
  H179     1.0000 0.32730  0.58340  0.73160  Biso   1.000  H
  H180     1.0000 0.39150  0.59390  0.76500  Biso   1.000  H
  O61      1.0000 0.64030  0.05270  0.28330  Biso   1.000  O
  O62      1.0000 0.50630  0.08500  0.29520  Biso   1.000  O
  O63      1.0000 0.48950  0.91930  0.11150  Biso   1.000  O
  O64      1.0000 0.35280  0.94530  0.12570  Biso   1.000  O
  C211     1.0000 0.55990  0.05520  0.27400  Biso   1.000  C
  C212     1.0000 0.43500  0.94640  0.13320  Biso   1.000  C
  N61      1.0000 0.65800  0.96470  0.22870  Biso   1.000  N
  H181     1.0000 0.68280  0.97950  0.24970  Biso   1.000  H
  H182     1.0000 0.68760  0.93860  0.21420  Biso   1.000  H
  C213     1.0000 0.52440  0.02250  0.23950  Biso   1.000  C
  C214     1.0000 0.57740  0.98160  0.21900  Biso   1.000  C
  C215     1.0000 0.54780  0.95840  0.18400  Biso   1.000  C
  H183     1.0000 0.58400  0.93050  0.17000  Biso   1.000  H
  C216     1.0000 0.46520  0.97610  0.16950  Biso   1.000  C
  C217     1.0000 0.41220  0.01700  0.19000  Biso   1.000  C
  H184     1.0000 0.35570  0.02910  0.18010  Biso   1.000  H
  C218     1.0000 0.44180  0.04020  0.22500  Biso   1.000  C
  N62      1.0000 0.68150  0.99680  0.21670  Biso   1.000  N
  H185     1.0000 0.71410  0.97730  0.19950  Biso   1.000  H
  H186     1.0000 0.70710  0.01280  0.23720  Biso   1.000  H
  C219     1.0000 0.53100  0.02800  0.23740  Biso   1.000  C
  C220     1.0000 0.59120  0.00220  0.21160  Biso   1.000  C
  C221     1.0000 0.56030  0.97470  0.17810  Biso   1.000  C
  H187     1.0000 0.60150  0.95710  0.16050  Biso   1.000  H
  C222     1.0000 0.46920  0.97300  0.17030  Biso   1.000  C
  C223     1.0000 0.40900  0.99880  0.19610  Biso   1.000  C
  H188     1.0000 0.34670  0.99760  0.19080  Biso   1.000  H
  C224     1.0000 0.43990  0.02630  0.22960  Biso   1.000  C
  N63      1.0000 0.36900  0.05200  0.24840  Biso   1.000  N
  H189     1.0000 0.31510  0.04860  0.23870  Biso   1.000  H
  H190     1.0000 0.37760  0.07080  0.27040  Biso   1.000  H
  N64      1.0000 0.37900  0.07690  0.24300  Biso   1.000  N
  H191     1.0000 0.32730  0.08340  0.23160  Biso   1.000  H
  H192     1.0000 0.39150  0.09390  0.26500  Biso   1.000  H
  In1      1.0000 0.87500  0.37500  0.07845  Biso   1.000  In
  In2      1.0000 0.87500  0.87500  0.57845  Biso   1.000  In
  In3      1.0000 0.37500  0.37500  0.57845  Biso   1.000  In
  In4      1.0000 0.37500  0.87500  0.07845  Biso   1.000  In
  In5      1.0000 0.12500  0.62500  0.32845  Biso   1.000  In
  In6      1.0000 0.12500  0.12500  0.82845  Biso   1.000  In
  In7      1.0000 0.62500  0.62500  0.82845  Biso   1.000  In
  In8      1.0000 0.62500  0.12500  0.32845  Biso   1.000  In
  O65      1.0000 0.89030  0.30270  0.71670  Biso   1.000  O
  O66      1.0000 0.75630  0.33500  0.70480  Biso   1.000  O
  O67      1.0000 0.73950  0.16930  0.88850  Biso   1.000  O
  O68      1.0000 0.60280  0.19530  0.87430  Biso   1.000  O
  C225     1.0000 0.80990  0.30520  0.72600  Biso   1.000  C
  C226     1.0000 0.68500  0.19640  0.86680  Biso   1.000  C
  N65      1.0000 0.90800  0.21470  0.77130  Biso   1.000  N
  H193     1.0000 0.93280  0.22950  0.75030  Biso   1.000  H
  H194     1.0000 0.93760  0.18860  0.78580  Biso   1.000  H
  C227     1.0000 0.77440  0.27250  0.76050  Biso   1.000  C
  C228     1.0000 0.82740  0.23160  0.78100  Biso   1.000  C
  C229     1.0000 0.79780  0.20840  0.81600  Biso   1.000  C
  H195     1.0000 0.83400  0.18050  0.83000  Biso   1.000  H
  C230     1.0000 0.71520  0.22610  0.83050  Biso   1.000  C
  C231     1.0000 0.66220  0.26700  0.81000  Biso   1.000  C
  H196     1.0000 0.60570  0.27910  0.81990  Biso   1.000  H
  C232     1.0000 0.69180  0.29020  0.77500  Biso   1.000  C
  N66      1.0000 0.93150  0.24680  0.78330  Biso   1.000  N
  H197     1.0000 0.96410  0.22730  0.80050  Biso   1.000  H
  H198     1.0000 0.95710  0.26280  0.76280  Biso   1.000  H
  C233     1.0000 0.78100  0.27800  0.76260  Biso   1.000  C
  C234     1.0000 0.84120  0.25220  0.78840  Biso   1.000  C
  C235     1.0000 0.81030  0.22470  0.82190  Biso   1.000  C
  H199     1.0000 0.85150  0.20710  0.83950  Biso   1.000  H
  C236     1.0000 0.71920  0.22300  0.82970  Biso   1.000  C
  C237     1.0000 0.65900  0.24880  0.80390  Biso   1.000  C
  H200     1.0000 0.59670  0.24760  0.80920  Biso   1.000  H
  C238     1.0000 0.68990  0.27630  0.77040  Biso   1.000  C
  N67      1.0000 0.61900  0.30200  0.75160  Biso   1.000  N
  H201     1.0000 0.56510  0.29860  0.76130  Biso   1.000  H
  H202     1.0000 0.62760  0.32080  0.72960  Biso   1.000  H
  N68      1.0000 0.62900  0.32690  0.75700  Biso   1.000  N
  H203     1.0000 0.57730  0.33340  0.76840  Biso   1.000  H
  H204     1.0000 0.64150  0.34390  0.73500  Biso   1.000  H
  O69      1.0000 0.89030  0.80270  0.21670  Biso   1.000  O
  O70      1.0000 0.75630  0.83500  0.20480  Biso   1.000  O
  O71      1.0000 0.73950  0.66930  0.38850  Biso   1.000  O
  O72      1.0000 0.60280  0.69530  0.37430  Biso   1.000  O
  C239     1.0000 0.80990  0.80520  0.22600  Biso   1.000  C
  C240     1.0000 0.68500  0.69640  0.36680  Biso   1.000  C
  N69      1.0000 0.90800  0.71470  0.27130  Biso   1.000  N
  H205     1.0000 0.93280  0.72950  0.25030  Biso   1.000  H
  H206     1.0000 0.93760  0.68860  0.28580  Biso   1.000  H
  C241     1.0000 0.77440  0.77250  0.26050  Biso   1.000  C
  C242     1.0000 0.82740  0.73160  0.28100  Biso   1.000  C
  C243     1.0000 0.79780  0.70840  0.31600  Biso   1.000  C
  H207     1.0000 0.83400  0.68050  0.33000  Biso   1.000  H
  C244     1.0000 0.71520  0.72610  0.33050  Biso   1.000  C
  C245     1.0000 0.66220  0.76700  0.31000  Biso   1.000  C
  H208     1.0000 0.60570  0.77910  0.31990  Biso   1.000  H
  C246     1.0000 0.69180  0.79020  0.27500  Biso   1.000  C
  N70      1.0000 0.93150  0.74680  0.28330  Biso   1.000  N
  H209     1.0000 0.96410  0.72730  0.30050  Biso   1.000  H
  H210     1.0000 0.95710  0.76280  0.26280  Biso   1.000  H
  C247     1.0000 0.78100  0.77800  0.26260  Biso   1.000  C
  C248     1.0000 0.84120  0.75220  0.28840  Biso   1.000  C
  C249     1.0000 0.81030  0.72470  0.32190  Biso   1.000  C
  H211     1.0000 0.85150  0.70710  0.33950  Biso   1.000  H
  C250     1.0000 0.71920  0.72300  0.32970  Biso   1.000  C
  C251     1.0000 0.65900  0.74880  0.30390  Biso   1.000  C
  H212     1.0000 0.59670  0.74760  0.30920  Biso   1.000  H
  C252     1.0000 0.68990  0.77630  0.27040  Biso   1.000  C
  N71      1.0000 0.61900  0.80200  0.25160  Biso   1.000  N
  H213     1.0000 0.56510  0.79860  0.26130  Biso   1.000  H
  H214     1.0000 0.62760  0.82080  0.22960  Biso   1.000  H
  N72      1.0000 0.62900  0.82690  0.25700  Biso   1.000  N
  H215     1.0000 0.57730  0.83340  0.26840  Biso   1.000  H
  H216     1.0000 0.64150  0.84390  0.23500  Biso   1.000  H
  O73      1.0000 0.39030  0.30270  0.21670  Biso   1.000  O
  O74      1.0000 0.25630  0.33500  0.20480  Biso   1.000  O
  O75      1.0000 0.23950  0.16930  0.38850  Biso   1.000  O
  O76      1.0000 0.10280  0.19530  0.37430  Biso   1.000  O
  C253     1.0000 0.30990  0.30520  0.22600  Biso   1.000  C
  C254     1.0000 0.18500  0.19640  0.36680  Biso   1.000  C
  N73      1.0000 0.40800  0.21470  0.27130  Biso   1.000  N
  H217     1.0000 0.43280  0.22950  0.25030  Biso   1.000  H
  H218     1.0000 0.43760  0.18860  0.28580  Biso   1.000  H
  C255     1.0000 0.27440  0.27250  0.26050  Biso   1.000  C
  C256     1.0000 0.32740  0.23160  0.28100  Biso   1.000  C
  C257     1.0000 0.29780  0.20840  0.31600  Biso   1.000  C
  H219     1.0000 0.33400  0.18050  0.33000  Biso   1.000  H
  C258     1.0000 0.21520  0.22610  0.33050  Biso   1.000  C
  C259     1.0000 0.16220  0.26700  0.31000  Biso   1.000  C
  H220     1.0000 0.10570  0.27910  0.31990  Biso   1.000  H
  C260     1.0000 0.19180  0.29020  0.27500  Biso   1.000  C
  N74      1.0000 0.43150  0.24680  0.28330  Biso   1.000  N
  H221     1.0000 0.46410  0.22730  0.30050  Biso   1.000  H
  H222     1.0000 0.45710  0.26280  0.26280  Biso   1.000  H
  C261     1.0000 0.28100  0.27800  0.26260  Biso   1.000  C
  C262     1.0000 0.34120  0.25220  0.28840  Biso   1.000  C
  C263     1.0000 0.31030  0.22470  0.32190  Biso   1.000  C
  H223     1.0000 0.35150  0.20710  0.33950  Biso   1.000  H
  C264     1.0000 0.21920  0.22300  0.32970  Biso   1.000  C
  C265     1.0000 0.15900  0.24880  0.30390  Biso   1.000  C
  H224     1.0000 0.09670  0.24760  0.30920  Biso   1.000  H
  C266     1.0000 0.18990  0.27630  0.27040  Biso   1.000  C
  N75      1.0000 0.11900  0.30200  0.25160  Biso   1.000  N
  H225     1.0000 0.06510  0.29860  0.26130  Biso   1.000  H
  H226     1.0000 0.12760  0.32080  0.22960  Biso   1.000  H
  N76      1.0000 0.12900  0.32690  0.25700  Biso   1.000  N
  H227     1.0000 0.07730  0.33340  0.26840  Biso   1.000  H
  H228     1.0000 0.14150  0.34390  0.23500  Biso   1.000  H
  O77      1.0000 0.39030  0.80270  0.71670  Biso   1.000  O
  O78      1.0000 0.25630  0.83500  0.70480  Biso   1.000  O
  O79      1.0000 0.23950  0.66930  0.88850  Biso   1.000  O
  O80      1.0000 0.10280  0.69530  0.87430  Biso   1.000  O
  C267     1.0000 0.30990  0.80520  0.72600  Biso   1.000  C
  C268     1.0000 0.18500  0.69640  0.86680  Biso   1.000  C
  N77      1.0000 0.40800  0.71470  0.77130  Biso   1.000  N
  H229     1.0000 0.43280  0.72950  0.75030  Biso   1.000  H
  H230     1.0000 0.43760  0.68860  0.78580  Biso   1.000  H
  C269     1.0000 0.27440  0.77250  0.76050  Biso   1.000  C
  C270     1.0000 0.32740  0.73160  0.78100  Biso   1.000  C
  C271     1.0000 0.29780  0.70840  0.81600  Biso   1.000  C
  H231     1.0000 0.33400  0.68050  0.83000  Biso   1.000  H
  C272     1.0000 0.21520  0.72610  0.83050  Biso   1.000  C
  C273     1.0000 0.16220  0.76700  0.81000  Biso   1.000  C
  H232     1.0000 0.10570  0.77910  0.81990  Biso   1.000  H
  C274     1.0000 0.19180  0.79020  0.77500  Biso   1.000  C
  N78      1.0000 0.43150  0.74680  0.78330  Biso   1.000  N
  H233     1.0000 0.46410  0.72730  0.80050  Biso   1.000  H
  H234     1.0000 0.45710  0.76280  0.76280  Biso   1.000  H
  C275     1.0000 0.28100  0.77800  0.76260  Biso   1.000  C
  C276     1.0000 0.34120  0.75220  0.78840  Biso   1.000  C
  C277     1.0000 0.31030  0.72470  0.82190  Biso   1.000  C
  H235     1.0000 0.35150  0.70710  0.83950  Biso   1.000  H
  C278     1.0000 0.21920  0.72300  0.82970  Biso   1.000  C
  C279     1.0000 0.15900  0.74880  0.80390  Biso   1.000  C
  H236     1.0000 0.09670  0.74760  0.80920  Biso   1.000  H
  C280     1.0000 0.18990  0.77630  0.77040  Biso   1.000  C
  N79      1.0000 0.11900  0.80200  0.75160  Biso   1.000  N
  H237     1.0000 0.06510  0.79860  0.76130  Biso   1.000  H
  H238     1.0000 0.12760  0.82080  0.72960  Biso   1.000  H
  N80      1.0000 0.12900  0.82690  0.75700  Biso   1.000  N
  H239     1.0000 0.07730  0.83340  0.76840  Biso   1.000  H
  H240     1.0000 0.14150  0.84390  0.73500  Biso   1.000  H
  O81      1.0000 0.85970  0.44730  0.71670  Biso   1.000  O
  O82      1.0000 0.99370  0.41500  0.70480  Biso   1.000  O
  O83      1.0000 0.01050  0.58070  0.88850  Biso   1.000  O
  O84      1.0000 0.14720  0.55470  0.87430  Biso   1.000  O
  C281     1.0000 0.94010  0.44480  0.72600  Biso   1.000  C
  C282     1.0000 0.06500  0.55360  0.86680  Biso   1.000  C
  N81      1.0000 0.84200  0.53530  0.77130  Biso   1.000  N
  H241     1.0000 0.81720  0.52050  0.75030  Biso   1.000  H
  H242     1.0000 0.81240  0.56140  0.78580  Biso   1.000  H
  C283     1.0000 0.97560  0.47750  0.76050  Biso   1.000  C
  C284     1.0000 0.92260  0.51840  0.78100  Biso   1.000  C
  C285     1.0000 0.95220  0.54160  0.81600  Biso   1.000  C
  H243     1.0000 0.91600  0.56950  0.83000  Biso   1.000  H
  C286     1.0000 0.03480  0.52390  0.83050  Biso   1.000  C
  C287     1.0000 0.08780  0.48300  0.81000  Biso   1.000  C
  H244     1.0000 0.14430  0.47090  0.81990  Biso   1.000  H
  C288     1.0000 0.05820  0.45980  0.77500  Biso   1.000  C
  N82      1.0000 0.81850  0.50320  0.78330  Biso   1.000  N
  H245     1.0000 0.78590  0.52270  0.80050  Biso   1.000  H
  H246     1.0000 0.79290  0.48720  0.76280  Biso   1.000  H
  C289     1.0000 0.96900  0.47200  0.76260  Biso   1.000  C
  C290     1.0000 0.90880  0.49780  0.78840  Biso   1.000  C
  C291     1.0000 0.93970  0.52530  0.82190  Biso   1.000  C
  H247     1.0000 0.89850  0.54290  0.83950  Biso   1.000  H
  C292     1.0000 0.03080  0.52700  0.82970  Biso   1.000  C
  C293     1.0000 0.09100  0.50120  0.80390  Biso   1.000  C
  H248     1.0000 0.15330  0.50240  0.80920  Biso   1.000  H
  C294     1.0000 0.06010  0.47370  0.77040  Biso   1.000  C
  N83      1.0000 0.13100  0.44800  0.75160  Biso   1.000  N
  H249     1.0000 0.18490  0.45140  0.76130  Biso   1.000  H
  H250     1.0000 0.12240  0.42920  0.72960  Biso   1.000  H
  N84      1.0000 0.12100  0.42310  0.75700  Biso   1.000  N
  H251     1.0000 0.17270  0.41660  0.76840  Biso   1.000  H
  H252     1.0000 0.10850  0.40610  0.73500  Biso   1.000  H
  O85      1.0000 0.85970  0.94730  0.21670  Biso   1.000  O
  O86      1.0000 0.99370  0.91500  0.20480  Biso   1.000  O
  O87      1.0000 0.01050  0.08070  0.38850  Biso   1.000  O
  O88      1.0000 0.14720  0.05470  0.37430  Biso   1.000  O
  C295     1.0000 0.94010  0.94480  0.22600  Biso   1.000  C
  C296     1.0000 0.06500  0.05360  0.36680  Biso   1.000  C
  N85      1.0000 0.84200  0.03530  0.27130  Biso   1.000  N
  H253     1.0000 0.81720  0.02050  0.25030  Biso   1.000  H
  H254     1.0000 0.81240  0.06140  0.28580  Biso   1.000  H
  C297     1.0000 0.97560  0.97750  0.26050  Biso   1.000  C
  C298     1.0000 0.92260  0.01840  0.28100  Biso   1.000  C
  C299     1.0000 0.95220  0.04160  0.31600  Biso   1.000  C
  H255     1.0000 0.91600  0.06950  0.33000  Biso   1.000  H
  C300     1.0000 0.03480  0.02390  0.33050  Biso   1.000  C
  C301     1.0000 0.08780  0.98300  0.31000  Biso   1.000  C
  H256     1.0000 0.14430  0.97090  0.31990  Biso   1.000  H
  C302     1.0000 0.05820  0.95980  0.27500  Biso   1.000  C
  N86      1.0000 0.81850  0.00320  0.28330  Biso   1.000  N
  H257     1.0000 0.78590  0.02270  0.30050  Biso   1.000  H
  H258     1.0000 0.79290  0.98720  0.26280  Biso   1.000  H
  C303     1.0000 0.96900  0.97200  0.26260  Biso   1.000  C
  C304     1.0000 0.90880  0.99780  0.28840  Biso   1.000  C
  C305     1.0000 0.93970  0.02530  0.32190  Biso   1.000  C
  H259     1.0000 0.89850  0.04290  0.33950  Biso   1.000  H
  C306     1.0000 0.03080  0.02700  0.32970  Biso   1.000  C
  C307     1.0000 0.09100  0.00120  0.30390  Biso   1.000  C
  H260     1.0000 0.15330  0.00240  0.30920  Biso   1.000  H
  C308     1.0000 0.06010  0.97370  0.27040  Biso   1.000  C
  N87      1.0000 0.13100  0.94800  0.25160  Biso   1.000  N
  H261     1.0000 0.18490  0.95140  0.26130  Biso   1.000  H
  H262     1.0000 0.12240  0.92920  0.22960  Biso   1.000  H
  N88      1.0000 0.12100  0.92310  0.25700  Biso   1.000  N
  H263     1.0000 0.17270  0.91660  0.26840  Biso   1.000  H
  H264     1.0000 0.10850  0.90610  0.23500  Biso   1.000  H
  O89      1.0000 0.35970  0.44730  0.21670  Biso   1.000  O
  O90      1.0000 0.49370  0.41500  0.20480  Biso   1.000  O
  O91      1.0000 0.51050  0.58070  0.38850  Biso   1.000  O
  O92      1.0000 0.64720  0.55470  0.37430  Biso   1.000  O
  C309     1.0000 0.44010  0.44480  0.22600  Biso   1.000  C
  C310     1.0000 0.56500  0.55360  0.36680  Biso   1.000  C
  N89      1.0000 0.34200  0.53530  0.27130  Biso   1.000  N
  H265     1.0000 0.31720  0.52050  0.25030  Biso   1.000  H
  H266     1.0000 0.31240  0.56140  0.28580  Biso   1.000  H
  C311     1.0000 0.47560  0.47750  0.26050  Biso   1.000  C
  C312     1.0000 0.42260  0.51840  0.28100  Biso   1.000  C
  C313     1.0000 0.45220  0.54160  0.31600  Biso   1.000  C
  H267     1.0000 0.41600  0.56950  0.33000  Biso   1.000  H
  C314     1.0000 0.53480  0.52390  0.33050  Biso   1.000  C
  C315     1.0000 0.58780  0.48300  0.31000  Biso   1.000  C
  H268     1.0000 0.64430  0.47090  0.31990  Biso   1.000  H
  C316     1.0000 0.55820  0.45980  0.27500  Biso   1.000  C
  N90      1.0000 0.31850  0.50320  0.28330  Biso   1.000  N
  H269     1.0000 0.28590  0.52270  0.30050  Biso   1.000  H
  H270     1.0000 0.29290  0.48720  0.26280  Biso   1.000  H
  C317     1.0000 0.46900  0.47200  0.26260  Biso   1.000  C
  C318     1.0000 0.40880  0.49780  0.28840  Biso   1.000  C
  C319     1.0000 0.43970  0.52530  0.32190  Biso   1.000  C
  H271     1.0000 0.39850  0.54290  0.33950  Biso   1.000  H
  C320     1.0000 0.53080  0.52700  0.32970  Biso   1.000  C
  C321     1.0000 0.59100  0.50120  0.30390  Biso   1.000  C
  H272     1.0000 0.65330  0.50240  0.30920  Biso   1.000  H
  C322     1.0000 0.56010  0.47370  0.27040  Biso   1.000  C
  N91      1.0000 0.63100  0.44800  0.25160  Biso   1.000  N
  H273     1.0000 0.68490  0.45140  0.26130  Biso   1.000  H
  H274     1.0000 0.62240  0.42920  0.22960  Biso   1.000  H
  N92      1.0000 0.62100  0.42310  0.25700  Biso   1.000  N
  H275     1.0000 0.67270  0.41660  0.26840  Biso   1.000  H
  H276     1.0000 0.60850  0.40610  0.23500  Biso   1.000  H
  O93      1.0000 0.35970  0.94730  0.71670  Biso   1.000  O
  O94      1.0000 0.49370  0.91500  0.70480  Biso   1.000  O
  O95      1.0000 0.51050  0.08070  0.88850  Biso   1.000  O
  O96      1.0000 0.64720  0.05470  0.87430  Biso   1.000  O
  C323     1.0000 0.44010  0.94480  0.72600  Biso   1.000  C
  C324     1.0000 0.56500  0.05360  0.86680  Biso   1.000  C
  N93      1.0000 0.34200  0.03530  0.77130  Biso   1.000  N
  H277     1.0000 0.31720  0.02050  0.75030  Biso   1.000  H
  H278     1.0000 0.31240  0.06140  0.78580  Biso   1.000  H
  C325     1.0000 0.47560  0.97750  0.76050  Biso   1.000  C
  C326     1.0000 0.42260  0.01840  0.78100  Biso   1.000  C
  C327     1.0000 0.45220  0.04160  0.81600  Biso   1.000  C
  H279     1.0000 0.41600  0.06950  0.83000  Biso   1.000  H
  C328     1.0000 0.53480  0.02390  0.83050  Biso   1.000  C
  C329     1.0000 0.58780  0.98300  0.81000  Biso   1.000  C
  H280     1.0000 0.64430  0.97090  0.81990  Biso   1.000  H
  C330     1.0000 0.55820  0.95980  0.77500  Biso   1.000  C
  N94      1.0000 0.31850  0.00320  0.78330  Biso   1.000  N
  H281     1.0000 0.28590  0.02270  0.80050  Biso   1.000  H
  H282     1.0000 0.29290  0.98720  0.76280  Biso   1.000  H
  C331     1.0000 0.46900  0.97200  0.76260  Biso   1.000  C
  C332     1.0000 0.40880  0.99780  0.78840  Biso   1.000  C
  C333     1.0000 0.43970  0.02530  0.82190  Biso   1.000  C
  H283     1.0000 0.39850  0.04290  0.83950  Biso   1.000  H
  C334     1.0000 0.53080  0.02700  0.82970  Biso   1.000  C
  C335     1.0000 0.59100  0.00120  0.80390  Biso   1.000  C
  H284     1.0000 0.65330  0.00240  0.80920  Biso   1.000  H
  C336     1.0000 0.56010  0.97370  0.77040  Biso   1.000  C
  N95      1.0000 0.63100  0.94800  0.75160  Biso   1.000  N
  H285     1.0000 0.68490  0.95140  0.76130  Biso   1.000  H
  H286     1.0000 0.62240  0.92920  0.72960  Biso   1.000  H
  N96      1.0000 0.62100  0.92310  0.75700  Biso   1.000  N
  H287     1.0000 0.67270  0.91660  0.76840  Biso   1.000  H
  H288     1.0000 0.60850  0.90610  0.73500  Biso   1.000  H
  O97      1.0000 0.14030  0.69730  0.96670  Biso   1.000  O
  O98      1.0000 0.00630  0.66500  0.95480  Biso   1.000  O
  O99      1.0000 0.98950  0.83070  0.13850  Biso   1.000  O
  O100     1.0000 0.85280  0.80470  0.12430  Biso   1.000  O
  C337     1.0000 0.05990  0.69480  0.97600  Biso   1.000  C
  C338     1.0000 0.93500  0.80360  0.11680  Biso   1.000  C
  N97      1.0000 0.15800  0.78530  0.02130  Biso   1.000  N
  H289     1.0000 0.18280  0.77050  0.00030  Biso   1.000  H
  H290     1.0000 0.18760  0.81140  0.03580  Biso   1.000  H
  C339     1.0000 0.02440  0.72750  0.01050  Biso   1.000  C
  C340     1.0000 0.07740  0.76840  0.03100  Biso   1.000  C
  C341     1.0000 0.04780  0.79160  0.06600  Biso   1.000  C
  H291     1.0000 0.08400  0.81950  0.08000  Biso   1.000  H
  C342     1.0000 0.96520  0.77390  0.08050  Biso   1.000  C
  C343     1.0000 0.91220  0.73300  0.06000  Biso   1.000  C
  H292     1.0000 0.85570  0.72090  0.06990  Biso   1.000  H
  C344     1.0000 0.94180  0.70980  0.02500  Biso   1.000  C
  N98      1.0000 0.18150  0.75320  0.03330  Biso   1.000  N
  H293     1.0000 0.21410  0.77270  0.05050  Biso   1.000  H
  H294     1.0000 0.20710  0.73720  0.01280  Biso   1.000  H
  C345     1.0000 0.03100  0.72200  0.01260  Biso   1.000  C
  C346     1.0000 0.09120  0.74780  0.03840  Biso   1.000  C
  C347     1.0000 0.06030  0.77530  0.07190  Biso   1.000  C
  H295     1.0000 0.10150  0.79290  0.08950  Biso   1.000  H
  C348     1.0000 0.96920  0.77700  0.07970  Biso   1.000  C
  C349     1.0000 0.90900  0.75120  0.05390  Biso   1.000  C
  H296     1.0000 0.84670  0.75240  0.05920  Biso   1.000  H
  C350     1.0000 0.93990  0.72370  0.02040  Biso   1.000  C
  N99      1.0000 0.86900  0.69800  0.00160  Biso   1.000  N
  H297     1.0000 0.81510  0.70140  0.01130  Biso   1.000  H
  H298     1.0000 0.87760  0.67920  0.97960  Biso   1.000  H
  N100     1.0000 0.87900  0.67310  0.00700  Biso   1.000  N
  H299     1.0000 0.82730  0.66660  0.01840  Biso   1.000  H
  H300     1.0000 0.89150  0.65610  0.98500  Biso   1.000  H
  O101     1.0000 0.14030  0.19730  0.46670  Biso   1.000  O
  O102     1.0000 0.00630  0.16500  0.45480  Biso   1.000  O
  O103     1.0000 0.98950  0.33070  0.63850  Biso   1.000  O
  O104     1.0000 0.85280  0.30470  0.62430  Biso   1.000  O
  C351     1.0000 0.05990  0.19480  0.47600  Biso   1.000  C
  C352     1.0000 0.93500  0.30360  0.61680  Biso   1.000  C
  N101     1.0000 0.15800  0.28530  0.52130  Biso   1.000  N
  H301     1.0000 0.18280  0.27050  0.50030  Biso   1.000  H
  H302     1.0000 0.18760  0.31140  0.53580  Biso   1.000  H
  C353     1.0000 0.02440  0.22750  0.51050  Biso   1.000  C
  C354     1.0000 0.07740  0.26840  0.53100  Biso   1.000  C
  C355     1.0000 0.04780  0.29160  0.56600  Biso   1.000  C
  H303     1.0000 0.08400  0.31950  0.58000  Biso   1.000  H
  C356     1.0000 0.96520  0.27390  0.58050  Biso   1.000  C
  C357     1.0000 0.91220  0.23300  0.56000  Biso   1.000  C
  H304     1.0000 0.85570  0.22090  0.56990  Biso   1.000  H
  C358     1.0000 0.94180  0.20980  0.52500  Biso   1.000  C
  N102     1.0000 0.18150  0.25320  0.53330  Biso   1.000  N
  H305     1.0000 0.21410  0.27270  0.55050  Biso   1.000  H
  H306     1.0000 0.20710  0.23720  0.51280  Biso   1.000  H
  C359     1.0000 0.03100  0.22200  0.51260  Biso   1.000  C
  C360     1.0000 0.09120  0.24780  0.53840  Biso   1.000  C
  C361     1.0000 0.06030  0.27530  0.57190  Biso   1.000  C
  H307     1.0000 0.10150  0.29290  0.58950  Biso   1.000  H
  C362     1.0000 0.96920  0.27700  0.57970  Biso   1.000  C
  C363     1.0000 0.90900  0.25120  0.55390  Biso   1.000  C
  H308     1.0000 0.84670  0.25240  0.55920  Biso   1.000  H
  C364     1.0000 0.93990  0.22370  0.52040  Biso   1.000  C
  N103     1.0000 0.86900  0.19800  0.50160  Biso   1.000  N
  H309     1.0000 0.81510  0.20140  0.51130  Biso   1.000  H
  H310     1.0000 0.87760  0.17920  0.47960  Biso   1.000  H
  N104     1.0000 0.87900  0.17310  0.50700  Biso   1.000  N
  H311     1.0000 0.82730  0.16660  0.51840  Biso   1.000  H
  H312     1.0000 0.89150  0.15610  0.48500  Biso   1.000  H
  O105     1.0000 0.64030  0.69730  0.46670  Biso   1.000  O
  O106     1.0000 0.50630  0.66500  0.45480  Biso   1.000  O
  O107     1.0000 0.48950  0.83070  0.63850  Biso   1.000  O
  O108     1.0000 0.35280  0.80470  0.62430  Biso   1.000  O
  C365     1.0000 0.55990  0.69480  0.47600  Biso   1.000  C
  C366     1.0000 0.43500  0.80360  0.61680  Biso   1.000  C
  N105     1.0000 0.65800  0.78530  0.52130  Biso   1.000  N
  H313     1.0000 0.68280  0.77050  0.50030  Biso   1.000  H
  H314     1.0000 0.68760  0.81140  0.53580  Biso   1.000  H
  C367     1.0000 0.52440  0.72750  0.51050  Biso   1.000  C
  C368     1.0000 0.57740  0.76840  0.53100  Biso   1.000  C
  C369     1.0000 0.54780  0.79160  0.56600  Biso   1.000  C
  H315     1.0000 0.58400  0.81950  0.58000  Biso   1.000  H
  C370     1.0000 0.46520  0.77390  0.58050  Biso   1.000  C
  C371     1.0000 0.41220  0.73300  0.56000  Biso   1.000  C
  H316     1.0000 0.35570  0.72090  0.56990  Biso   1.000  H
  C372     1.0000 0.44180  0.70980  0.52500  Biso   1.000  C
  N106     1.0000 0.68150  0.75320  0.53330  Biso   1.000  N
  H317     1.0000 0.71410  0.77270  0.55050  Biso   1.000  H
  H318     1.0000 0.70710  0.73720  0.51280  Biso   1.000  H
  C373     1.0000 0.53100  0.72200  0.51260  Biso   1.000  C
  C374     1.0000 0.59120  0.74780  0.53840  Biso   1.000  C
  C375     1.0000 0.56030  0.77530  0.57190  Biso   1.000  C
  H319     1.0000 0.60150  0.79290  0.58950  Biso   1.000  H
  C376     1.0000 0.46920  0.77700  0.57970  Biso   1.000  C
  C377     1.0000 0.40900  0.75120  0.55390  Biso   1.000  C
  H320     1.0000 0.34670  0.75240  0.55920  Biso   1.000  H
  C378     1.0000 0.43990  0.72370  0.52040  Biso   1.000  C
  N107     1.0000 0.36900  0.69800  0.50160  Biso   1.000  N
  H321     1.0000 0.31510  0.70140  0.51130  Biso   1.000  H
  H322     1.0000 0.37760  0.67920  0.47960  Biso   1.000  H
  N108     1.0000 0.37900  0.67310  0.50700  Biso   1.000  N
  H323     1.0000 0.32730  0.66660  0.51840  Biso   1.000  H
  H324     1.0000 0.39150  0.65610  0.48500  Biso   1.000  H
  O109     1.0000 0.64030  0.19730  0.96670  Biso   1.000  O
  O110     1.0000 0.50630  0.16500  0.95480  Biso   1.000  O
  O111     1.0000 0.48950  0.33070  0.13850  Biso   1.000  O
  O112     1.0000 0.35280  0.30470  0.12430  Biso   1.000  O
  C379     1.0000 0.55990  0.19480  0.97600  Biso   1.000  C
  C380     1.0000 0.43500  0.30360  0.11680  Biso   1.000  C
  N109     1.0000 0.65800  0.28530  0.02130  Biso   1.000  N
  H325     1.0000 0.68280  0.27050  0.00030  Biso   1.000  H
  H326     1.0000 0.68760  0.31140  0.03580  Biso   1.000  H
  C381     1.0000 0.52440  0.22750  0.01050  Biso   1.000  C
  C382     1.0000 0.57740  0.26840  0.03100  Biso   1.000  C
  C383     1.0000 0.54780  0.29160  0.06600  Biso   1.000  C
  H327     1.0000 0.58400  0.31950  0.08000  Biso   1.000  H
  C384     1.0000 0.46520  0.27390  0.08050  Biso   1.000  C
  C385     1.0000 0.41220  0.23300  0.06000  Biso   1.000  C
  H328     1.0000 0.35570  0.22090  0.06990  Biso   1.000  H
  C386     1.0000 0.44180  0.20980  0.02500  Biso   1.000  C
  N110     1.0000 0.68150  0.25320  0.03330  Biso   1.000  N
  H329     1.0000 0.71410  0.27270  0.05050  Biso   1.000  H
  H330     1.0000 0.70710  0.23720  0.01280  Biso   1.000  H
  C387     1.0000 0.53100  0.22200  0.01260  Biso   1.000  C
  C388     1.0000 0.59120  0.24780  0.03840  Biso   1.000  C
  C389     1.0000 0.56030  0.27530  0.07190  Biso   1.000  C
  H331     1.0000 0.60150  0.29290  0.08950  Biso   1.000  H
  C390     1.0000 0.46920  0.27700  0.07970  Biso   1.000  C
  C391     1.0000 0.40900  0.25120  0.05390  Biso   1.000  C
  H332     1.0000 0.34670  0.25240  0.05920  Biso   1.000  H
  C392     1.0000 0.43990  0.22370  0.02040  Biso   1.000  C
  N111     1.0000 0.36900  0.19800  0.00160  Biso   1.000  N
  H333     1.0000 0.31510  0.20140  0.01130  Biso   1.000  H
  H334     1.0000 0.37760  0.17920  0.97960  Biso   1.000  H
  N112     1.0000 0.37900  0.17310  0.00700  Biso   1.000  N
  H335     1.0000 0.32730  0.16660  0.01840  Biso   1.000  H
  H336     1.0000 0.39150  0.15610  0.98500  Biso   1.000  H
  O113     1.0000 0.10970  0.55270  0.96670  Biso   1.000  O
  O114     1.0000 0.24370  0.58500  0.95480  Biso   1.000  O
  O115     1.0000 0.26050  0.41930  0.13850  Biso   1.000  O
  O116     1.0000 0.39720  0.44530  0.12430  Biso   1.000  O
  C393     1.0000 0.19010  0.55520  0.97600  Biso   1.000  C
  C394     1.0000 0.31500  0.44640  0.11680  Biso   1.000  C
  N113     1.0000 0.09200  0.46470  0.02130  Biso   1.000  N
  H337     1.0000 0.06720  0.47950  0.00030  Biso   1.000  H
  H338     1.0000 0.06240  0.43860  0.03580  Biso   1.000  H
  C395     1.0000 0.22560  0.52250  0.01050  Biso   1.000  C
  C396     1.0000 0.17260  0.48160  0.03100  Biso   1.000  C
  C397     1.0000 0.20220  0.45840  0.06600  Biso   1.000  C
  H339     1.0000 0.16600  0.43050  0.08000  Biso   1.000  H
  C398     1.0000 0.28480  0.47610  0.08050  Biso   1.000  C
  C399     1.0000 0.33780  0.51700  0.06000  Biso   1.000  C
  H340     1.0000 0.39430  0.52910  0.06990  Biso   1.000  H
  C400     1.0000 0.30820  0.54020  0.02500  Biso   1.000  C
  N114     1.0000 0.06850  0.49680  0.03330  Biso   1.000  N
  H341     1.0000 0.03590  0.47730  0.05050  Biso   1.000  H
  H342     1.0000 0.04290  0.51280  0.01280  Biso   1.000  H
  C401     1.0000 0.21900  0.52800  0.01260  Biso   1.000  C
  C402     1.0000 0.15880  0.50220  0.03840  Biso   1.000  C
  C403     1.0000 0.18970  0.47470  0.07190  Biso   1.000  C
  H343     1.0000 0.14850  0.45710  0.08950  Biso   1.000  H
  C404     1.0000 0.28080  0.47300  0.07970  Biso   1.000  C
  C405     1.0000 0.34100  0.49880  0.05390  Biso   1.000  C
  H344     1.0000 0.40330  0.49760  0.05920  Biso   1.000  H
  C406     1.0000 0.31010  0.52630  0.02040  Biso   1.000  C
  N115     1.0000 0.38100  0.55200  0.00160  Biso   1.000  N
  H345     1.0000 0.43490  0.54860  0.01130  Biso   1.000  H
  H346     1.0000 0.37240  0.57080  0.97960  Biso   1.000  H
  N116     1.0000 0.37100  0.57690  0.00700  Biso   1.000  N
  H347     1.0000 0.42270  0.58340  0.01840  Biso   1.000  H
  H348     1.0000 0.35850  0.59390  0.98500  Biso   1.000  H
  O117     1.0000 0.10970  0.05270  0.46670  Biso   1.000  O
  O118     1.0000 0.24370  0.08500  0.45480  Biso   1.000  O
  O119     1.0000 0.26050  0.91930  0.63850  Biso   1.000  O
  O120     1.0000 0.39720  0.94530  0.62430  Biso   1.000  O
  C407     1.0000 0.19010  0.05520  0.47600  Biso   1.000  C
  C408     1.0000 0.31500  0.94640  0.61680  Biso   1.000  C
  N117     1.0000 0.09200  0.96470  0.52130  Biso   1.000  N
  H349     1.0000 0.06720  0.97950  0.50030  Biso   1.000  H
  H350     1.0000 0.06240  0.93860  0.53580  Biso   1.000  H
  C409     1.0000 0.22560  0.02250  0.51050  Biso   1.000  C
  C410     1.0000 0.17260  0.98160  0.53100  Biso   1.000  C
  C411     1.0000 0.20220  0.95840  0.56600  Biso   1.000  C
  H351     1.0000 0.16600  0.93050  0.58000  Biso   1.000  H
  C412     1.0000 0.28480  0.97610  0.58050  Biso   1.000  C
  C413     1.0000 0.33780  0.01700  0.56000  Biso   1.000  C
  H352     1.0000 0.39430  0.02910  0.56990  Biso   1.000  H
  C414     1.0000 0.30820  0.04020  0.52500  Biso   1.000  C
  N118     1.0000 0.06850  0.99680  0.53330  Biso   1.000  N
  H353     1.0000 0.03590  0.97730  0.55050  Biso   1.000  H
  H354     1.0000 0.04290  0.01280  0.51280  Biso   1.000  H
  C415     1.0000 0.21900  0.02800  0.51260  Biso   1.000  C
  C416     1.0000 0.15880  0.00220  0.53840  Biso   1.000  C
  C417     1.0000 0.18970  0.97470  0.57190  Biso   1.000  C
  H355     1.0000 0.14850  0.95710  0.58950  Biso   1.000  H
  C418     1.0000 0.28080  0.97300  0.57970  Biso   1.000  C
  C419     1.0000 0.34100  0.99880  0.55390  Biso   1.000  C
  H356     1.0000 0.40330  0.99760  0.55920  Biso   1.000  H
  C420     1.0000 0.31010  0.02630  0.52040  Biso   1.000  C
  N119     1.0000 0.38100  0.05200  0.50160  Biso   1.000  N
  H357     1.0000 0.43490  0.04860  0.51130  Biso   1.000  H
  H358     1.0000 0.37240  0.07080  0.47960  Biso   1.000  H
  N120     1.0000 0.37100  0.07690  0.50700  Biso   1.000  N
  H359     1.0000 0.42270  0.08340  0.51840  Biso   1.000  H
  H360     1.0000 0.35850  0.09390  0.48500  Biso   1.000  H
  O121     1.0000 0.60970  0.55270  0.46670  Biso   1.000  O
  O122     1.0000 0.74370  0.58500  0.45480  Biso   1.000  O
  O123     1.0000 0.76050  0.41930  0.63850  Biso   1.000  O
  O124     1.0000 0.89720  0.44530  0.62430  Biso   1.000  O
  C421     1.0000 0.69010  0.55520  0.47600  Biso   1.000  C
  C422     1.0000 0.81500  0.44640  0.61680  Biso   1.000  C
  N121     1.0000 0.59200  0.46470  0.52130  Biso   1.000  N
  H361     1.0000 0.56720  0.47950  0.50030  Biso   1.000  H
  H362     1.0000 0.56240  0.43860  0.53580  Biso   1.000  H
  C423     1.0000 0.72560  0.52250  0.51050  Biso   1.000  C
  C424     1.0000 0.67260  0.48160  0.53100  Biso   1.000  C
  C425     1.0000 0.70220  0.45840  0.56600  Biso   1.000  C
  H363     1.0000 0.66600  0.43050  0.58000  Biso   1.000  H
  C426     1.0000 0.78480  0.47610  0.58050  Biso   1.000  C
  C427     1.0000 0.83780  0.51700  0.56000  Biso   1.000  C
  H364     1.0000 0.89430  0.52910  0.56990  Biso   1.000  H
  C428     1.0000 0.80820  0.54020  0.52500  Biso   1.000  C
  N122     1.0000 0.56850  0.49680  0.53330  Biso   1.000  N
  H365     1.0000 0.53590  0.47730  0.55050  Biso   1.000  H
  H366     1.0000 0.54290  0.51280  0.51280  Biso   1.000  H
  C429     1.0000 0.71900  0.52800  0.51260  Biso   1.000  C
  C430     1.0000 0.65880  0.50220  0.53840  Biso   1.000  C
  C431     1.0000 0.68970  0.47470  0.57190  Biso   1.000  C
  H367     1.0000 0.64850  0.45710  0.58950  Biso   1.000  H
  C432     1.0000 0.78080  0.47300  0.57970  Biso   1.000  C
  C433     1.0000 0.84100  0.49880  0.55390  Biso   1.000  C
  H368     1.0000 0.90330  0.49760  0.55920  Biso   1.000  H
  C434     1.0000 0.81010  0.52630  0.52040  Biso   1.000  C
  N123     1.0000 0.88100  0.55200  0.50160  Biso   1.000  N
  H369     1.0000 0.93490  0.54860  0.51130  Biso   1.000  H
  H370     1.0000 0.87240  0.57080  0.47960  Biso   1.000  H
  N124     1.0000 0.87100  0.57690  0.50700  Biso   1.000  N
  H371     1.0000 0.92270  0.58340  0.51840  Biso   1.000  H
  H372     1.0000 0.85850  0.59390  0.48500  Biso   1.000  H
  O125     1.0000 0.60970  0.05270  0.96670  Biso   1.000  O
  O126     1.0000 0.74370  0.08500  0.95480  Biso   1.000  O
  O127     1.0000 0.76050  0.91930  0.13850  Biso   1.000  O
  O128     1.0000 0.89720  0.94530  0.12430  Biso   1.000  O
  C435     1.0000 0.69010  0.05520  0.97600  Biso   1.000  C
  C436     1.0000 0.81500  0.94640  0.11680  Biso   1.000  C
  N125     1.0000 0.59200  0.96470  0.02130  Biso   1.000  N
  H373     1.0000 0.56720  0.97950  0.00030  Biso   1.000  H
  H374     1.0000 0.56240  0.93860  0.03580  Biso   1.000  H
  C437     1.0000 0.72560  0.02250  0.01050  Biso   1.000  C
  C438     1.0000 0.67260  0.98160  0.03100  Biso   1.000  C
  C439     1.0000 0.70220  0.95840  0.06600  Biso   1.000  C
  H375     1.0000 0.66600  0.93050  0.08000  Biso   1.000  H
  C440     1.0000 0.78480  0.97610  0.08050  Biso   1.000  C
  C441     1.0000 0.83780  0.01700  0.06000  Biso   1.000  C
  H376     1.0000 0.89430  0.02910  0.06990  Biso   1.000  H
  C442     1.0000 0.80820  0.04020  0.02500  Biso   1.000  C
  N126     1.0000 0.56850  0.99680  0.03330  Biso   1.000  N
  H377     1.0000 0.53590  0.97730  0.05050  Biso   1.000  H
  H378     1.0000 0.54290  0.01280  0.01280  Biso   1.000  H
  C443     1.0000 0.71900  0.02800  0.01260  Biso   1.000  C
  C444     1.0000 0.65880  0.00220  0.03840  Biso   1.000  C
  C445     1.0000 0.68970  0.97470  0.07190  Biso   1.000  C
  H379     1.0000 0.64850  0.95710  0.08950  Biso   1.000  H
  C446     1.0000 0.78080  0.97300  0.07970  Biso   1.000  C
  C447     1.0000 0.84100  0.99880  0.05390  Biso   1.000  C
  H380     1.0000 0.90330  0.99760  0.05920  Biso   1.000  H
  C448     1.0000 0.81010  0.02630  0.02040  Biso   1.000  C
  N127     1.0000 0.88100  0.05200  0.00160  Biso   1.000  N
  H381     1.0000 0.93490  0.04860  0.01130  Biso   1.000  H
  H382     1.0000 0.87240  0.07080  0.97960  Biso   1.000  H
  N128     1.0000 0.87100  0.07690  0.00700  Biso   1.000  N
  H383     1.0000 0.92270  0.08340  0.01840  Biso   1.000  H
  H384     1.0000 0.85850  0.09390  0.98500  Biso   1.000  H
  In9      1.0000 0.87500  0.37500  0.67155  Biso   1.000  In
  In10     1.0000 0.87500  0.87500  0.17155  Biso   1.000  In
  In11     1.0000 0.37500  0.37500  0.17155  Biso   1.000  In
  In12     1.0000 0.37500  0.87500  0.67155  Biso   1.000  In
  In13     1.0000 0.12500  0.62500  0.92155  Biso   1.000  In
  In14     1.0000 0.12500  0.12500  0.42155  Biso   1.000  In
  In15     1.0000 0.62500  0.62500  0.42155  Biso   1.000  In
  In16     1.0000 0.62500  0.12500  0.92155  Biso   1.000  In
