data_image0
_cell_length_a       14.8498
_cell_length_b       20.9133
_cell_length_c       35.2975
_cell_angle_alpha    90
_cell_angle_beta     90
_cell_angle_gamma    90

_symmetry_space_group_name_H-M    "P 1"
_symmetry_int_tables_number       1

loop_
  _symmetry_equiv_pos_as_xyz
  'x, y, z'

loop_
  _atom_site_label
  _atom_site_occupancy
  _atom_site_fract_x
  _atom_site_fract_y
  _atom_site_fract_z
  _atom_site_thermal_displace_type
  _atom_site_B_iso_or_equiv
  _atom_site_type_symbol
  O1       1.0000 0.75470  0.41440  0.55040  Biso   1.000  O
  O2       1.0000 0.60280  0.55140  0.38050  Biso   1.000  O
  O3       1.0000 0.88900  0.44930  0.53940  Biso   1.000  O
  O4       1.0000 0.74020  0.58110  0.36710  Biso   1.000  O
  C1       1.0000 0.68430  0.55300  0.38920  Biso   1.000  C
  C2       1.0000 0.80940  0.44540  0.53030  Biso   1.000  C
  C3       1.0000 0.82950  0.52100  0.47330  Biso   1.000  C
  C4       1.0000 0.77750  0.47840  0.49420  Biso   1.000  C
  C5       1.0000 0.69380  0.45920  0.48080  Biso   1.000  C
  H1       1.0000 0.65830  0.43010  0.49510  Biso   1.000  H
  C6       1.0000 0.66200  0.48270  0.44650  Biso   1.000  C
  H2       1.0000 0.60470  0.46960  0.43730  Biso   1.000  H
  C7       1.0000 0.71390  0.52530  0.42560  Biso   1.000  C
  C8       1.0000 0.79760  0.54450  0.43900  Biso   1.000  C
  H3       1.0000 0.83310  0.57360  0.42480  Biso   1.000  H
  N1       1.0000 0.91440  0.54180  0.48590  Biso   1.000  N
  H4       1.0000 0.94270  0.56710  0.46880  Biso   1.000  H
  H5       1.0000 0.90950  0.56500  0.50740  Biso   1.000  H
  N2       1.0000 0.93080  0.50700  0.47610  Biso   1.000  N
  H6       1.0000 0.95680  0.46920  0.47970  Biso   1.000  H
  H7       1.0000 0.95670  0.52570  0.45630  Biso   1.000  H
  C9       1.0000 0.83840  0.50080  0.46930  Biso   1.000  C
  C10      1.0000 0.77490  0.47510  0.49390  Biso   1.000  C
  C11      1.0000 0.68470  0.47300  0.48350  Biso   1.000  C
  H8       1.0000 0.64130  0.45540  0.50030  Biso   1.000  H
  C12      1.0000 0.65800  0.49660  0.44840  Biso   1.000  C
  H9       1.0000 0.59630  0.49510  0.44130  Biso   1.000  H
  C13      1.0000 0.72140  0.52220  0.42380  Biso   1.000  C
  C14      1.0000 0.81160  0.52430  0.43420  Biso   1.000  C
  H10      1.0000 0.85500  0.54190  0.41740  Biso   1.000  H
  O5       1.0000 0.75470  0.91440  0.05040  Biso   1.000  O
  O6       1.0000 0.60280  0.05140  0.88050  Biso   1.000  O
  O7       1.0000 0.88900  0.94930  0.03940  Biso   1.000  O
  O8       1.0000 0.74020  0.08110  0.86710  Biso   1.000  O
  C15      1.0000 0.68430  0.05300  0.88920  Biso   1.000  C
  C16      1.0000 0.80940  0.94540  0.03030  Biso   1.000  C
  C17      1.0000 0.82950  0.02100  0.97330  Biso   1.000  C
  C18      1.0000 0.77750  0.97840  0.99420  Biso   1.000  C
  C19      1.0000 0.69380  0.95920  0.98080  Biso   1.000  C
  H11      1.0000 0.65830  0.93010  0.99510  Biso   1.000  H
  C20      1.0000 0.66200  0.98270  0.94650  Biso   1.000  C
  H12      1.0000 0.60470  0.96960  0.93730  Biso   1.000  H
  C21      1.0000 0.71390  0.02530  0.92560  Biso   1.000  C
  C22      1.0000 0.79760  0.04450  0.93900  Biso   1.000  C
  H13      1.0000 0.83310  0.07360  0.92480  Biso   1.000  H
  N3       1.0000 0.91440  0.04180  0.98590  Biso   1.000  N
  H14      1.0000 0.94270  0.06710  0.96880  Biso   1.000  H
  H15      1.0000 0.90950  0.06500  0.00740  Biso   1.000  H
  N4       1.0000 0.93080  0.00700  0.97610  Biso   1.000  N
  H16      1.0000 0.95680  0.96920  0.97970  Biso   1.000  H
  H17      1.0000 0.95670  0.02570  0.95630  Biso   1.000  H
  C23      1.0000 0.83840  0.00080  0.96930  Biso   1.000  C
  C24      1.0000 0.77490  0.97510  0.99390  Biso   1.000  C
  C25      1.0000 0.68470  0.97300  0.98350  Biso   1.000  C
  H18      1.0000 0.64130  0.95540  0.00030  Biso   1.000  H
  C26      1.0000 0.65800  0.99660  0.94840  Biso   1.000  C
  H19      1.0000 0.59630  0.99510  0.94130  Biso   1.000  H
  C27      1.0000 0.72140  0.02220  0.92380  Biso   1.000  C
  C28      1.0000 0.81160  0.02430  0.93420  Biso   1.000  C
  H20      1.0000 0.85500  0.04190  0.91740  Biso   1.000  H
  O9       1.0000 0.25470  0.41440  0.05040  Biso   1.000  O
  O10      1.0000 0.10280  0.55140  0.88050  Biso   1.000  O
  O11      1.0000 0.38900  0.44930  0.03940  Biso   1.000  O
  O12      1.0000 0.24020  0.58110  0.86710  Biso   1.000  O
  C29      1.0000 0.18430  0.55300  0.88920  Biso   1.000  C
  C30      1.0000 0.30940  0.44540  0.03030  Biso   1.000  C
  C31      1.0000 0.32950  0.52100  0.97330  Biso   1.000  C
  C32      1.0000 0.27750  0.47840  0.99420  Biso   1.000  C
  C33      1.0000 0.19380  0.45920  0.98080  Biso   1.000  C
  H21      1.0000 0.15830  0.43010  0.99510  Biso   1.000  H
  C34      1.0000 0.16200  0.48270  0.94650  Biso   1.000  C
  H22      1.0000 0.10470  0.46960  0.93730  Biso   1.000  H
  C35      1.0000 0.21390  0.52530  0.92560  Biso   1.000  C
  C36      1.0000 0.29760  0.54450  0.93900  Biso   1.000  C
  H23      1.0000 0.33310  0.57360  0.92480  Biso   1.000  H
  N5       1.0000 0.41440  0.54180  0.98590  Biso   1.000  N
  H24      1.0000 0.44270  0.56710  0.96880  Biso   1.000  H
  H25      1.0000 0.40950  0.56500  0.00740  Biso   1.000  H
  N6       1.0000 0.43080  0.50700  0.97610  Biso   1.000  N
  H26      1.0000 0.45680  0.46920  0.97970  Biso   1.000  H
  H27      1.0000 0.45670  0.52570  0.95630  Biso   1.000  H
  C37      1.0000 0.33840  0.50080  0.96930  Biso   1.000  C
  C38      1.0000 0.27490  0.47510  0.99390  Biso   1.000  C
  C39      1.0000 0.18470  0.47300  0.98350  Biso   1.000  C
  H28      1.0000 0.14130  0.45540  0.00030  Biso   1.000  H
  C40      1.0000 0.15800  0.49660  0.94840  Biso   1.000  C
  H29      1.0000 0.09630  0.49510  0.94130  Biso   1.000  H
  C41      1.0000 0.22140  0.52220  0.92380  Biso   1.000  C
  C42      1.0000 0.31160  0.52430  0.93420  Biso   1.000  C
  H30      1.0000 0.35500  0.54190  0.91740  Biso   1.000  H
  O13      1.0000 0.25470  0.91440  0.55040  Biso   1.000  O
  O14      1.0000 0.10280  0.05140  0.38050  Biso   1.000  O
  O15      1.0000 0.38900  0.94930  0.53940  Biso   1.000  O
  O16      1.0000 0.24020  0.08110  0.36710  Biso   1.000  O
  C43      1.0000 0.18430  0.05300  0.38920  Biso   1.000  C
  C44      1.0000 0.30940  0.94540  0.53030  Biso   1.000  C
  C45      1.0000 0.32950  0.02100  0.47330  Biso   1.000  C
  C46      1.0000 0.27750  0.97840  0.49420  Biso   1.000  C
  C47      1.0000 0.19380  0.95920  0.48080  Biso   1.000  C
  H31      1.0000 0.15830  0.93010  0.49510  Biso   1.000  H
  C48      1.0000 0.16200  0.98270  0.44650  Biso   1.000  C
  H32      1.0000 0.10470  0.96960  0.43730  Biso   1.000  H
  C49      1.0000 0.21390  0.02530  0.42560  Biso   1.000  C
  C50      1.0000 0.29760  0.04450  0.43900  Biso   1.000  C
  H33      1.0000 0.33310  0.07360  0.42480  Biso   1.000  H
  N7       1.0000 0.41440  0.04180  0.48590  Biso   1.000  N
  H34      1.0000 0.44270  0.06710  0.46880  Biso   1.000  H
  H35      1.0000 0.40950  0.06500  0.50740  Biso   1.000  H
  N8       1.0000 0.43080  0.00700  0.47610  Biso   1.000  N
  H36      1.0000 0.45680  0.96920  0.47970  Biso   1.000  H
  H37      1.0000 0.45670  0.02570  0.45630  Biso   1.000  H
  C51      1.0000 0.33840  0.00080  0.46930  Biso   1.000  C
  C52      1.0000 0.27490  0.97510  0.49390  Biso   1.000  C
  C53      1.0000 0.18470  0.97300  0.48350  Biso   1.000  C
  H38      1.0000 0.14130  0.95540  0.50030  Biso   1.000  H
  C54      1.0000 0.15800  0.99660  0.44840  Biso   1.000  C
  H39      1.0000 0.09630  0.99510  0.44130  Biso   1.000  H
  C55      1.0000 0.22140  0.02220  0.42380  Biso   1.000  C
  C56      1.0000 0.31160  0.02430  0.43420  Biso   1.000  C
  H40      1.0000 0.35500  0.04190  0.41740  Biso   1.000  H
  O17      1.0000 0.99530  0.33560  0.55040  Biso   1.000  O
  O18      1.0000 0.14720  0.19860  0.38050  Biso   1.000  O
  O19      1.0000 0.86100  0.30070  0.53940  Biso   1.000  O
  O20      1.0000 0.00980  0.16890  0.36710  Biso   1.000  O
  C57      1.0000 0.06570  0.19700  0.38920  Biso   1.000  C
  C58      1.0000 0.94060  0.30460  0.53030  Biso   1.000  C
  C59      1.0000 0.92050  0.22900  0.47330  Biso   1.000  C
  C60      1.0000 0.97250  0.27160  0.49420  Biso   1.000  C
  C61      1.0000 0.05620  0.29080  0.48080  Biso   1.000  C
  H41      1.0000 0.09170  0.31990  0.49510  Biso   1.000  H
  C62      1.0000 0.08800  0.26730  0.44650  Biso   1.000  C
  H42      1.0000 0.14530  0.28040  0.43730  Biso   1.000  H
  C63      1.0000 0.03610  0.22470  0.42560  Biso   1.000  C
  C64      1.0000 0.95240  0.20550  0.43900  Biso   1.000  C
  H43      1.0000 0.91690  0.17640  0.42480  Biso   1.000  H
  N9       1.0000 0.83560  0.20820  0.48590  Biso   1.000  N
  H44      1.0000 0.80730  0.18290  0.46880  Biso   1.000  H
  H45      1.0000 0.84050  0.18500  0.50740  Biso   1.000  H
  N10      1.0000 0.81920  0.24300  0.47610  Biso   1.000  N
  H46      1.0000 0.79320  0.28080  0.47970  Biso   1.000  H
  H47      1.0000 0.79330  0.22430  0.45630  Biso   1.000  H
  C65      1.0000 0.91160  0.24920  0.46930  Biso   1.000  C
  C66      1.0000 0.97510  0.27490  0.49390  Biso   1.000  C
  C67      1.0000 0.06530  0.27700  0.48350  Biso   1.000  C
  H48      1.0000 0.10870  0.29460  0.50030  Biso   1.000  H
  C68      1.0000 0.09200  0.25340  0.44840  Biso   1.000  C
  H49      1.0000 0.15370  0.25490  0.44130  Biso   1.000  H
  C69      1.0000 0.02860  0.22780  0.42380  Biso   1.000  C
  C70      1.0000 0.93840  0.22570  0.43420  Biso   1.000  C
  H50      1.0000 0.89500  0.20810  0.41740  Biso   1.000  H
  O21      1.0000 0.99530  0.83560  0.05040  Biso   1.000  O
  O22      1.0000 0.14720  0.69860  0.88050  Biso   1.000  O
  O23      1.0000 0.86100  0.80070  0.03940  Biso   1.000  O
  O24      1.0000 0.00980  0.66890  0.86710  Biso   1.000  O
  C71      1.0000 0.06570  0.69700  0.88920  Biso   1.000  C
  C72      1.0000 0.94060  0.80460  0.03030  Biso   1.000  C
  C73      1.0000 0.92050  0.72900  0.97330  Biso   1.000  C
  C74      1.0000 0.97250  0.77160  0.99420  Biso   1.000  C
  C75      1.0000 0.05620  0.79080  0.98080  Biso   1.000  C
  H51      1.0000 0.09170  0.81990  0.99510  Biso   1.000  H
  C76      1.0000 0.08800  0.76730  0.94650  Biso   1.000  C
  H52      1.0000 0.14530  0.78040  0.93730  Biso   1.000  H
  C77      1.0000 0.03610  0.72470  0.92560  Biso   1.000  C
  C78      1.0000 0.95240  0.70550  0.93900  Biso   1.000  C
  H53      1.0000 0.91690  0.67640  0.92480  Biso   1.000  H
  N11      1.0000 0.83560  0.70820  0.98590  Biso   1.000  N
  H54      1.0000 0.80730  0.68290  0.96880  Biso   1.000  H
  H55      1.0000 0.84050  0.68500  0.00740  Biso   1.000  H
  N12      1.0000 0.81920  0.74300  0.97610  Biso   1.000  N
  H56      1.0000 0.79320  0.78080  0.97970  Biso   1.000  H
  H57      1.0000 0.79330  0.72430  0.95630  Biso   1.000  H
  C79      1.0000 0.91160  0.74920  0.96930  Biso   1.000  C
  C80      1.0000 0.97510  0.77490  0.99390  Biso   1.000  C
  C81      1.0000 0.06530  0.77700  0.98350  Biso   1.000  C
  H58      1.0000 0.10870  0.79460  0.00030  Biso   1.000  H
  C82      1.0000 0.09200  0.75340  0.94840  Biso   1.000  C
  H59      1.0000 0.15370  0.75490  0.94130  Biso   1.000  H
  C83      1.0000 0.02860  0.72780  0.92380  Biso   1.000  C
  C84      1.0000 0.93840  0.72570  0.93420  Biso   1.000  C
  H60      1.0000 0.89500  0.70810  0.91740  Biso   1.000  H
  O25      1.0000 0.49530  0.33560  0.05040  Biso   1.000  O
  O26      1.0000 0.64720  0.19860  0.88050  Biso   1.000  O
  O27      1.0000 0.36100  0.30070  0.03940  Biso   1.000  O
  O28      1.0000 0.50980  0.16890  0.86710  Biso   1.000  O
  C85      1.0000 0.56570  0.19700  0.88920  Biso   1.000  C
  C86      1.0000 0.44060  0.30460  0.03030  Biso   1.000  C
  C87      1.0000 0.42050  0.22900  0.97330  Biso   1.000  C
  C88      1.0000 0.47250  0.27160  0.99420  Biso   1.000  C
  C89      1.0000 0.55620  0.29080  0.98080  Biso   1.000  C
  H61      1.0000 0.59170  0.31990  0.99510  Biso   1.000  H
  C90      1.0000 0.58800  0.26730  0.94650  Biso   1.000  C
  H62      1.0000 0.64530  0.28040  0.93730  Biso   1.000  H
  C91      1.0000 0.53610  0.22470  0.92560  Biso   1.000  C
  C92      1.0000 0.45240  0.20550  0.93900  Biso   1.000  C
  H63      1.0000 0.41690  0.17640  0.92480  Biso   1.000  H
  N13      1.0000 0.33560  0.20820  0.98590  Biso   1.000  N
  H64      1.0000 0.30730  0.18290  0.96880  Biso   1.000  H
  H65      1.0000 0.34050  0.18500  0.00740  Biso   1.000  H
  N14      1.0000 0.31920  0.24300  0.97610  Biso   1.000  N
  H66      1.0000 0.29320  0.28080  0.97970  Biso   1.000  H
  H67      1.0000 0.29330  0.22430  0.95630  Biso   1.000  H
  C93      1.0000 0.41160  0.24920  0.96930  Biso   1.000  C
  C94      1.0000 0.47510  0.27490  0.99390  Biso   1.000  C
  C95      1.0000 0.56530  0.27700  0.98350  Biso   1.000  C
  H68      1.0000 0.60870  0.29460  0.00030  Biso   1.000  H
  C96      1.0000 0.59200  0.25340  0.94840  Biso   1.000  C
  H69      1.0000 0.65370  0.25490  0.94130  Biso   1.000  H
  C97      1.0000 0.52860  0.22780  0.92380  Biso   1.000  C
  C98      1.0000 0.43840  0.22570  0.93420  Biso   1.000  C
  H70      1.0000 0.39500  0.20810  0.91740  Biso   1.000  H
  O29      1.0000 0.49530  0.83560  0.55040  Biso   1.000  O
  O30      1.0000 0.64720  0.69860  0.38050  Biso   1.000  O
  O31      1.0000 0.36100  0.80070  0.53940  Biso   1.000  O
  O32      1.0000 0.50980  0.66890  0.36710  Biso   1.000  O
  C99      1.0000 0.56570  0.69700  0.38920  Biso   1.000  C
  C100     1.0000 0.44060  0.80460  0.53030  Biso   1.000  C
  C101     1.0000 0.42050  0.72900  0.47330  Biso   1.000  C
  C102     1.0000 0.47250  0.77160  0.49420  Biso   1.000  C
  C103     1.0000 0.55620  0.79080  0.48080  Biso   1.000  C
  H71      1.0000 0.59170  0.81990  0.49510  Biso   1.000  H
  C104     1.0000 0.58800  0.76730  0.44650  Biso   1.000  C
  H72      1.0000 0.64530  0.78040  0.43730  Biso   1.000  H
  C105     1.0000 0.53610  0.72470  0.42560  Biso   1.000  C
  C106     1.0000 0.45240  0.70550  0.43900  Biso   1.000  C
  H73      1.0000 0.41690  0.67640  0.42480  Biso   1.000  H
  N15      1.0000 0.33560  0.70820  0.48590  Biso   1.000  N
  H74      1.0000 0.30730  0.68290  0.46880  Biso   1.000  H
  H75      1.0000 0.34050  0.68500  0.50740  Biso   1.000  H
  N16      1.0000 0.31920  0.74300  0.47610  Biso   1.000  N
  H76      1.0000 0.29320  0.78080  0.47970  Biso   1.000  H
  H77      1.0000 0.29330  0.72430  0.45630  Biso   1.000  H
  C107     1.0000 0.41160  0.74920  0.46930  Biso   1.000  C
  C108     1.0000 0.47510  0.77490  0.49390  Biso   1.000  C
  C109     1.0000 0.56530  0.77700  0.48350  Biso   1.000  C
  H78      1.0000 0.60870  0.79460  0.50030  Biso   1.000  H
  C110     1.0000 0.59200  0.75340  0.44840  Biso   1.000  C
  H79      1.0000 0.65370  0.75490  0.44130  Biso   1.000  H
  C111     1.0000 0.52860  0.72780  0.42380  Biso   1.000  C
  C112     1.0000 0.43840  0.72570  0.43420  Biso   1.000  C
  H80      1.0000 0.39500  0.70810  0.41740  Biso   1.000  H
  O33      1.0000 0.00470  0.58560  0.80040  Biso   1.000  O
  O34      1.0000 0.85280  0.44860  0.63050  Biso   1.000  O
  O35      1.0000 0.13900  0.55070  0.78940  Biso   1.000  O
  O36      1.0000 0.99020  0.41890  0.61710  Biso   1.000  O
  C113     1.0000 0.93430  0.44700  0.63920  Biso   1.000  C
  C114     1.0000 0.05940  0.55460  0.78030  Biso   1.000  C
  C115     1.0000 0.07950  0.47900  0.72330  Biso   1.000  C
  C116     1.0000 0.02750  0.52160  0.74420  Biso   1.000  C
  C117     1.0000 0.94380  0.54080  0.73080  Biso   1.000  C
  H81      1.0000 0.90830  0.56990  0.74510  Biso   1.000  H
  C118     1.0000 0.91200  0.51730  0.69650  Biso   1.000  C
  H82      1.0000 0.85470  0.53040  0.68730  Biso   1.000  H
  C119     1.0000 0.96390  0.47470  0.67560  Biso   1.000  C
  C120     1.0000 0.04760  0.45550  0.68900  Biso   1.000  C
  H83      1.0000 0.08310  0.42640  0.67480  Biso   1.000  H
  N17      1.0000 0.16440  0.45820  0.73590  Biso   1.000  N
  H84      1.0000 0.19270  0.43290  0.71880  Biso   1.000  H
  H85      1.0000 0.15950  0.43500  0.75740  Biso   1.000  H
  N18      1.0000 0.18080  0.49300  0.72610  Biso   1.000  N
  H86      1.0000 0.20680  0.53080  0.72970  Biso   1.000  H
  H87      1.0000 0.20670  0.47430  0.70630  Biso   1.000  H
  C121     1.0000 0.08840  0.49920  0.71930  Biso   1.000  C
  C122     1.0000 0.02490  0.52490  0.74390  Biso   1.000  C
  C123     1.0000 0.93470  0.52700  0.73350  Biso   1.000  C
  H88      1.0000 0.89130  0.54460  0.75030  Biso   1.000  H
  C124     1.0000 0.90800  0.50340  0.69840  Biso   1.000  C
  H89      1.0000 0.84630  0.50490  0.69130  Biso   1.000  H
  C125     1.0000 0.97140  0.47780  0.67380  Biso   1.000  C
  C126     1.0000 0.06160  0.47570  0.68420  Biso   1.000  C
  H90      1.0000 0.10500  0.45810  0.66740  Biso   1.000  H
  O37      1.0000 0.00470  0.08560  0.30040  Biso   1.000  O
  O38      1.0000 0.85280  0.94860  0.13050  Biso   1.000  O
  O39      1.0000 0.13900  0.05070  0.28940  Biso   1.000  O
  O40      1.0000 0.99020  0.91890  0.11710  Biso   1.000  O
  C127     1.0000 0.93430  0.94700  0.13920  Biso   1.000  C
  C128     1.0000 0.05940  0.05460  0.28030  Biso   1.000  C
  C129     1.0000 0.07950  0.97900  0.22330  Biso   1.000  C
  C130     1.0000 0.02750  0.02160  0.24420  Biso   1.000  C
  C131     1.0000 0.94380  0.04080  0.23080  Biso   1.000  C
  H91      1.0000 0.90830  0.06990  0.24510  Biso   1.000  H
  C132     1.0000 0.91200  0.01730  0.19650  Biso   1.000  C
  H92      1.0000 0.85470  0.03040  0.18730  Biso   1.000  H
  C133     1.0000 0.96390  0.97470  0.17560  Biso   1.000  C
  C134     1.0000 0.04760  0.95550  0.18900  Biso   1.000  C
  H93      1.0000 0.08310  0.92640  0.17480  Biso   1.000  H
  N19      1.0000 0.16440  0.95820  0.23590  Biso   1.000  N
  H94      1.0000 0.19270  0.93290  0.21880  Biso   1.000  H
  H95      1.0000 0.15950  0.93500  0.25740  Biso   1.000  H
  N20      1.0000 0.18080  0.99300  0.22610  Biso   1.000  N
  H96      1.0000 0.20680  0.03080  0.22970  Biso   1.000  H
  H97      1.0000 0.20670  0.97430  0.20630  Biso   1.000  H
  C135     1.0000 0.08840  0.99920  0.21930  Biso   1.000  C
  C136     1.0000 0.02490  0.02490  0.24390  Biso   1.000  C
  C137     1.0000 0.93470  0.02700  0.23350  Biso   1.000  C
  H98      1.0000 0.89130  0.04460  0.25030  Biso   1.000  H
  C138     1.0000 0.90800  0.00340  0.19840  Biso   1.000  C
  H99      1.0000 0.84630  0.00490  0.19130  Biso   1.000  H
  C139     1.0000 0.97140  0.97780  0.17380  Biso   1.000  C
  C140     1.0000 0.06160  0.97570  0.18420  Biso   1.000  C
  H100     1.0000 0.10500  0.95810  0.16740  Biso   1.000  H
  O41      1.0000 0.50470  0.58560  0.30040  Biso   1.000  O
  O42      1.0000 0.35280  0.44860  0.13050  Biso   1.000  O
  O43      1.0000 0.63900  0.55070  0.28940  Biso   1.000  O
  O44      1.0000 0.49020  0.41890  0.11710  Biso   1.000  O
  C141     1.0000 0.43430  0.44700  0.13920  Biso   1.000  C
  C142     1.0000 0.55940  0.55460  0.28030  Biso   1.000  C
  C143     1.0000 0.57950  0.47900  0.22330  Biso   1.000  C
  C144     1.0000 0.52750  0.52160  0.24420  Biso   1.000  C
  C145     1.0000 0.44380  0.54080  0.23080  Biso   1.000  C
  H101     1.0000 0.40830  0.56990  0.24510  Biso   1.000  H
  C146     1.0000 0.41200  0.51730  0.19650  Biso   1.000  C
  H102     1.0000 0.35470  0.53040  0.18730  Biso   1.000  H
  C147     1.0000 0.46390  0.47470  0.17560  Biso   1.000  C
  C148     1.0000 0.54760  0.45550  0.18900  Biso   1.000  C
  H103     1.0000 0.58310  0.42640  0.17480  Biso   1.000  H
  N21      1.0000 0.66440  0.45820  0.23590  Biso   1.000  N
  H104     1.0000 0.69270  0.43290  0.21880  Biso   1.000  H
  H105     1.0000 0.65950  0.43500  0.25740  Biso   1.000  H
  N22      1.0000 0.68080  0.49300  0.22610  Biso   1.000  N
  H106     1.0000 0.70680  0.53080  0.22970  Biso   1.000  H
  H107     1.0000 0.70670  0.47430  0.20630  Biso   1.000  H
  C149     1.0000 0.58840  0.49920  0.21930  Biso   1.000  C
  C150     1.0000 0.52490  0.52490  0.24390  Biso   1.000  C
  C151     1.0000 0.43470  0.52700  0.23350  Biso   1.000  C
  H108     1.0000 0.39130  0.54460  0.25030  Biso   1.000  H
  C152     1.0000 0.40800  0.50340  0.19840  Biso   1.000  C
  H109     1.0000 0.34630  0.50490  0.19130  Biso   1.000  H
  C153     1.0000 0.47140  0.47780  0.17380  Biso   1.000  C
  C154     1.0000 0.56160  0.47570  0.18420  Biso   1.000  C
  H110     1.0000 0.60500  0.45810  0.16740  Biso   1.000  H
  O45      1.0000 0.50470  0.08560  0.80040  Biso   1.000  O
  O46      1.0000 0.35280  0.94860  0.63050  Biso   1.000  O
  O47      1.0000 0.63900  0.05070  0.78940  Biso   1.000  O
  O48      1.0000 0.49020  0.91890  0.61710  Biso   1.000  O
  C155     1.0000 0.43430  0.94700  0.63920  Biso   1.000  C
  C156     1.0000 0.55940  0.05460  0.78030  Biso   1.000  C
  C157     1.0000 0.57950  0.97900  0.72330  Biso   1.000  C
  C158     1.0000 0.52750  0.02160  0.74420  Biso   1.000  C
  C159     1.0000 0.44380  0.04080  0.73080  Biso   1.000  C
  H111     1.0000 0.40830  0.06990  0.74510  Biso   1.000  H
  C160     1.0000 0.41200  0.01730  0.69650  Biso   1.000  C
  H112     1.0000 0.35470  0.03040  0.68730  Biso   1.000  H
  C161     1.0000 0.46390  0.97470  0.67560  Biso   1.000  C
  C162     1.0000 0.54760  0.95550  0.68900  Biso   1.000  C
  H113     1.0000 0.58310  0.92640  0.67480  Biso   1.000  H
  N23      1.0000 0.66440  0.95820  0.73590  Biso   1.000  N
  H114     1.0000 0.69270  0.93290  0.71880  Biso   1.000  H
  H115     1.0000 0.65950  0.93500  0.75740  Biso   1.000  H
  N24      1.0000 0.68080  0.99300  0.72610  Biso   1.000  N
  H116     1.0000 0.70680  0.03080  0.72970  Biso   1.000  H
  H117     1.0000 0.70670  0.97430  0.70630  Biso   1.000  H
  C163     1.0000 0.58840  0.99920  0.71930  Biso   1.000  C
  C164     1.0000 0.52490  0.02490  0.74390  Biso   1.000  C
  C165     1.0000 0.43470  0.02700  0.73350  Biso   1.000  C
  H118     1.0000 0.39130  0.04460  0.75030  Biso   1.000  H
  C166     1.0000 0.40800  0.00340  0.69840  Biso   1.000  C
  H119     1.0000 0.34630  0.00490  0.69130  Biso   1.000  H
  C167     1.0000 0.47140  0.97780  0.67380  Biso   1.000  C
  C168     1.0000 0.56160  0.97570  0.68420  Biso   1.000  C
  H120     1.0000 0.60500  0.95810  0.66740  Biso   1.000  H
  O49      1.0000 0.24530  0.66440  0.80040  Biso   1.000  O
  O50      1.0000 0.39720  0.80140  0.63050  Biso   1.000  O
  O51      1.0000 0.11100  0.69930  0.78940  Biso   1.000  O
  O52      1.0000 0.25980  0.83110  0.61710  Biso   1.000  O
  C169     1.0000 0.31570  0.80300  0.63920  Biso   1.000  C
  C170     1.0000 0.19060  0.69540  0.78030  Biso   1.000  C
  C171     1.0000 0.17050  0.77100  0.72330  Biso   1.000  C
  C172     1.0000 0.22250  0.72840  0.74420  Biso   1.000  C
  C173     1.0000 0.30620  0.70920  0.73080  Biso   1.000  C
  H121     1.0000 0.34170  0.68010  0.74510  Biso   1.000  H
  C174     1.0000 0.33800  0.73270  0.69650  Biso   1.000  C
  H122     1.0000 0.39530  0.71960  0.68730  Biso   1.000  H
  C175     1.0000 0.28610  0.77530  0.67560  Biso   1.000  C
  C176     1.0000 0.20240  0.79450  0.68900  Biso   1.000  C
  H123     1.0000 0.16690  0.82360  0.67480  Biso   1.000  H
  N25      1.0000 0.08560  0.79180  0.73590  Biso   1.000  N
  H124     1.0000 0.05730  0.81710  0.71880  Biso   1.000  H
  H125     1.0000 0.09050  0.81500  0.75740  Biso   1.000  H
  N26      1.0000 0.06920  0.75700  0.72610  Biso   1.000  N
  H126     1.0000 0.04320  0.71920  0.72970  Biso   1.000  H
  H127     1.0000 0.04330  0.77570  0.70630  Biso   1.000  H
  C177     1.0000 0.16160  0.75080  0.71930  Biso   1.000  C
  C178     1.0000 0.22510  0.72510  0.74390  Biso   1.000  C
  C179     1.0000 0.31530  0.72300  0.73350  Biso   1.000  C
  H128     1.0000 0.35870  0.70540  0.75030  Biso   1.000  H
  C180     1.0000 0.34200  0.74660  0.69840  Biso   1.000  C
  H129     1.0000 0.40370  0.74510  0.69130  Biso   1.000  H
  C181     1.0000 0.27860  0.77220  0.67380  Biso   1.000  C
  C182     1.0000 0.18840  0.77430  0.68420  Biso   1.000  C
  H130     1.0000 0.14500  0.79190  0.66740  Biso   1.000  H
  O53      1.0000 0.24530  0.16440  0.30040  Biso   1.000  O
  O54      1.0000 0.39720  0.30140  0.13050  Biso   1.000  O
  O55      1.0000 0.11100  0.19930  0.28940  Biso   1.000  O
  O56      1.0000 0.25980  0.33110  0.11710  Biso   1.000  O
  C183     1.0000 0.31570  0.30300  0.13920  Biso   1.000  C
  C184     1.0000 0.19060  0.19540  0.28030  Biso   1.000  C
  C185     1.0000 0.17050  0.27100  0.22330  Biso   1.000  C
  C186     1.0000 0.22250  0.22840  0.24420  Biso   1.000  C
  C187     1.0000 0.30620  0.20920  0.23080  Biso   1.000  C
  H131     1.0000 0.34170  0.18010  0.24510  Biso   1.000  H
  C188     1.0000 0.33800  0.23270  0.19650  Biso   1.000  C
  H132     1.0000 0.39530  0.21960  0.18730  Biso   1.000  H
  C189     1.0000 0.28610  0.27530  0.17560  Biso   1.000  C
  C190     1.0000 0.20240  0.29450  0.18900  Biso   1.000  C
  H133     1.0000 0.16690  0.32360  0.17480  Biso   1.000  H
  N27      1.0000 0.08560  0.29180  0.23590  Biso   1.000  N
  H134     1.0000 0.05730  0.31710  0.21880  Biso   1.000  H
  H135     1.0000 0.09050  0.31500  0.25740  Biso   1.000  H
  N28      1.0000 0.06920  0.25700  0.22610  Biso   1.000  N
  H136     1.0000 0.04320  0.21920  0.22970  Biso   1.000  H
  H137     1.0000 0.04330  0.27570  0.20630  Biso   1.000  H
  C191     1.0000 0.16160  0.25080  0.21930  Biso   1.000  C
  C192     1.0000 0.22510  0.22510  0.24390  Biso   1.000  C
  C193     1.0000 0.31530  0.22300  0.23350  Biso   1.000  C
  H138     1.0000 0.35870  0.20540  0.25030  Biso   1.000  H
  C194     1.0000 0.34200  0.24660  0.19840  Biso   1.000  C
  H139     1.0000 0.40370  0.24510  0.19130  Biso   1.000  H
  C195     1.0000 0.27860  0.27220  0.17380  Biso   1.000  C
  C196     1.0000 0.18840  0.27430  0.18420  Biso   1.000  C
  H140     1.0000 0.14500  0.29190  0.16740  Biso   1.000  H
  O57      1.0000 0.74530  0.66440  0.30040  Biso   1.000  O
  O58      1.0000 0.89720  0.80140  0.13050  Biso   1.000  O
  O59      1.0000 0.61100  0.69930  0.28940  Biso   1.000  O
  O60      1.0000 0.75980  0.83110  0.11710  Biso   1.000  O
  C197     1.0000 0.81570  0.80300  0.13920  Biso   1.000  C
  C198     1.0000 0.69060  0.69540  0.28030  Biso   1.000  C
  C199     1.0000 0.67050  0.77100  0.22330  Biso   1.000  C
  C200     1.0000 0.72250  0.72840  0.24420  Biso   1.000  C
  C201     1.0000 0.80620  0.70920  0.23080  Biso   1.000  C
  H141     1.0000 0.84170  0.68010  0.24510  Biso   1.000  H
  C202     1.0000 0.83800  0.73270  0.19650  Biso   1.000  C
  H142     1.0000 0.89530  0.71960  0.18730  Biso   1.000  H
  C203     1.0000 0.78610  0.77530  0.17560  Biso   1.000  C
  C204     1.0000 0.70240  0.79450  0.18900  Biso   1.000  C
  H143     1.0000 0.66690  0.82360  0.17480  Biso   1.000  H
  N29      1.0000 0.58560  0.79180  0.23590  Biso   1.000  N
  H144     1.0000 0.55730  0.81710  0.21880  Biso   1.000  H
  H145     1.0000 0.59050  0.81500  0.25740  Biso   1.000  H
  N30      1.0000 0.56920  0.75700  0.22610  Biso   1.000  N
  H146     1.0000 0.54320  0.71920  0.22970  Biso   1.000  H
  H147     1.0000 0.54330  0.77570  0.20630  Biso   1.000  H
  C205     1.0000 0.66160  0.75080  0.21930  Biso   1.000  C
  C206     1.0000 0.72510  0.72510  0.24390  Biso   1.000  C
  C207     1.0000 0.81530  0.72300  0.23350  Biso   1.000  C
  H148     1.0000 0.85870  0.70540  0.25030  Biso   1.000  H
  C208     1.0000 0.84200  0.74660  0.19840  Biso   1.000  C
  H149     1.0000 0.90370  0.74510  0.19130  Biso   1.000  H
  C209     1.0000 0.77860  0.77220  0.17380  Biso   1.000  C
  C210     1.0000 0.68840  0.77430  0.18420  Biso   1.000  C
  H150     1.0000 0.64500  0.79190  0.16740  Biso   1.000  H
  O61      1.0000 0.74530  0.16440  0.80040  Biso   1.000  O
  O62      1.0000 0.89720  0.30140  0.63050  Biso   1.000  O
  O63      1.0000 0.61100  0.19930  0.78940  Biso   1.000  O
  O64      1.0000 0.75980  0.33110  0.61710  Biso   1.000  O
  C211     1.0000 0.81570  0.30300  0.63920  Biso   1.000  C
  C212     1.0000 0.69060  0.19540  0.78030  Biso   1.000  C
  C213     1.0000 0.67050  0.27100  0.72330  Biso   1.000  C
  C214     1.0000 0.72250  0.22840  0.74420  Biso   1.000  C
  C215     1.0000 0.80620  0.20920  0.73080  Biso   1.000  C
  H151     1.0000 0.84170  0.18010  0.74510  Biso   1.000  H
  C216     1.0000 0.83800  0.23270  0.69650  Biso   1.000  C
  H152     1.0000 0.89530  0.21960  0.68730  Biso   1.000  H
  C217     1.0000 0.78610  0.27530  0.67560  Biso   1.000  C
  C218     1.0000 0.70240  0.29450  0.68900  Biso   1.000  C
  H153     1.0000 0.66690  0.32360  0.67480  Biso   1.000  H
  N31      1.0000 0.58560  0.29180  0.73590  Biso   1.000  N
  H154     1.0000 0.55730  0.31710  0.71880  Biso   1.000  H
  H155     1.0000 0.59050  0.31500  0.75740  Biso   1.000  H
  N32      1.0000 0.56920  0.25700  0.72610  Biso   1.000  N
  H156     1.0000 0.54320  0.21920  0.72970  Biso   1.000  H
  H157     1.0000 0.54330  0.27570  0.70630  Biso   1.000  H
  C219     1.0000 0.66160  0.25080  0.71930  Biso   1.000  C
  C220     1.0000 0.72510  0.22510  0.74390  Biso   1.000  C
  C221     1.0000 0.81530  0.22300  0.73350  Biso   1.000  C
  H158     1.0000 0.85870  0.20540  0.75030  Biso   1.000  H
  C222     1.0000 0.84200  0.24660  0.69840  Biso   1.000  C
  H159     1.0000 0.90370  0.24510  0.69130  Biso   1.000  H
  C223     1.0000 0.77860  0.27220  0.67380  Biso   1.000  C
  C224     1.0000 0.68840  0.27430  0.68420  Biso   1.000  C
  H160     1.0000 0.64500  0.29190  0.66740  Biso   1.000  H
  In1      1.0000 0.87500  0.37500  0.58384  Biso   1.000  In
  In2      1.0000 0.87500  0.87500  0.08384  Biso   1.000  In
  In3      1.0000 0.37500  0.37500  0.08384  Biso   1.000  In
  In4      1.0000 0.37500  0.87500  0.58384  Biso   1.000  In
  In5      1.0000 0.12500  0.62500  0.83384  Biso   1.000  In
  In6      1.0000 0.12500  0.12500  0.33384  Biso   1.000  In
  In7      1.0000 0.62500  0.62500  0.33384  Biso   1.000  In
  In8      1.0000 0.62500  0.12500  0.83384  Biso   1.000  In
  O65      1.0000 0.99530  0.41440  0.19960  Biso   1.000  O
  O66      1.0000 0.14720  0.55140  0.36950  Biso   1.000  O
  O67      1.0000 0.86100  0.44930  0.21060  Biso   1.000  O
  O68      1.0000 0.00980  0.58110  0.38290  Biso   1.000  O
  C225     1.0000 0.06570  0.55300  0.36080  Biso   1.000  C
  C226     1.0000 0.94060  0.44540  0.21970  Biso   1.000  C
  C227     1.0000 0.92050  0.52100  0.27670  Biso   1.000  C
  C228     1.0000 0.97250  0.47840  0.25580  Biso   1.000  C
  C229     1.0000 0.05620  0.45920  0.26920  Biso   1.000  C
  H161     1.0000 0.09170  0.43010  0.25490  Biso   1.000  H
  C230     1.0000 0.08800  0.48270  0.30350  Biso   1.000  C
  H162     1.0000 0.14530  0.46960  0.31270  Biso   1.000  H
  C231     1.0000 0.03610  0.52530  0.32440  Biso   1.000  C
  C232     1.0000 0.95240  0.54450  0.31100  Biso   1.000  C
  H163     1.0000 0.91690  0.57360  0.32520  Biso   1.000  H
  N33      1.0000 0.83560  0.54180  0.26410  Biso   1.000  N
  H164     1.0000 0.80730  0.56710  0.28120  Biso   1.000  H
  H165     1.0000 0.84050  0.56500  0.24260  Biso   1.000  H
  N34      1.0000 0.81920  0.50700  0.27390  Biso   1.000  N
  H166     1.0000 0.79320  0.46920  0.27030  Biso   1.000  H
  H167     1.0000 0.79330  0.52570  0.29370  Biso   1.000  H
  C233     1.0000 0.91160  0.50080  0.28070  Biso   1.000  C
  C234     1.0000 0.97510  0.47510  0.25610  Biso   1.000  C
  C235     1.0000 0.06530  0.47300  0.26650  Biso   1.000  C
  H168     1.0000 0.10870  0.45540  0.24970  Biso   1.000  H
  C236     1.0000 0.09200  0.49660  0.30160  Biso   1.000  C
  H169     1.0000 0.15370  0.49510  0.30870  Biso   1.000  H
  C237     1.0000 0.02860  0.52220  0.32620  Biso   1.000  C
  C238     1.0000 0.93840  0.52430  0.31580  Biso   1.000  C
  H170     1.0000 0.89500  0.54190  0.33260  Biso   1.000  H
  O69      1.0000 0.99530  0.91440  0.69960  Biso   1.000  O
  O70      1.0000 0.14720  0.05140  0.86950  Biso   1.000  O
  O71      1.0000 0.86100  0.94930  0.71060  Biso   1.000  O
  O72      1.0000 0.00980  0.08110  0.88290  Biso   1.000  O
  C239     1.0000 0.06570  0.05300  0.86080  Biso   1.000  C
  C240     1.0000 0.94060  0.94540  0.71970  Biso   1.000  C
  C241     1.0000 0.92050  0.02100  0.77670  Biso   1.000  C
  C242     1.0000 0.97250  0.97840  0.75580  Biso   1.000  C
  C243     1.0000 0.05620  0.95920  0.76920  Biso   1.000  C
  H171     1.0000 0.09170  0.93010  0.75490  Biso   1.000  H
  C244     1.0000 0.08800  0.98270  0.80350  Biso   1.000  C
  H172     1.0000 0.14530  0.96960  0.81270  Biso   1.000  H
  C245     1.0000 0.03610  0.02530  0.82440  Biso   1.000  C
  C246     1.0000 0.95240  0.04450  0.81100  Biso   1.000  C
  H173     1.0000 0.91690  0.07360  0.82520  Biso   1.000  H
  N35      1.0000 0.83560  0.04180  0.76410  Biso   1.000  N
  H174     1.0000 0.80730  0.06710  0.78120  Biso   1.000  H
  H175     1.0000 0.84050  0.06500  0.74260  Biso   1.000  H
  N36      1.0000 0.81920  0.00700  0.77390  Biso   1.000  N
  H176     1.0000 0.79320  0.96920  0.77030  Biso   1.000  H
  H177     1.0000 0.79330  0.02570  0.79370  Biso   1.000  H
  C247     1.0000 0.91160  0.00080  0.78070  Biso   1.000  C
  C248     1.0000 0.97510  0.97510  0.75610  Biso   1.000  C
  C249     1.0000 0.06530  0.97300  0.76650  Biso   1.000  C
  H178     1.0000 0.10870  0.95540  0.74970  Biso   1.000  H
  C250     1.0000 0.09200  0.99660  0.80160  Biso   1.000  C
  H179     1.0000 0.15370  0.99510  0.80870  Biso   1.000  H
  C251     1.0000 0.02860  0.02220  0.82620  Biso   1.000  C
  C252     1.0000 0.93840  0.02430  0.81580  Biso   1.000  C
  H180     1.0000 0.89500  0.04190  0.83260  Biso   1.000  H
  O73      1.0000 0.49530  0.41440  0.69960  Biso   1.000  O
  O74      1.0000 0.64720  0.55140  0.86950  Biso   1.000  O
  O75      1.0000 0.36100  0.44930  0.71060  Biso   1.000  O
  O76      1.0000 0.50980  0.58110  0.88290  Biso   1.000  O
  C253     1.0000 0.56570  0.55300  0.86080  Biso   1.000  C
  C254     1.0000 0.44060  0.44540  0.71970  Biso   1.000  C
  C255     1.0000 0.42050  0.52100  0.77670  Biso   1.000  C
  C256     1.0000 0.47250  0.47840  0.75580  Biso   1.000  C
  C257     1.0000 0.55620  0.45920  0.76920  Biso   1.000  C
  H181     1.0000 0.59170  0.43010  0.75490  Biso   1.000  H
  C258     1.0000 0.58800  0.48270  0.80350  Biso   1.000  C
  H182     1.0000 0.64530  0.46960  0.81270  Biso   1.000  H
  C259     1.0000 0.53610  0.52530  0.82440  Biso   1.000  C
  C260     1.0000 0.45240  0.54450  0.81100  Biso   1.000  C
  H183     1.0000 0.41690  0.57360  0.82520  Biso   1.000  H
  N37      1.0000 0.33560  0.54180  0.76410  Biso   1.000  N
  H184     1.0000 0.30730  0.56710  0.78120  Biso   1.000  H
  H185     1.0000 0.34050  0.56500  0.74260  Biso   1.000  H
  N38      1.0000 0.31920  0.50700  0.77390  Biso   1.000  N
  H186     1.0000 0.29320  0.46920  0.77030  Biso   1.000  H
  H187     1.0000 0.29330  0.52570  0.79370  Biso   1.000  H
  C261     1.0000 0.41160  0.50080  0.78070  Biso   1.000  C
  C262     1.0000 0.47510  0.47510  0.75610  Biso   1.000  C
  C263     1.0000 0.56530  0.47300  0.76650  Biso   1.000  C
  H188     1.0000 0.60870  0.45540  0.74970  Biso   1.000  H
  C264     1.0000 0.59200  0.49660  0.80160  Biso   1.000  C
  H189     1.0000 0.65370  0.49510  0.80870  Biso   1.000  H
  C265     1.0000 0.52860  0.52220  0.82620  Biso   1.000  C
  C266     1.0000 0.43840  0.52430  0.81580  Biso   1.000  C
  H190     1.0000 0.39500  0.54190  0.83260  Biso   1.000  H
  O77      1.0000 0.49530  0.91440  0.19960  Biso   1.000  O
  O78      1.0000 0.64720  0.05140  0.36950  Biso   1.000  O
  O79      1.0000 0.36100  0.94930  0.21060  Biso   1.000  O
  O80      1.0000 0.50980  0.08110  0.38290  Biso   1.000  O
  C267     1.0000 0.56570  0.05300  0.36080  Biso   1.000  C
  C268     1.0000 0.44060  0.94540  0.21970  Biso   1.000  C
  C269     1.0000 0.42050  0.02100  0.27670  Biso   1.000  C
  C270     1.0000 0.47250  0.97840  0.25580  Biso   1.000  C
  C271     1.0000 0.55620  0.95920  0.26920  Biso   1.000  C
  H191     1.0000 0.59170  0.93010  0.25490  Biso   1.000  H
  C272     1.0000 0.58800  0.98270  0.30350  Biso   1.000  C
  H192     1.0000 0.64530  0.96960  0.31270  Biso   1.000  H
  C273     1.0000 0.53610  0.02530  0.32440  Biso   1.000  C
  C274     1.0000 0.45240  0.04450  0.31100  Biso   1.000  C
  H193     1.0000 0.41690  0.07360  0.32520  Biso   1.000  H
  N39      1.0000 0.33560  0.04180  0.26410  Biso   1.000  N
  H194     1.0000 0.30730  0.06710  0.28120  Biso   1.000  H
  H195     1.0000 0.34050  0.06500  0.24260  Biso   1.000  H
  N40      1.0000 0.31920  0.00700  0.27390  Biso   1.000  N
  H196     1.0000 0.29320  0.96920  0.27030  Biso   1.000  H
  H197     1.0000 0.29330  0.02570  0.29370  Biso   1.000  H
  C275     1.0000 0.41160  0.00080  0.28070  Biso   1.000  C
  C276     1.0000 0.47510  0.97510  0.25610  Biso   1.000  C
  C277     1.0000 0.56530  0.97300  0.26650  Biso   1.000  C
  H198     1.0000 0.60870  0.95540  0.24970  Biso   1.000  H
  C278     1.0000 0.59200  0.99660  0.30160  Biso   1.000  C
  H199     1.0000 0.65370  0.99510  0.30870  Biso   1.000  H
  C279     1.0000 0.52860  0.02220  0.32620  Biso   1.000  C
  C280     1.0000 0.43840  0.02430  0.31580  Biso   1.000  C
  H200     1.0000 0.39500  0.04190  0.33260  Biso   1.000  H
  O81      1.0000 0.75470  0.33560  0.19960  Biso   1.000  O
  O82      1.0000 0.60280  0.19860  0.36950  Biso   1.000  O
  O83      1.0000 0.88900  0.30070  0.21060  Biso   1.000  O
  O84      1.0000 0.74020  0.16890  0.38290  Biso   1.000  O
  C281     1.0000 0.68430  0.19700  0.36080  Biso   1.000  C
  C282     1.0000 0.80940  0.30460  0.21970  Biso   1.000  C
  C283     1.0000 0.82950  0.22900  0.27670  Biso   1.000  C
  C284     1.0000 0.77750  0.27160  0.25580  Biso   1.000  C
  C285     1.0000 0.69380  0.29080  0.26920  Biso   1.000  C
  H201     1.0000 0.65830  0.31990  0.25490  Biso   1.000  H
  C286     1.0000 0.66200  0.26730  0.30350  Biso   1.000  C
  H202     1.0000 0.60470  0.28040  0.31270  Biso   1.000  H
  C287     1.0000 0.71390  0.22470  0.32440  Biso   1.000  C
  C288     1.0000 0.79760  0.20550  0.31100  Biso   1.000  C
  H203     1.0000 0.83310  0.17640  0.32520  Biso   1.000  H
  N41      1.0000 0.91440  0.20820  0.26410  Biso   1.000  N
  H204     1.0000 0.94270  0.18290  0.28120  Biso   1.000  H
  H205     1.0000 0.90950  0.18500  0.24260  Biso   1.000  H
  N42      1.0000 0.93080  0.24300  0.27390  Biso   1.000  N
  H206     1.0000 0.95680  0.28080  0.27030  Biso   1.000  H
  H207     1.0000 0.95670  0.22430  0.29370  Biso   1.000  H
  C289     1.0000 0.83840  0.24920  0.28070  Biso   1.000  C
  C290     1.0000 0.77490  0.27490  0.25610  Biso   1.000  C
  C291     1.0000 0.68470  0.27700  0.26650  Biso   1.000  C
  H208     1.0000 0.64130  0.29460  0.24970  Biso   1.000  H
  C292     1.0000 0.65800  0.25340  0.30160  Biso   1.000  C
  H209     1.0000 0.59630  0.25490  0.30870  Biso   1.000  H
  C293     1.0000 0.72140  0.22780  0.32620  Biso   1.000  C
  C294     1.0000 0.81160  0.22570  0.31580  Biso   1.000  C
  H210     1.0000 0.85500  0.20810  0.33260  Biso   1.000  H
  O85      1.0000 0.75470  0.83560  0.69960  Biso   1.000  O
  O86      1.0000 0.60280  0.69860  0.86950  Biso   1.000  O
  O87      1.0000 0.88900  0.80070  0.71060  Biso   1.000  O
  O88      1.0000 0.74020  0.66890  0.88290  Biso   1.000  O
  C295     1.0000 0.68430  0.69700  0.86080  Biso   1.000  C
  C296     1.0000 0.80940  0.80460  0.71970  Biso   1.000  C
  C297     1.0000 0.82950  0.72900  0.77670  Biso   1.000  C
  C298     1.0000 0.77750  0.77160  0.75580  Biso   1.000  C
  C299     1.0000 0.69380  0.79080  0.76920  Biso   1.000  C
  H211     1.0000 0.65830  0.81990  0.75490  Biso   1.000  H
  C300     1.0000 0.66200  0.76730  0.80350  Biso   1.000  C
  H212     1.0000 0.60470  0.78040  0.81270  Biso   1.000  H
  C301     1.0000 0.71390  0.72470  0.82440  Biso   1.000  C
  C302     1.0000 0.79760  0.70550  0.81100  Biso   1.000  C
  H213     1.0000 0.83310  0.67640  0.82520  Biso   1.000  H
  N43      1.0000 0.91440  0.70820  0.76410  Biso   1.000  N
  H214     1.0000 0.94270  0.68290  0.78120  Biso   1.000  H
  H215     1.0000 0.90950  0.68500  0.74260  Biso   1.000  H
  N44      1.0000 0.93080  0.74300  0.77390  Biso   1.000  N
  H216     1.0000 0.95680  0.78080  0.77030  Biso   1.000  H
  H217     1.0000 0.95670  0.72430  0.79370  Biso   1.000  H
  C303     1.0000 0.83840  0.74920  0.78070  Biso   1.000  C
  C304     1.0000 0.77490  0.77490  0.75610  Biso   1.000  C
  C305     1.0000 0.68470  0.77700  0.76650  Biso   1.000  C
  H218     1.0000 0.64130  0.79460  0.74970  Biso   1.000  H
  C306     1.0000 0.65800  0.75340  0.80160  Biso   1.000  C
  H219     1.0000 0.59630  0.75490  0.80870  Biso   1.000  H
  C307     1.0000 0.72140  0.72780  0.82620  Biso   1.000  C
  C308     1.0000 0.81160  0.72570  0.81580  Biso   1.000  C
  H220     1.0000 0.85500  0.70810  0.83260  Biso   1.000  H
  O89      1.0000 0.25470  0.33560  0.69960  Biso   1.000  O
  O90      1.0000 0.10280  0.19860  0.86950  Biso   1.000  O
  O91      1.0000 0.38900  0.30070  0.71060  Biso   1.000  O
  O92      1.0000 0.24020  0.16890  0.88290  Biso   1.000  O
  C309     1.0000 0.18430  0.19700  0.86080  Biso   1.000  C
  C310     1.0000 0.30940  0.30460  0.71970  Biso   1.000  C
  C311     1.0000 0.32950  0.22900  0.77670  Biso   1.000  C
  C312     1.0000 0.27750  0.27160  0.75580  Biso   1.000  C
  C313     1.0000 0.19380  0.29080  0.76920  Biso   1.000  C
  H221     1.0000 0.15830  0.31990  0.75490  Biso   1.000  H
  C314     1.0000 0.16200  0.26730  0.80350  Biso   1.000  C
  H222     1.0000 0.10470  0.28040  0.81270  Biso   1.000  H
  C315     1.0000 0.21390  0.22470  0.82440  Biso   1.000  C
  C316     1.0000 0.29760  0.20550  0.81100  Biso   1.000  C
  H223     1.0000 0.33310  0.17640  0.82520  Biso   1.000  H
  N45      1.0000 0.41440  0.20820  0.76410  Biso   1.000  N
  H224     1.0000 0.44270  0.18290  0.78120  Biso   1.000  H
  H225     1.0000 0.40950  0.18500  0.74260  Biso   1.000  H
  N46      1.0000 0.43080  0.24300  0.77390  Biso   1.000  N
  H226     1.0000 0.45680  0.28080  0.77030  Biso   1.000  H
  H227     1.0000 0.45670  0.22430  0.79370  Biso   1.000  H
  C317     1.0000 0.33840  0.24920  0.78070  Biso   1.000  C
  C318     1.0000 0.27490  0.27490  0.75610  Biso   1.000  C
  C319     1.0000 0.18470  0.27700  0.76650  Biso   1.000  C
  H228     1.0000 0.14130  0.29460  0.74970  Biso   1.000  H
  C320     1.0000 0.15800  0.25340  0.80160  Biso   1.000  C
  H229     1.0000 0.09630  0.25490  0.80870  Biso   1.000  H
  C321     1.0000 0.22140  0.22780  0.82620  Biso   1.000  C
  C322     1.0000 0.31160  0.22570  0.81580  Biso   1.000  C
  H230     1.0000 0.35500  0.20810  0.83260  Biso   1.000  H
  O93      1.0000 0.25470  0.83560  0.19960  Biso   1.000  O
  O94      1.0000 0.10280  0.69860  0.36950  Biso   1.000  O
  O95      1.0000 0.38900  0.80070  0.21060  Biso   1.000  O
  O96      1.0000 0.24020  0.66890  0.38290  Biso   1.000  O
  C323     1.0000 0.18430  0.69700  0.36080  Biso   1.000  C
  C324     1.0000 0.30940  0.80460  0.21970  Biso   1.000  C
  C325     1.0000 0.32950  0.72900  0.27670  Biso   1.000  C
  C326     1.0000 0.27750  0.77160  0.25580  Biso   1.000  C
  C327     1.0000 0.19380  0.79080  0.26920  Biso   1.000  C
  H231     1.0000 0.15830  0.81990  0.25490  Biso   1.000  H
  C328     1.0000 0.16200  0.76730  0.30350  Biso   1.000  C
  H232     1.0000 0.10470  0.78040  0.31270  Biso   1.000  H
  C329     1.0000 0.21390  0.72470  0.32440  Biso   1.000  C
  C330     1.0000 0.29760  0.70550  0.31100  Biso   1.000  C
  H233     1.0000 0.33310  0.67640  0.32520  Biso   1.000  H
  N47      1.0000 0.41440  0.70820  0.26410  Biso   1.000  N
  H234     1.0000 0.44270  0.68290  0.28120  Biso   1.000  H
  H235     1.0000 0.40950  0.68500  0.24260  Biso   1.000  H
  N48      1.0000 0.43080  0.74300  0.27390  Biso   1.000  N
  H236     1.0000 0.45680  0.78080  0.27030  Biso   1.000  H
  H237     1.0000 0.45670  0.72430  0.29370  Biso   1.000  H
  C331     1.0000 0.33840  0.74920  0.28070  Biso   1.000  C
  C332     1.0000 0.27490  0.77490  0.25610  Biso   1.000  C
  C333     1.0000 0.18470  0.77700  0.26650  Biso   1.000  C
  H238     1.0000 0.14130  0.79460  0.24970  Biso   1.000  H
  C334     1.0000 0.15800  0.75340  0.30160  Biso   1.000  C
  H239     1.0000 0.09630  0.75490  0.30870  Biso   1.000  H
  C335     1.0000 0.22140  0.72780  0.32620  Biso   1.000  C
  C336     1.0000 0.31160  0.72570  0.31580  Biso   1.000  C
  H240     1.0000 0.35500  0.70810  0.33260  Biso   1.000  H
  O97      1.0000 0.24530  0.58560  0.44960  Biso   1.000  O
  O98      1.0000 0.39720  0.44860  0.61950  Biso   1.000  O
  O99      1.0000 0.11100  0.55070  0.46060  Biso   1.000  O
  O100     1.0000 0.25980  0.41890  0.63290  Biso   1.000  O
  C337     1.0000 0.31570  0.44700  0.61080  Biso   1.000  C
  C338     1.0000 0.19060  0.55460  0.46970  Biso   1.000  C
  C339     1.0000 0.17050  0.47900  0.52670  Biso   1.000  C
  C340     1.0000 0.22250  0.52160  0.50580  Biso   1.000  C
  C341     1.0000 0.30620  0.54080  0.51920  Biso   1.000  C
  H241     1.0000 0.34170  0.56990  0.50490  Biso   1.000  H
  C342     1.0000 0.33800  0.51730  0.55350  Biso   1.000  C
  H242     1.0000 0.39530  0.53040  0.56270  Biso   1.000  H
  C343     1.0000 0.28610  0.47470  0.57440  Biso   1.000  C
  C344     1.0000 0.20240  0.45550  0.56100  Biso   1.000  C
  H243     1.0000 0.16690  0.42640  0.57520  Biso   1.000  H
  N49      1.0000 0.08560  0.45820  0.51410  Biso   1.000  N
  H244     1.0000 0.05730  0.43290  0.53120  Biso   1.000  H
  H245     1.0000 0.09050  0.43500  0.49260  Biso   1.000  H
  N50      1.0000 0.06920  0.49300  0.52390  Biso   1.000  N
  H246     1.0000 0.04320  0.53080  0.52030  Biso   1.000  H
  H247     1.0000 0.04330  0.47430  0.54370  Biso   1.000  H
  C345     1.0000 0.16160  0.49920  0.53070  Biso   1.000  C
  C346     1.0000 0.22510  0.52490  0.50610  Biso   1.000  C
  C347     1.0000 0.31530  0.52700  0.51650  Biso   1.000  C
  H248     1.0000 0.35870  0.54460  0.49970  Biso   1.000  H
  C348     1.0000 0.34200  0.50340  0.55160  Biso   1.000  C
  H249     1.0000 0.40370  0.50490  0.55870  Biso   1.000  H
  C349     1.0000 0.27860  0.47780  0.57620  Biso   1.000  C
  C350     1.0000 0.18840  0.47570  0.56580  Biso   1.000  C
  H250     1.0000 0.14500  0.45810  0.58260  Biso   1.000  H
  O101     1.0000 0.24530  0.08560  0.94960  Biso   1.000  O
  O102     1.0000 0.39720  0.94860  0.11950  Biso   1.000  O
  O103     1.0000 0.11100  0.05070  0.96060  Biso   1.000  O
  O104     1.0000 0.25980  0.91890  0.13290  Biso   1.000  O
  C351     1.0000 0.31570  0.94700  0.11080  Biso   1.000  C
  C352     1.0000 0.19060  0.05460  0.96970  Biso   1.000  C
  C353     1.0000 0.17050  0.97900  0.02670  Biso   1.000  C
  C354     1.0000 0.22250  0.02160  0.00580  Biso   1.000  C
  C355     1.0000 0.30620  0.04080  0.01920  Biso   1.000  C
  H251     1.0000 0.34170  0.06990  0.00490  Biso   1.000  H
  C356     1.0000 0.33800  0.01730  0.05350  Biso   1.000  C
  H252     1.0000 0.39530  0.03040  0.06270  Biso   1.000  H
  C357     1.0000 0.28610  0.97470  0.07440  Biso   1.000  C
  C358     1.0000 0.20240  0.95550  0.06100  Biso   1.000  C
  H253     1.0000 0.16690  0.92640  0.07520  Biso   1.000  H
  N51      1.0000 0.08560  0.95820  0.01410  Biso   1.000  N
  H254     1.0000 0.05730  0.93290  0.03120  Biso   1.000  H
  H255     1.0000 0.09050  0.93500  0.99260  Biso   1.000  H
  N52      1.0000 0.06920  0.99300  0.02390  Biso   1.000  N
  H256     1.0000 0.04320  0.03080  0.02030  Biso   1.000  H
  H257     1.0000 0.04330  0.97430  0.04370  Biso   1.000  H
  C359     1.0000 0.16160  0.99920  0.03070  Biso   1.000  C
  C360     1.0000 0.22510  0.02490  0.00610  Biso   1.000  C
  C361     1.0000 0.31530  0.02700  0.01650  Biso   1.000  C
  H258     1.0000 0.35870  0.04460  0.99970  Biso   1.000  H
  C362     1.0000 0.34200  0.00340  0.05160  Biso   1.000  C
  H259     1.0000 0.40370  0.00490  0.05870  Biso   1.000  H
  C363     1.0000 0.27860  0.97780  0.07620  Biso   1.000  C
  C364     1.0000 0.18840  0.97570  0.06580  Biso   1.000  C
  H260     1.0000 0.14500  0.95810  0.08260  Biso   1.000  H
  O105     1.0000 0.74530  0.58560  0.94960  Biso   1.000  O
  O106     1.0000 0.89720  0.44860  0.11950  Biso   1.000  O
  O107     1.0000 0.61100  0.55070  0.96060  Biso   1.000  O
  O108     1.0000 0.75980  0.41890  0.13290  Biso   1.000  O
  C365     1.0000 0.81570  0.44700  0.11080  Biso   1.000  C
  C366     1.0000 0.69060  0.55460  0.96970  Biso   1.000  C
  C367     1.0000 0.67050  0.47900  0.02670  Biso   1.000  C
  C368     1.0000 0.72250  0.52160  0.00580  Biso   1.000  C
  C369     1.0000 0.80620  0.54080  0.01920  Biso   1.000  C
  H261     1.0000 0.84170  0.56990  0.00490  Biso   1.000  H
  C370     1.0000 0.83800  0.51730  0.05350  Biso   1.000  C
  H262     1.0000 0.89530  0.53040  0.06270  Biso   1.000  H
  C371     1.0000 0.78610  0.47470  0.07440  Biso   1.000  C
  C372     1.0000 0.70240  0.45550  0.06100  Biso   1.000  C
  H263     1.0000 0.66690  0.42640  0.07520  Biso   1.000  H
  N53      1.0000 0.58560  0.45820  0.01410  Biso   1.000  N
  H264     1.0000 0.55730  0.43290  0.03120  Biso   1.000  H
  H265     1.0000 0.59050  0.43500  0.99260  Biso   1.000  H
  N54      1.0000 0.56920  0.49300  0.02390  Biso   1.000  N
  H266     1.0000 0.54320  0.53080  0.02030  Biso   1.000  H
  H267     1.0000 0.54330  0.47430  0.04370  Biso   1.000  H
  C373     1.0000 0.66160  0.49920  0.03070  Biso   1.000  C
  C374     1.0000 0.72510  0.52490  0.00610  Biso   1.000  C
  C375     1.0000 0.81530  0.52700  0.01650  Biso   1.000  C
  H268     1.0000 0.85870  0.54460  0.99970  Biso   1.000  H
  C376     1.0000 0.84200  0.50340  0.05160  Biso   1.000  C
  H269     1.0000 0.90370  0.50490  0.05870  Biso   1.000  H
  C377     1.0000 0.77860  0.47780  0.07620  Biso   1.000  C
  C378     1.0000 0.68840  0.47570  0.06580  Biso   1.000  C
  H270     1.0000 0.64500  0.45810  0.08260  Biso   1.000  H
  O109     1.0000 0.74530  0.08560  0.44960  Biso   1.000  O
  O110     1.0000 0.89720  0.94860  0.61950  Biso   1.000  O
  O111     1.0000 0.61100  0.05070  0.46060  Biso   1.000  O
  O112     1.0000 0.75980  0.91890  0.63290  Biso   1.000  O
  C379     1.0000 0.81570  0.94700  0.61080  Biso   1.000  C
  C380     1.0000 0.69060  0.05460  0.46970  Biso   1.000  C
  C381     1.0000 0.67050  0.97900  0.52670  Biso   1.000  C
  C382     1.0000 0.72250  0.02160  0.50580  Biso   1.000  C
  C383     1.0000 0.80620  0.04080  0.51920  Biso   1.000  C
  H271     1.0000 0.84170  0.06990  0.50490  Biso   1.000  H
  C384     1.0000 0.83800  0.01730  0.55350  Biso   1.000  C
  H272     1.0000 0.89530  0.03040  0.56270  Biso   1.000  H
  C385     1.0000 0.78610  0.97470  0.57440  Biso   1.000  C
  C386     1.0000 0.70240  0.95550  0.56100  Biso   1.000  C
  H273     1.0000 0.66690  0.92640  0.57520  Biso   1.000  H
  N55      1.0000 0.58560  0.95820  0.51410  Biso   1.000  N
  H274     1.0000 0.55730  0.93290  0.53120  Biso   1.000  H
  H275     1.0000 0.59050  0.93500  0.49260  Biso   1.000  H
  N56      1.0000 0.56920  0.99300  0.52390  Biso   1.000  N
  H276     1.0000 0.54320  0.03080  0.52030  Biso   1.000  H
  H277     1.0000 0.54330  0.97430  0.54370  Biso   1.000  H
  C387     1.0000 0.66160  0.99920  0.53070  Biso   1.000  C
  C388     1.0000 0.72510  0.02490  0.50610  Biso   1.000  C
  C389     1.0000 0.81530  0.02700  0.51650  Biso   1.000  C
  H278     1.0000 0.85870  0.04460  0.49970  Biso   1.000  H
  C390     1.0000 0.84200  0.00340  0.55160  Biso   1.000  C
  H279     1.0000 0.90370  0.00490  0.55870  Biso   1.000  H
  C391     1.0000 0.77860  0.97780  0.57620  Biso   1.000  C
  C392     1.0000 0.68840  0.97570  0.56580  Biso   1.000  C
  H280     1.0000 0.64500  0.95810  0.58260  Biso   1.000  H
  O113     1.0000 0.00470  0.66440  0.44960  Biso   1.000  O
  O114     1.0000 0.85280  0.80140  0.61950  Biso   1.000  O
  O115     1.0000 0.13900  0.69930  0.46060  Biso   1.000  O
  O116     1.0000 0.99020  0.83110  0.63290  Biso   1.000  O
  C393     1.0000 0.93430  0.80300  0.61080  Biso   1.000  C
  C394     1.0000 0.05940  0.69540  0.46970  Biso   1.000  C
  C395     1.0000 0.07950  0.77100  0.52670  Biso   1.000  C
  C396     1.0000 0.02750  0.72840  0.50580  Biso   1.000  C
  C397     1.0000 0.94380  0.70920  0.51920  Biso   1.000  C
  H281     1.0000 0.90830  0.68010  0.50490  Biso   1.000  H
  C398     1.0000 0.91200  0.73270  0.55350  Biso   1.000  C
  H282     1.0000 0.85470  0.71960  0.56270  Biso   1.000  H
  C399     1.0000 0.96390  0.77530  0.57440  Biso   1.000  C
  C400     1.0000 0.04760  0.79450  0.56100  Biso   1.000  C
  H283     1.0000 0.08310  0.82360  0.57520  Biso   1.000  H
  N57      1.0000 0.16440  0.79180  0.51410  Biso   1.000  N
  H284     1.0000 0.19270  0.81710  0.53120  Biso   1.000  H
  H285     1.0000 0.15950  0.81500  0.49260  Biso   1.000  H
  N58      1.0000 0.18080  0.75700  0.52390  Biso   1.000  N
  H286     1.0000 0.20680  0.71920  0.52030  Biso   1.000  H
  H287     1.0000 0.20670  0.77570  0.54370  Biso   1.000  H
  C401     1.0000 0.08840  0.75080  0.53070  Biso   1.000  C
  C402     1.0000 0.02490  0.72510  0.50610  Biso   1.000  C
  C403     1.0000 0.93470  0.72300  0.51650  Biso   1.000  C
  H288     1.0000 0.89130  0.70540  0.49970  Biso   1.000  H
  C404     1.0000 0.90800  0.74660  0.55160  Biso   1.000  C
  H289     1.0000 0.84630  0.74510  0.55870  Biso   1.000  H
  C405     1.0000 0.97140  0.77220  0.57620  Biso   1.000  C
  C406     1.0000 0.06160  0.77430  0.56580  Biso   1.000  C
  H290     1.0000 0.10500  0.79190  0.58260  Biso   1.000  H
  O117     1.0000 0.00470  0.16440  0.94960  Biso   1.000  O
  O118     1.0000 0.85280  0.30140  0.11950  Biso   1.000  O
  O119     1.0000 0.13900  0.19930  0.96060  Biso   1.000  O
  O120     1.0000 0.99020  0.33110  0.13290  Biso   1.000  O
  C407     1.0000 0.93430  0.30300  0.11080  Biso   1.000  C
  C408     1.0000 0.05940  0.19540  0.96970  Biso   1.000  C
  C409     1.0000 0.07950  0.27100  0.02670  Biso   1.000  C
  C410     1.0000 0.02750  0.22840  0.00580  Biso   1.000  C
  C411     1.0000 0.94380  0.20920  0.01920  Biso   1.000  C
  H291     1.0000 0.90830  0.18010  0.00490  Biso   1.000  H
  C412     1.0000 0.91200  0.23270  0.05350  Biso   1.000  C
  H292     1.0000 0.85470  0.21960  0.06270  Biso   1.000  H
  C413     1.0000 0.96390  0.27530  0.07440  Biso   1.000  C
  C414     1.0000 0.04760  0.29450  0.06100  Biso   1.000  C
  H293     1.0000 0.08310  0.32360  0.07520  Biso   1.000  H
  N59      1.0000 0.16440  0.29180  0.01410  Biso   1.000  N
  H294     1.0000 0.19270  0.31710  0.03120  Biso   1.000  H
  H295     1.0000 0.15950  0.31500  0.99260  Biso   1.000  H
  N60      1.0000 0.18080  0.25700  0.02390  Biso   1.000  N
  H296     1.0000 0.20680  0.21920  0.02030  Biso   1.000  H
  H297     1.0000 0.20670  0.27570  0.04370  Biso   1.000  H
  C415     1.0000 0.08840  0.25080  0.03070  Biso   1.000  C
  C416     1.0000 0.02490  0.22510  0.00610  Biso   1.000  C
  C417     1.0000 0.93470  0.22300  0.01650  Biso   1.000  C
  H298     1.0000 0.89130  0.20540  0.99970  Biso   1.000  H
  C418     1.0000 0.90800  0.24660  0.05160  Biso   1.000  C
  H299     1.0000 0.84630  0.24510  0.05870  Biso   1.000  H
  C419     1.0000 0.97140  0.27220  0.07620  Biso   1.000  C
  C420     1.0000 0.06160  0.27430  0.06580  Biso   1.000  C
  H300     1.0000 0.10500  0.29190  0.08260  Biso   1.000  H
  O121     1.0000 0.50470  0.66440  0.94960  Biso   1.000  O
  O122     1.0000 0.35280  0.80140  0.11950  Biso   1.000  O
  O123     1.0000 0.63900  0.69930  0.96060  Biso   1.000  O
  O124     1.0000 0.49020  0.83110  0.13290  Biso   1.000  O
  C421     1.0000 0.43430  0.80300  0.11080  Biso   1.000  C
  C422     1.0000 0.55940  0.69540  0.96970  Biso   1.000  C
  C423     1.0000 0.57950  0.77100  0.02670  Biso   1.000  C
  C424     1.0000 0.52750  0.72840  0.00580  Biso   1.000  C
  C425     1.0000 0.44380  0.70920  0.01920  Biso   1.000  C
  H301     1.0000 0.40830  0.68010  0.00490  Biso   1.000  H
  C426     1.0000 0.41200  0.73270  0.05350  Biso   1.000  C
  H302     1.0000 0.35470  0.71960  0.06270  Biso   1.000  H
  C427     1.0000 0.46390  0.77530  0.07440  Biso   1.000  C
  C428     1.0000 0.54760  0.79450  0.06100  Biso   1.000  C
  H303     1.0000 0.58310  0.82360  0.07520  Biso   1.000  H
  N61      1.0000 0.66440  0.79180  0.01410  Biso   1.000  N
  H304     1.0000 0.69270  0.81710  0.03120  Biso   1.000  H
  H305     1.0000 0.65950  0.81500  0.99260  Biso   1.000  H
  N62      1.0000 0.68080  0.75700  0.02390  Biso   1.000  N
  H306     1.0000 0.70680  0.71920  0.02030  Biso   1.000  H
  H307     1.0000 0.70670  0.77570  0.04370  Biso   1.000  H
  C429     1.0000 0.58840  0.75080  0.03070  Biso   1.000  C
  C430     1.0000 0.52490  0.72510  0.00610  Biso   1.000  C
  C431     1.0000 0.43470  0.72300  0.01650  Biso   1.000  C
  H308     1.0000 0.39130  0.70540  0.99970  Biso   1.000  H
  C432     1.0000 0.40800  0.74660  0.05160  Biso   1.000  C
  H309     1.0000 0.34630  0.74510  0.05870  Biso   1.000  H
  C433     1.0000 0.47140  0.77220  0.07620  Biso   1.000  C
  C434     1.0000 0.56160  0.77430  0.06580  Biso   1.000  C
  H310     1.0000 0.60500  0.79190  0.08260  Biso   1.000  H
  O125     1.0000 0.50470  0.16440  0.44960  Biso   1.000  O
  O126     1.0000 0.35280  0.30140  0.61950  Biso   1.000  O
  O127     1.0000 0.63900  0.19930  0.46060  Biso   1.000  O
  O128     1.0000 0.49020  0.33110  0.63290  Biso   1.000  O
  C435     1.0000 0.43430  0.30300  0.61080  Biso   1.000  C
  C436     1.0000 0.55940  0.19540  0.46970  Biso   1.000  C
  C437     1.0000 0.57950  0.27100  0.52670  Biso   1.000  C
  C438     1.0000 0.52750  0.22840  0.50580  Biso   1.000  C
  C439     1.0000 0.44380  0.20920  0.51920  Biso   1.000  C
  H311     1.0000 0.40830  0.18010  0.50490  Biso   1.000  H
  C440     1.0000 0.41200  0.23270  0.55350  Biso   1.000  C
  H312     1.0000 0.35470  0.21960  0.56270  Biso   1.000  H
  C441     1.0000 0.46390  0.27530  0.57440  Biso   1.000  C
  C442     1.0000 0.54760  0.29450  0.56100  Biso   1.000  C
  H313     1.0000 0.58310  0.32360  0.57520  Biso   1.000  H
  N63      1.0000 0.66440  0.29180  0.51410  Biso   1.000  N
  H314     1.0000 0.69270  0.31710  0.53120  Biso   1.000  H
  H315     1.0000 0.65950  0.31500  0.49260  Biso   1.000  H
  N64      1.0000 0.68080  0.25700  0.52390  Biso   1.000  N
  H316     1.0000 0.70680  0.21920  0.52030  Biso   1.000  H
  H317     1.0000 0.70670  0.27570  0.54370  Biso   1.000  H
  C443     1.0000 0.58840  0.25080  0.53070  Biso   1.000  C
  C444     1.0000 0.52490  0.22510  0.50610  Biso   1.000  C
  C445     1.0000 0.43470  0.22300  0.51650  Biso   1.000  C
  H318     1.0000 0.39130  0.20540  0.49970  Biso   1.000  H
  C446     1.0000 0.40800  0.24660  0.55160  Biso   1.000  C
  H319     1.0000 0.34630  0.24510  0.55870  Biso   1.000  H
  C447     1.0000 0.47140  0.27220  0.57620  Biso   1.000  C
  C448     1.0000 0.56160  0.27430  0.56580  Biso   1.000  C
  H320     1.0000 0.60500  0.29190  0.58260  Biso   1.000  H
  In9      1.0000 0.87500  0.37500  0.16616  Biso   1.000  In
  In10     1.0000 0.87500  0.87500  0.66616  Biso   1.000  In
  In11     1.0000 0.37500  0.37500  0.66616  Biso   1.000  In
  In12     1.0000 0.37500  0.87500  0.16616  Biso   1.000  In
  In13     1.0000 0.12500  0.62500  0.41616  Biso   1.000  In
  In14     1.0000 0.12500  0.12500  0.91616  Biso   1.000  In
  In15     1.0000 0.62500  0.62500  0.91616  Biso   1.000  In
  In16     1.0000 0.62500  0.12500  0.41616  Biso   1.000  In
