data_image0
_cell_length_a       14.9
_cell_length_b       21.816
_cell_length_c       34.796
_cell_angle_alpha    90
_cell_angle_beta     90
_cell_angle_gamma    90

_symmetry_space_group_name_H-M    "P 1"
_symmetry_int_tables_number       1

loop_
  _symmetry_equiv_pos_as_xyz
  'x, y, z'

loop_
  _atom_site_label
  _atom_site_occupancy
  _atom_site_fract_x
  _atom_site_fract_y
  _atom_site_fract_z
  _atom_site_thermal_displace_type
  _atom_site_B_iso_or_equiv
  _atom_site_type_symbol
  O1       1.0000 0.39640  0.30400  0.12690  Biso   1.000  O
  O2       1.0000 0.26040  0.33070  0.11310  Biso   1.000  O
  O3       1.0000 0.39190  0.44610  0.03530  Biso   1.000  O
  O4       1.0000 0.25620  0.41520  0.04740  Biso   1.000  O
  C1       1.0000 0.31230  0.44510  0.02570  Biso   1.000  C
  C2       1.0000 0.27630  0.47990  0.99100  Biso   1.000  C
  C3       1.0000 0.19000  0.46520  0.97850  Biso   1.000  C
  C4       1.0000 0.32750  0.51970  0.96990  Biso   1.000  C
  H1       1.0000 0.15220  0.43890  0.99300  Biso   1.000  H
  C5       1.0000 0.16140  0.49050  0.94390  Biso   1.000  C
  N1       1.0000 0.41300  0.54240  0.98220  Biso   1.000  N
  C6       1.0000 0.29500  0.54420  0.93710  Biso   1.000  C
  H2       1.0000 0.10370  0.47950  0.93450  Biso   1.000  H
  C7       1.0000 0.21270  0.53110  0.92250  Biso   1.000  C
  H3       1.0000 0.44070  0.57060  0.96860  Biso   1.000  H
  H4       1.0000 0.43760  0.52820  0.00330  Biso   1.000  H
  H5       1.0000 0.33190  0.57230  0.92350  Biso   1.000  H
  C8       1.0000 0.18530  0.55280  0.88480  Biso   1.000  C
  N2       1.0000 0.07700  0.25600  0.21640  Biso   1.000  N
  H6       1.0000 0.04980  0.27600  0.19770  Biso   1.000  H
  H7       1.0000 0.04640  0.24360  0.23650  Biso   1.000  H
  C9       1.0000 0.27730  0.26890  0.16970  Biso   1.000  C
  C10      1.0000 0.18720  0.27200  0.18000  Biso   1.000  C
  H8       1.0000 0.14530  0.29140  0.16340  Biso   1.000  H
  C11      1.0000 0.15860  0.24670  0.21450  Biso   1.000  C
  C12      1.0000 0.22000  0.21830  0.23880  Biso   1.000  C
  H9       1.0000 0.35200  0.19570  0.24500  Biso   1.000  H
  H10      1.0000 0.40020  0.23840  0.18690  Biso   1.000  H
  O5       1.0000 0.39640  0.80400  0.62690  Biso   1.000  O
  O6       1.0000 0.26040  0.83070  0.61310  Biso   1.000  O
  O7       1.0000 0.39190  0.94610  0.53530  Biso   1.000  O
  O8       1.0000 0.25620  0.91520  0.54740  Biso   1.000  O
  C13      1.0000 0.31230  0.94510  0.52570  Biso   1.000  C
  C14      1.0000 0.27630  0.97990  0.49100  Biso   1.000  C
  C15      1.0000 0.19000  0.96520  0.47850  Biso   1.000  C
  C16      1.0000 0.32750  0.01970  0.46990  Biso   1.000  C
  H11      1.0000 0.15220  0.93890  0.49300  Biso   1.000  H
  C17      1.0000 0.16140  0.99050  0.44390  Biso   1.000  C
  N3       1.0000 0.41300  0.04240  0.48220  Biso   1.000  N
  C18      1.0000 0.29500  0.04420  0.43710  Biso   1.000  C
  H12      1.0000 0.10370  0.97950  0.43450  Biso   1.000  H
  C19      1.0000 0.21270  0.03110  0.42250  Biso   1.000  C
  H13      1.0000 0.44070  0.07060  0.46860  Biso   1.000  H
  H14      1.0000 0.43760  0.02820  0.50330  Biso   1.000  H
  H15      1.0000 0.33190  0.07230  0.42350  Biso   1.000  H
  C20      1.0000 0.18530  0.05280  0.38480  Biso   1.000  C
  N4       1.0000 0.07700  0.75600  0.71640  Biso   1.000  N
  H16      1.0000 0.04980  0.77600  0.69770  Biso   1.000  H
  H17      1.0000 0.04640  0.74360  0.73650  Biso   1.000  H
  C21      1.0000 0.27730  0.76890  0.66970  Biso   1.000  C
  C22      1.0000 0.18720  0.77200  0.68000  Biso   1.000  C
  H18      1.0000 0.14530  0.79140  0.66340  Biso   1.000  H
  C23      1.0000 0.15860  0.74670  0.71450  Biso   1.000  C
  C24      1.0000 0.22000  0.71830  0.73880  Biso   1.000  C
  H19      1.0000 0.35200  0.69570  0.74500  Biso   1.000  H
  H20      1.0000 0.40020  0.73840  0.68690  Biso   1.000  H
  O9       1.0000 0.89640  0.30400  0.62690  Biso   1.000  O
  O10      1.0000 0.76040  0.33070  0.61310  Biso   1.000  O
  O11      1.0000 0.89190  0.44610  0.53530  Biso   1.000  O
  O12      1.0000 0.75620  0.41520  0.54740  Biso   1.000  O
  C25      1.0000 0.81230  0.44510  0.52570  Biso   1.000  C
  C26      1.0000 0.77630  0.47990  0.49100  Biso   1.000  C
  C27      1.0000 0.69000  0.46520  0.47850  Biso   1.000  C
  C28      1.0000 0.82750  0.51970  0.46990  Biso   1.000  C
  H21      1.0000 0.65220  0.43890  0.49300  Biso   1.000  H
  C29      1.0000 0.66140  0.49050  0.44390  Biso   1.000  C
  N5       1.0000 0.91300  0.54240  0.48220  Biso   1.000  N
  C30      1.0000 0.79500  0.54420  0.43710  Biso   1.000  C
  H22      1.0000 0.60370  0.47950  0.43450  Biso   1.000  H
  C31      1.0000 0.71270  0.53110  0.42250  Biso   1.000  C
  H23      1.0000 0.94070  0.57060  0.46860  Biso   1.000  H
  H24      1.0000 0.93760  0.52820  0.50330  Biso   1.000  H
  H25      1.0000 0.83190  0.57230  0.42350  Biso   1.000  H
  C32      1.0000 0.68530  0.55280  0.38480  Biso   1.000  C
  N6       1.0000 0.57700  0.25600  0.71640  Biso   1.000  N
  H26      1.0000 0.54980  0.27600  0.69770  Biso   1.000  H
  H27      1.0000 0.54640  0.24360  0.73650  Biso   1.000  H
  C33      1.0000 0.77730  0.26890  0.66970  Biso   1.000  C
  C34      1.0000 0.68720  0.27200  0.68000  Biso   1.000  C
  H28      1.0000 0.64530  0.29140  0.66340  Biso   1.000  H
  C35      1.0000 0.65860  0.24670  0.71450  Biso   1.000  C
  C36      1.0000 0.72000  0.21830  0.73880  Biso   1.000  C
  H29      1.0000 0.85200  0.19570  0.74500  Biso   1.000  H
  H30      1.0000 0.90020  0.23840  0.68690  Biso   1.000  H
  O13      1.0000 0.89640  0.80400  0.12690  Biso   1.000  O
  O14      1.0000 0.76040  0.83070  0.11310  Biso   1.000  O
  O15      1.0000 0.89190  0.94610  0.03530  Biso   1.000  O
  O16      1.0000 0.75620  0.91520  0.04740  Biso   1.000  O
  C37      1.0000 0.81230  0.94510  0.02570  Biso   1.000  C
  C38      1.0000 0.77630  0.97990  0.99100  Biso   1.000  C
  C39      1.0000 0.69000  0.96520  0.97850  Biso   1.000  C
  C40      1.0000 0.82750  0.01970  0.96990  Biso   1.000  C
  H31      1.0000 0.65220  0.93890  0.99300  Biso   1.000  H
  C41      1.0000 0.66140  0.99050  0.94390  Biso   1.000  C
  N7       1.0000 0.91300  0.04240  0.98220  Biso   1.000  N
  C42      1.0000 0.79500  0.04420  0.93710  Biso   1.000  C
  H32      1.0000 0.60370  0.97950  0.93450  Biso   1.000  H
  C43      1.0000 0.71270  0.03110  0.92250  Biso   1.000  C
  H33      1.0000 0.94070  0.07060  0.96860  Biso   1.000  H
  H34      1.0000 0.93760  0.02820  0.00330  Biso   1.000  H
  H35      1.0000 0.83190  0.07230  0.92350  Biso   1.000  H
  C44      1.0000 0.68530  0.05280  0.88480  Biso   1.000  C
  N8       1.0000 0.57700  0.75600  0.21640  Biso   1.000  N
  H36      1.0000 0.54980  0.77600  0.19770  Biso   1.000  H
  H37      1.0000 0.54640  0.74360  0.23650  Biso   1.000  H
  C45      1.0000 0.77730  0.76890  0.16970  Biso   1.000  C
  C46      1.0000 0.68720  0.77200  0.18000  Biso   1.000  C
  H38      1.0000 0.64530  0.79140  0.16340  Biso   1.000  H
  C47      1.0000 0.65860  0.74670  0.21450  Biso   1.000  C
  C48      1.0000 0.72000  0.71830  0.23880  Biso   1.000  C
  H39      1.0000 0.85200  0.69570  0.24500  Biso   1.000  H
  H40      1.0000 0.90020  0.73840  0.18690  Biso   1.000  H
  O17      1.0000 0.35360  0.44600  0.12690  Biso   1.000  O
  O18      1.0000 0.48960  0.41930  0.11310  Biso   1.000  O
  O19      1.0000 0.35810  0.30390  0.03530  Biso   1.000  O
  O20      1.0000 0.49380  0.33480  0.04740  Biso   1.000  O
  C49      1.0000 0.43770  0.30490  0.02570  Biso   1.000  C
  C50      1.0000 0.47370  0.27010  0.99100  Biso   1.000  C
  C51      1.0000 0.56000  0.28480  0.97850  Biso   1.000  C
  C52      1.0000 0.42250  0.23030  0.96990  Biso   1.000  C
  H41      1.0000 0.59780  0.31110  0.99300  Biso   1.000  H
  C53      1.0000 0.58860  0.25950  0.94390  Biso   1.000  C
  N9       1.0000 0.33700  0.20760  0.98220  Biso   1.000  N
  C54      1.0000 0.45500  0.20580  0.93710  Biso   1.000  C
  H42      1.0000 0.64630  0.27050  0.93450  Biso   1.000  H
  C55      1.0000 0.53730  0.21890  0.92250  Biso   1.000  C
  H43      1.0000 0.30930  0.17940  0.96860  Biso   1.000  H
  H44      1.0000 0.31240  0.22180  0.00330  Biso   1.000  H
  H45      1.0000 0.41810  0.17770  0.92350  Biso   1.000  H
  C56      1.0000 0.56470  0.19720  0.88480  Biso   1.000  C
  N10      1.0000 0.67300  0.49400  0.21640  Biso   1.000  N
  H46      1.0000 0.70020  0.47400  0.19770  Biso   1.000  H
  H47      1.0000 0.70360  0.50640  0.23650  Biso   1.000  H
  C57      1.0000 0.47270  0.48110  0.16970  Biso   1.000  C
  C58      1.0000 0.56280  0.47800  0.18000  Biso   1.000  C
  H48      1.0000 0.60470  0.45860  0.16340  Biso   1.000  H
  C59      1.0000 0.59140  0.50330  0.21450  Biso   1.000  C
  C60      1.0000 0.53000  0.53170  0.23880  Biso   1.000  C
  H49      1.0000 0.39800  0.55430  0.24500  Biso   1.000  H
  H50      1.0000 0.34980  0.51160  0.18690  Biso   1.000  H
  O21      1.0000 0.35360  0.94600  0.62690  Biso   1.000  O
  O22      1.0000 0.48960  0.91930  0.61310  Biso   1.000  O
  O23      1.0000 0.35810  0.80390  0.53530  Biso   1.000  O
  O24      1.0000 0.49380  0.83480  0.54740  Biso   1.000  O
  C61      1.0000 0.43770  0.80490  0.52570  Biso   1.000  C
  C62      1.0000 0.47370  0.77010  0.49100  Biso   1.000  C
  C63      1.0000 0.56000  0.78480  0.47850  Biso   1.000  C
  C64      1.0000 0.42250  0.73030  0.46990  Biso   1.000  C
  H51      1.0000 0.59780  0.81110  0.49300  Biso   1.000  H
  C65      1.0000 0.58860  0.75950  0.44390  Biso   1.000  C
  N11      1.0000 0.33700  0.70760  0.48220  Biso   1.000  N
  C66      1.0000 0.45500  0.70580  0.43710  Biso   1.000  C
  H52      1.0000 0.64630  0.77050  0.43450  Biso   1.000  H
  C67      1.0000 0.53730  0.71890  0.42250  Biso   1.000  C
  H53      1.0000 0.30930  0.67940  0.46860  Biso   1.000  H
  H54      1.0000 0.31240  0.72180  0.50330  Biso   1.000  H
  H55      1.0000 0.41810  0.67770  0.42350  Biso   1.000  H
  C68      1.0000 0.56470  0.69720  0.38480  Biso   1.000  C
  N12      1.0000 0.67300  0.99400  0.71640  Biso   1.000  N
  H56      1.0000 0.70020  0.97400  0.69770  Biso   1.000  H
  H57      1.0000 0.70360  0.00640  0.73650  Biso   1.000  H
  C69      1.0000 0.47270  0.98110  0.66970  Biso   1.000  C
  C70      1.0000 0.56280  0.97800  0.68000  Biso   1.000  C
  H58      1.0000 0.60470  0.95860  0.66340  Biso   1.000  H
  C71      1.0000 0.59140  0.00330  0.71450  Biso   1.000  C
  C72      1.0000 0.53000  0.03170  0.73880  Biso   1.000  C
  H59      1.0000 0.39800  0.05430  0.74500  Biso   1.000  H
  H60      1.0000 0.34980  0.01160  0.68690  Biso   1.000  H
  O25      1.0000 0.85360  0.44600  0.62690  Biso   1.000  O
  O26      1.0000 0.98960  0.41930  0.61310  Biso   1.000  O
  O27      1.0000 0.85810  0.30390  0.53530  Biso   1.000  O
  O28      1.0000 0.99380  0.33480  0.54740  Biso   1.000  O
  C73      1.0000 0.93770  0.30490  0.52570  Biso   1.000  C
  C74      1.0000 0.97370  0.27010  0.49100  Biso   1.000  C
  C75      1.0000 0.06000  0.28480  0.47850  Biso   1.000  C
  C76      1.0000 0.92250  0.23030  0.46990  Biso   1.000  C
  H61      1.0000 0.09780  0.31110  0.49300  Biso   1.000  H
  C77      1.0000 0.08860  0.25950  0.44390  Biso   1.000  C
  N13      1.0000 0.83700  0.20760  0.48220  Biso   1.000  N
  C78      1.0000 0.95500  0.20580  0.43710  Biso   1.000  C
  H62      1.0000 0.14630  0.27050  0.43450  Biso   1.000  H
  C79      1.0000 0.03730  0.21890  0.42250  Biso   1.000  C
  H63      1.0000 0.80930  0.17940  0.46860  Biso   1.000  H
  H64      1.0000 0.81240  0.22180  0.50330  Biso   1.000  H
  H65      1.0000 0.91810  0.17770  0.42350  Biso   1.000  H
  C80      1.0000 0.06470  0.19720  0.38480  Biso   1.000  C
  N14      1.0000 0.17300  0.49400  0.71640  Biso   1.000  N
  H66      1.0000 0.20020  0.47400  0.69770  Biso   1.000  H
  H67      1.0000 0.20360  0.50640  0.73650  Biso   1.000  H
  C81      1.0000 0.97270  0.48110  0.66970  Biso   1.000  C
  C82      1.0000 0.06280  0.47800  0.68000  Biso   1.000  C
  H68      1.0000 0.10470  0.45860  0.66340  Biso   1.000  H
  C83      1.0000 0.09140  0.50330  0.71450  Biso   1.000  C
  C84      1.0000 0.03000  0.53170  0.73880  Biso   1.000  C
  H69      1.0000 0.89800  0.55430  0.74500  Biso   1.000  H
  H70      1.0000 0.84980  0.51160  0.68690  Biso   1.000  H
  O29      1.0000 0.85360  0.94600  0.12690  Biso   1.000  O
  O30      1.0000 0.98960  0.91930  0.11310  Biso   1.000  O
  O31      1.0000 0.85810  0.80390  0.03530  Biso   1.000  O
  O32      1.0000 0.99380  0.83480  0.04740  Biso   1.000  O
  C85      1.0000 0.93770  0.80490  0.02570  Biso   1.000  C
  C86      1.0000 0.97370  0.77010  0.99100  Biso   1.000  C
  C87      1.0000 0.06000  0.78480  0.97850  Biso   1.000  C
  C88      1.0000 0.92250  0.73030  0.96990  Biso   1.000  C
  H71      1.0000 0.09780  0.81110  0.99300  Biso   1.000  H
  C89      1.0000 0.08860  0.75950  0.94390  Biso   1.000  C
  N15      1.0000 0.83700  0.70760  0.98220  Biso   1.000  N
  C90      1.0000 0.95500  0.70580  0.93710  Biso   1.000  C
  H72      1.0000 0.14630  0.77050  0.93450  Biso   1.000  H
  C91      1.0000 0.03730  0.71890  0.92250  Biso   1.000  C
  H73      1.0000 0.80930  0.67940  0.96860  Biso   1.000  H
  H74      1.0000 0.81240  0.72180  0.00330  Biso   1.000  H
  H75      1.0000 0.91810  0.67770  0.92350  Biso   1.000  H
  C92      1.0000 0.06470  0.69720  0.88480  Biso   1.000  C
  N16      1.0000 0.17300  0.99400  0.21640  Biso   1.000  N
  H76      1.0000 0.20020  0.97400  0.19770  Biso   1.000  H
  H77      1.0000 0.20360  0.00640  0.23650  Biso   1.000  H
  C93      1.0000 0.97270  0.98110  0.16970  Biso   1.000  C
  C94      1.0000 0.06280  0.97800  0.18000  Biso   1.000  C
  H78      1.0000 0.10470  0.95860  0.16340  Biso   1.000  H
  C95      1.0000 0.09140  0.00330  0.21450  Biso   1.000  C
  C96      1.0000 0.03000  0.03170  0.23880  Biso   1.000  C
  H79      1.0000 0.89800  0.05430  0.24500  Biso   1.000  H
  H80      1.0000 0.84980  0.01160  0.18690  Biso   1.000  H
  O33      1.0000 0.64640  0.69600  0.37690  Biso   1.000  O
  O34      1.0000 0.51040  0.66930  0.36310  Biso   1.000  O
  O35      1.0000 0.64190  0.55390  0.28530  Biso   1.000  O
  O36      1.0000 0.50620  0.58480  0.29740  Biso   1.000  O
  C97      1.0000 0.56230  0.55490  0.27570  Biso   1.000  C
  C98      1.0000 0.52630  0.52010  0.24100  Biso   1.000  C
  C99      1.0000 0.44000  0.53480  0.22850  Biso   1.000  C
  C100     1.0000 0.57750  0.48030  0.21990  Biso   1.000  C
  H81      1.0000 0.40220  0.56110  0.24300  Biso   1.000  H
  C101     1.0000 0.41140  0.50950  0.19390  Biso   1.000  C
  N17      1.0000 0.66300  0.45760  0.23220  Biso   1.000  N
  C102     1.0000 0.54500  0.45580  0.18710  Biso   1.000  C
  H82      1.0000 0.35370  0.52050  0.18450  Biso   1.000  H
  C103     1.0000 0.46270  0.46890  0.17250  Biso   1.000  C
  H83      1.0000 0.69070  0.42940  0.21860  Biso   1.000  H
  H84      1.0000 0.68760  0.47180  0.25330  Biso   1.000  H
  H85      1.0000 0.58190  0.42770  0.17350  Biso   1.000  H
  C104     1.0000 0.43530  0.44720  0.13480  Biso   1.000  C
  N18      1.0000 0.32700  0.74400  0.46640  Biso   1.000  N
  H86      1.0000 0.29980  0.72400  0.44770  Biso   1.000  H
  H87      1.0000 0.29640  0.75640  0.48650  Biso   1.000  H
  C105     1.0000 0.52730  0.73110  0.41970  Biso   1.000  C
  C106     1.0000 0.43720  0.72800  0.43000  Biso   1.000  C
  H88      1.0000 0.39530  0.70860  0.41340  Biso   1.000  H
  C107     1.0000 0.40860  0.75330  0.46450  Biso   1.000  C
  C108     1.0000 0.47000  0.78170  0.48880  Biso   1.000  C
  H89      1.0000 0.60200  0.80430  0.49500  Biso   1.000  H
  H90      1.0000 0.65020  0.76160  0.43690  Biso   1.000  H
  O37      1.0000 0.64640  0.19600  0.87690  Biso   1.000  O
  O38      1.0000 0.51040  0.16930  0.86310  Biso   1.000  O
  O39      1.0000 0.64190  0.05390  0.78530  Biso   1.000  O
  O40      1.0000 0.50620  0.08480  0.79740  Biso   1.000  O
  C109     1.0000 0.56230  0.05490  0.77570  Biso   1.000  C
  C110     1.0000 0.52630  0.02010  0.74100  Biso   1.000  C
  C111     1.0000 0.44000  0.03480  0.72850  Biso   1.000  C
  C112     1.0000 0.57750  0.98030  0.71990  Biso   1.000  C
  H91      1.0000 0.40220  0.06110  0.74300  Biso   1.000  H
  C113     1.0000 0.41140  0.00950  0.69390  Biso   1.000  C
  N19      1.0000 0.66300  0.95760  0.73220  Biso   1.000  N
  C114     1.0000 0.54500  0.95580  0.68710  Biso   1.000  C
  H92      1.0000 0.35370  0.02050  0.68450  Biso   1.000  H
  C115     1.0000 0.46270  0.96890  0.67250  Biso   1.000  C
  H93      1.0000 0.69070  0.92940  0.71860  Biso   1.000  H
  H94      1.0000 0.68760  0.97180  0.75330  Biso   1.000  H
  H95      1.0000 0.58190  0.92770  0.67350  Biso   1.000  H
  C116     1.0000 0.43530  0.94720  0.63480  Biso   1.000  C
  N20      1.0000 0.32700  0.24400  0.96640  Biso   1.000  N
  H96      1.0000 0.29980  0.22400  0.94770  Biso   1.000  H
  H97      1.0000 0.29640  0.25640  0.98650  Biso   1.000  H
  C117     1.0000 0.52730  0.23110  0.91970  Biso   1.000  C
  C118     1.0000 0.43720  0.22800  0.93000  Biso   1.000  C
  H98      1.0000 0.39530  0.20860  0.91340  Biso   1.000  H
  C119     1.0000 0.40860  0.25330  0.96450  Biso   1.000  C
  C120     1.0000 0.47000  0.28170  0.98880  Biso   1.000  C
  H99      1.0000 0.60200  0.30430  0.99500  Biso   1.000  H
  H100     1.0000 0.65020  0.26160  0.93690  Biso   1.000  H
  O41      1.0000 0.14640  0.69600  0.87690  Biso   1.000  O
  O42      1.0000 0.01040  0.66930  0.86310  Biso   1.000  O
  O43      1.0000 0.14190  0.55390  0.78530  Biso   1.000  O
  O44      1.0000 0.00620  0.58480  0.79740  Biso   1.000  O
  C121     1.0000 0.06230  0.55490  0.77570  Biso   1.000  C
  C122     1.0000 0.02630  0.52010  0.74100  Biso   1.000  C
  C123     1.0000 0.94000  0.53480  0.72850  Biso   1.000  C
  C124     1.0000 0.07750  0.48030  0.71990  Biso   1.000  C
  H101     1.0000 0.90220  0.56110  0.74300  Biso   1.000  H
  C125     1.0000 0.91140  0.50950  0.69390  Biso   1.000  C
  N21      1.0000 0.16300  0.45760  0.73220  Biso   1.000  N
  C126     1.0000 0.04500  0.45580  0.68710  Biso   1.000  C
  H102     1.0000 0.85370  0.52050  0.68450  Biso   1.000  H
  C127     1.0000 0.96270  0.46890  0.67250  Biso   1.000  C
  H103     1.0000 0.19070  0.42940  0.71860  Biso   1.000  H
  H104     1.0000 0.18760  0.47180  0.75330  Biso   1.000  H
  H105     1.0000 0.08190  0.42770  0.67350  Biso   1.000  H
  C128     1.0000 0.93530  0.44720  0.63480  Biso   1.000  C
  N22      1.0000 0.82700  0.74400  0.96640  Biso   1.000  N
  H106     1.0000 0.79980  0.72400  0.94770  Biso   1.000  H
  H107     1.0000 0.79640  0.75640  0.98650  Biso   1.000  H
  C129     1.0000 0.02730  0.73110  0.91970  Biso   1.000  C
  C130     1.0000 0.93720  0.72800  0.93000  Biso   1.000  C
  H108     1.0000 0.89530  0.70860  0.91340  Biso   1.000  H
  C131     1.0000 0.90860  0.75330  0.96450  Biso   1.000  C
  C132     1.0000 0.97000  0.78170  0.98880  Biso   1.000  C
  H109     1.0000 0.10200  0.80430  0.99500  Biso   1.000  H
  H110     1.0000 0.15020  0.76160  0.93690  Biso   1.000  H
  O45      1.0000 0.14640  0.19600  0.37690  Biso   1.000  O
  O46      1.0000 0.01040  0.16930  0.36310  Biso   1.000  O
  O47      1.0000 0.14190  0.05390  0.28530  Biso   1.000  O
  O48      1.0000 0.00620  0.08480  0.29740  Biso   1.000  O
  C133     1.0000 0.06230  0.05490  0.27570  Biso   1.000  C
  C134     1.0000 0.02630  0.02010  0.24100  Biso   1.000  C
  C135     1.0000 0.94000  0.03480  0.22850  Biso   1.000  C
  C136     1.0000 0.07750  0.98030  0.21990  Biso   1.000  C
  H111     1.0000 0.90220  0.06110  0.24300  Biso   1.000  H
  C137     1.0000 0.91140  0.00950  0.19390  Biso   1.000  C
  N23      1.0000 0.16300  0.95760  0.23220  Biso   1.000  N
  C138     1.0000 0.04500  0.95580  0.18710  Biso   1.000  C
  H112     1.0000 0.85370  0.02050  0.18450  Biso   1.000  H
  C139     1.0000 0.96270  0.96890  0.17250  Biso   1.000  C
  H113     1.0000 0.19070  0.92940  0.21860  Biso   1.000  H
  H114     1.0000 0.18760  0.97180  0.25330  Biso   1.000  H
  H115     1.0000 0.08190  0.92770  0.17350  Biso   1.000  H
  C140     1.0000 0.93530  0.94720  0.13480  Biso   1.000  C
  N24      1.0000 0.82700  0.24400  0.46640  Biso   1.000  N
  H116     1.0000 0.79980  0.22400  0.44770  Biso   1.000  H
  H117     1.0000 0.79640  0.25640  0.48650  Biso   1.000  H
  C141     1.0000 0.02730  0.23110  0.41970  Biso   1.000  C
  C142     1.0000 0.93720  0.22800  0.43000  Biso   1.000  C
  H118     1.0000 0.89530  0.20860  0.41340  Biso   1.000  H
  C143     1.0000 0.90860  0.25330  0.46450  Biso   1.000  C
  C144     1.0000 0.97000  0.28170  0.48880  Biso   1.000  C
  H119     1.0000 0.10200  0.30430  0.49500  Biso   1.000  H
  H120     1.0000 0.15020  0.26160  0.43690  Biso   1.000  H
  O49      1.0000 0.60360  0.55400  0.37690  Biso   1.000  O
  O50      1.0000 0.73960  0.58070  0.36310  Biso   1.000  O
  O51      1.0000 0.60810  0.69610  0.28530  Biso   1.000  O
  O52      1.0000 0.74380  0.66520  0.29740  Biso   1.000  O
  C145     1.0000 0.68770  0.69510  0.27570  Biso   1.000  C
  C146     1.0000 0.72370  0.72990  0.24100  Biso   1.000  C
  C147     1.0000 0.81000  0.71520  0.22850  Biso   1.000  C
  C148     1.0000 0.67250  0.76970  0.21990  Biso   1.000  C
  H121     1.0000 0.84780  0.68890  0.24300  Biso   1.000  H
  C149     1.0000 0.83860  0.74050  0.19390  Biso   1.000  C
  N25      1.0000 0.58700  0.79240  0.23220  Biso   1.000  N
  C150     1.0000 0.70500  0.79420  0.18710  Biso   1.000  C
  H122     1.0000 0.89630  0.72950  0.18450  Biso   1.000  H
  C151     1.0000 0.78730  0.78110  0.17250  Biso   1.000  C
  H123     1.0000 0.55930  0.82060  0.21860  Biso   1.000  H
  H124     1.0000 0.56240  0.77820  0.25330  Biso   1.000  H
  H125     1.0000 0.66810  0.82230  0.17350  Biso   1.000  H
  C152     1.0000 0.81470  0.80280  0.13480  Biso   1.000  C
  N26      1.0000 0.92300  0.50600  0.46640  Biso   1.000  N
  H126     1.0000 0.95020  0.52600  0.44770  Biso   1.000  H
  H127     1.0000 0.95360  0.49360  0.48650  Biso   1.000  H
  C153     1.0000 0.72270  0.51890  0.41970  Biso   1.000  C
  C154     1.0000 0.81280  0.52200  0.43000  Biso   1.000  C
  H128     1.0000 0.85470  0.54140  0.41340  Biso   1.000  H
  C155     1.0000 0.84140  0.49670  0.46450  Biso   1.000  C
  C156     1.0000 0.78000  0.46830  0.48880  Biso   1.000  C
  H129     1.0000 0.64800  0.44570  0.49500  Biso   1.000  H
  H130     1.0000 0.59980  0.48840  0.43690  Biso   1.000  H
  O53      1.0000 0.60360  0.05400  0.87690  Biso   1.000  O
  O54      1.0000 0.73960  0.08070  0.86310  Biso   1.000  O
  O55      1.0000 0.60810  0.19610  0.78530  Biso   1.000  O
  O56      1.0000 0.74380  0.16520  0.79740  Biso   1.000  O
  C157     1.0000 0.68770  0.19510  0.77570  Biso   1.000  C
  C158     1.0000 0.72370  0.22990  0.74100  Biso   1.000  C
  C159     1.0000 0.81000  0.21520  0.72850  Biso   1.000  C
  C160     1.0000 0.67250  0.26970  0.71990  Biso   1.000  C
  H131     1.0000 0.84780  0.18890  0.74300  Biso   1.000  H
  C161     1.0000 0.83860  0.24050  0.69390  Biso   1.000  C
  N27      1.0000 0.58700  0.29240  0.73220  Biso   1.000  N
  C162     1.0000 0.70500  0.29420  0.68710  Biso   1.000  C
  H132     1.0000 0.89630  0.22950  0.68450  Biso   1.000  H
  C163     1.0000 0.78730  0.28110  0.67250  Biso   1.000  C
  H133     1.0000 0.55930  0.32060  0.71860  Biso   1.000  H
  H134     1.0000 0.56240  0.27820  0.75330  Biso   1.000  H
  H135     1.0000 0.66810  0.32230  0.67350  Biso   1.000  H
  C164     1.0000 0.81470  0.30280  0.63480  Biso   1.000  C
  N28      1.0000 0.92300  0.00600  0.96640  Biso   1.000  N
  H136     1.0000 0.95020  0.02600  0.94770  Biso   1.000  H
  H137     1.0000 0.95360  0.99360  0.98650  Biso   1.000  H
  C165     1.0000 0.72270  0.01890  0.91970  Biso   1.000  C
  C166     1.0000 0.81280  0.02200  0.93000  Biso   1.000  C
  H138     1.0000 0.85470  0.04140  0.91340  Biso   1.000  H
  C167     1.0000 0.84140  0.99670  0.96450  Biso   1.000  C
  C168     1.0000 0.78000  0.96830  0.98880  Biso   1.000  C
  H139     1.0000 0.64800  0.94570  0.99500  Biso   1.000  H
  H140     1.0000 0.59980  0.98840  0.93690  Biso   1.000  H
  O57      1.0000 0.10360  0.55400  0.87690  Biso   1.000  O
  O58      1.0000 0.23960  0.58070  0.86310  Biso   1.000  O
  O59      1.0000 0.10810  0.69610  0.78530  Biso   1.000  O
  O60      1.0000 0.24380  0.66520  0.79740  Biso   1.000  O
  C169     1.0000 0.18770  0.69510  0.77570  Biso   1.000  C
  C170     1.0000 0.22370  0.72990  0.74100  Biso   1.000  C
  C171     1.0000 0.31000  0.71520  0.72850  Biso   1.000  C
  C172     1.0000 0.17250  0.76970  0.71990  Biso   1.000  C
  H141     1.0000 0.34780  0.68890  0.74300  Biso   1.000  H
  C173     1.0000 0.33860  0.74050  0.69390  Biso   1.000  C
  N29      1.0000 0.08700  0.79240  0.73220  Biso   1.000  N
  C174     1.0000 0.20500  0.79420  0.68710  Biso   1.000  C
  H142     1.0000 0.39630  0.72950  0.68450  Biso   1.000  H
  C175     1.0000 0.28730  0.78110  0.67250  Biso   1.000  C
  H143     1.0000 0.05930  0.82060  0.71860  Biso   1.000  H
  H144     1.0000 0.06240  0.77820  0.75330  Biso   1.000  H
  H145     1.0000 0.16810  0.82230  0.67350  Biso   1.000  H
  C176     1.0000 0.31470  0.80280  0.63480  Biso   1.000  C
  N30      1.0000 0.42300  0.50600  0.96640  Biso   1.000  N
  H146     1.0000 0.45020  0.52600  0.94770  Biso   1.000  H
  H147     1.0000 0.45360  0.49360  0.98650  Biso   1.000  H
  C177     1.0000 0.22270  0.51890  0.91970  Biso   1.000  C
  C178     1.0000 0.31280  0.52200  0.93000  Biso   1.000  C
  H148     1.0000 0.35470  0.54140  0.91340  Biso   1.000  H
  C179     1.0000 0.34140  0.49670  0.96450  Biso   1.000  C
  C180     1.0000 0.28000  0.46830  0.98880  Biso   1.000  C
  H149     1.0000 0.14800  0.44570  0.99500  Biso   1.000  H
  H150     1.0000 0.09980  0.48840  0.93690  Biso   1.000  H
  O61      1.0000 0.10360  0.05400  0.37690  Biso   1.000  O
  O62      1.0000 0.23960  0.08070  0.36310  Biso   1.000  O
  O63      1.0000 0.10810  0.19610  0.28530  Biso   1.000  O
  O64      1.0000 0.24380  0.16520  0.29740  Biso   1.000  O
  C181     1.0000 0.18770  0.19510  0.27570  Biso   1.000  C
  C182     1.0000 0.22370  0.22990  0.24100  Biso   1.000  C
  C183     1.0000 0.31000  0.21520  0.22850  Biso   1.000  C
  C184     1.0000 0.17250  0.26970  0.21990  Biso   1.000  C
  H151     1.0000 0.34780  0.18890  0.24300  Biso   1.000  H
  C185     1.0000 0.33860  0.24050  0.19390  Biso   1.000  C
  N31      1.0000 0.08700  0.29240  0.23220  Biso   1.000  N
  C186     1.0000 0.20500  0.29420  0.18710  Biso   1.000  C
  H152     1.0000 0.39630  0.22950  0.18450  Biso   1.000  H
  C187     1.0000 0.28730  0.28110  0.17250  Biso   1.000  C
  H153     1.0000 0.05930  0.32060  0.21860  Biso   1.000  H
  H154     1.0000 0.06240  0.27820  0.25330  Biso   1.000  H
  H155     1.0000 0.16810  0.32230  0.17350  Biso   1.000  H
  C188     1.0000 0.31470  0.30280  0.13480  Biso   1.000  C
  N32      1.0000 0.42300  0.00600  0.46640  Biso   1.000  N
  H156     1.0000 0.45020  0.02600  0.44770  Biso   1.000  H
  H157     1.0000 0.45360  0.99360  0.48650  Biso   1.000  H
  C189     1.0000 0.22270  0.01890  0.41970  Biso   1.000  C
  C190     1.0000 0.31280  0.02200  0.43000  Biso   1.000  C
  H158     1.0000 0.35470  0.04140  0.41340  Biso   1.000  H
  C191     1.0000 0.34140  0.99670  0.46450  Biso   1.000  C
  C192     1.0000 0.28000  0.96830  0.48880  Biso   1.000  C
  H159     1.0000 0.14800  0.94570  0.49500  Biso   1.000  H
  H160     1.0000 0.09980  0.98840  0.43690  Biso   1.000  H
  In1      1.0000 0.37500  0.37500  0.08006  Biso   1.000  In
  In2      1.0000 0.37500  0.87500  0.58006  Biso   1.000  In
  In3      1.0000 0.87500  0.37500  0.58006  Biso   1.000  In
  In4      1.0000 0.87500  0.87500  0.08006  Biso   1.000  In
  In5      1.0000 0.62500  0.62500  0.33006  Biso   1.000  In
  In6      1.0000 0.62500  0.12500  0.83006  Biso   1.000  In
  In7      1.0000 0.12500  0.62500  0.83006  Biso   1.000  In
  In8      1.0000 0.12500  0.12500  0.33006  Biso   1.000  In
  O65      1.0000 0.35360  0.30400  0.62310  Biso   1.000  O
  O66      1.0000 0.48960  0.33070  0.63690  Biso   1.000  O
  O67      1.0000 0.35810  0.44610  0.71470  Biso   1.000  O
  O68      1.0000 0.49380  0.41520  0.70260  Biso   1.000  O
  C193     1.0000 0.43770  0.44510  0.72430  Biso   1.000  C
  C194     1.0000 0.47370  0.47990  0.75900  Biso   1.000  C
  C195     1.0000 0.56000  0.46520  0.77150  Biso   1.000  C
  C196     1.0000 0.42250  0.51970  0.78010  Biso   1.000  C
  H161     1.0000 0.59780  0.43890  0.75700  Biso   1.000  H
  C197     1.0000 0.58860  0.49050  0.80610  Biso   1.000  C
  N33      1.0000 0.33700  0.54240  0.76780  Biso   1.000  N
  C198     1.0000 0.45500  0.54420  0.81290  Biso   1.000  C
  H162     1.0000 0.64630  0.47950  0.81550  Biso   1.000  H
  C199     1.0000 0.53730  0.53110  0.82750  Biso   1.000  C
  H163     1.0000 0.30930  0.57060  0.78140  Biso   1.000  H
  H164     1.0000 0.31240  0.52820  0.74670  Biso   1.000  H
  H165     1.0000 0.41810  0.57230  0.82650  Biso   1.000  H
  C200     1.0000 0.56470  0.55280  0.86520  Biso   1.000  C
  N34      1.0000 0.67300  0.25600  0.53360  Biso   1.000  N
  H166     1.0000 0.70020  0.27600  0.55230  Biso   1.000  H
  H167     1.0000 0.70360  0.24360  0.51350  Biso   1.000  H
  C201     1.0000 0.47270  0.26890  0.58030  Biso   1.000  C
  C202     1.0000 0.56280  0.27200  0.57000  Biso   1.000  C
  H168     1.0000 0.60470  0.29140  0.58660  Biso   1.000  H
  C203     1.0000 0.59140  0.24670  0.53550  Biso   1.000  C
  C204     1.0000 0.53000  0.21830  0.51120  Biso   1.000  C
  H169     1.0000 0.39800  0.19570  0.50500  Biso   1.000  H
  H170     1.0000 0.34980  0.23840  0.56310  Biso   1.000  H
  O69      1.0000 0.35360  0.80400  0.12310  Biso   1.000  O
  O70      1.0000 0.48960  0.83070  0.13690  Biso   1.000  O
  O71      1.0000 0.35810  0.94610  0.21470  Biso   1.000  O
  O72      1.0000 0.49380  0.91520  0.20260  Biso   1.000  O
  C205     1.0000 0.43770  0.94510  0.22430  Biso   1.000  C
  C206     1.0000 0.47370  0.97990  0.25900  Biso   1.000  C
  C207     1.0000 0.56000  0.96520  0.27150  Biso   1.000  C
  C208     1.0000 0.42250  0.01970  0.28010  Biso   1.000  C
  H171     1.0000 0.59780  0.93890  0.25700  Biso   1.000  H
  C209     1.0000 0.58860  0.99050  0.30610  Biso   1.000  C
  N35      1.0000 0.33700  0.04240  0.26780  Biso   1.000  N
  C210     1.0000 0.45500  0.04420  0.31290  Biso   1.000  C
  H172     1.0000 0.64630  0.97950  0.31550  Biso   1.000  H
  C211     1.0000 0.53730  0.03110  0.32750  Biso   1.000  C
  H173     1.0000 0.30930  0.07060  0.28140  Biso   1.000  H
  H174     1.0000 0.31240  0.02820  0.24670  Biso   1.000  H
  H175     1.0000 0.41810  0.07230  0.32650  Biso   1.000  H
  C212     1.0000 0.56470  0.05280  0.36520  Biso   1.000  C
  N36      1.0000 0.67300  0.75600  0.03360  Biso   1.000  N
  H176     1.0000 0.70020  0.77600  0.05230  Biso   1.000  H
  H177     1.0000 0.70360  0.74360  0.01350  Biso   1.000  H
  C213     1.0000 0.47270  0.76890  0.08030  Biso   1.000  C
  C214     1.0000 0.56280  0.77200  0.07000  Biso   1.000  C
  H178     1.0000 0.60470  0.79140  0.08660  Biso   1.000  H
  C215     1.0000 0.59140  0.74670  0.03550  Biso   1.000  C
  C216     1.0000 0.53000  0.71830  0.01120  Biso   1.000  C
  H179     1.0000 0.39800  0.69570  0.00500  Biso   1.000  H
  H180     1.0000 0.34980  0.73840  0.06310  Biso   1.000  H
  O73      1.0000 0.85360  0.30400  0.12310  Biso   1.000  O
  O74      1.0000 0.98960  0.33070  0.13690  Biso   1.000  O
  O75      1.0000 0.85810  0.44610  0.21470  Biso   1.000  O
  O76      1.0000 0.99380  0.41520  0.20260  Biso   1.000  O
  C217     1.0000 0.93770  0.44510  0.22430  Biso   1.000  C
  C218     1.0000 0.97370  0.47990  0.25900  Biso   1.000  C
  C219     1.0000 0.06000  0.46520  0.27150  Biso   1.000  C
  C220     1.0000 0.92250  0.51970  0.28010  Biso   1.000  C
  H181     1.0000 0.09780  0.43890  0.25700  Biso   1.000  H
  C221     1.0000 0.08860  0.49050  0.30610  Biso   1.000  C
  N37      1.0000 0.83700  0.54240  0.26780  Biso   1.000  N
  C222     1.0000 0.95500  0.54420  0.31290  Biso   1.000  C
  H182     1.0000 0.14630  0.47950  0.31550  Biso   1.000  H
  C223     1.0000 0.03730  0.53110  0.32750  Biso   1.000  C
  H183     1.0000 0.80930  0.57060  0.28140  Biso   1.000  H
  H184     1.0000 0.81240  0.52820  0.24670  Biso   1.000  H
  H185     1.0000 0.91810  0.57230  0.32650  Biso   1.000  H
  C224     1.0000 0.06470  0.55280  0.36520  Biso   1.000  C
  N38      1.0000 0.17300  0.25600  0.03360  Biso   1.000  N
  H186     1.0000 0.20020  0.27600  0.05230  Biso   1.000  H
  H187     1.0000 0.20360  0.24360  0.01350  Biso   1.000  H
  C225     1.0000 0.97270  0.26890  0.08030  Biso   1.000  C
  C226     1.0000 0.06280  0.27200  0.07000  Biso   1.000  C
  H188     1.0000 0.10470  0.29140  0.08660  Biso   1.000  H
  C227     1.0000 0.09140  0.24670  0.03550  Biso   1.000  C
  C228     1.0000 0.03000  0.21830  0.01120  Biso   1.000  C
  H189     1.0000 0.89800  0.19570  0.00500  Biso   1.000  H
  H190     1.0000 0.84980  0.23840  0.06310  Biso   1.000  H
  O77      1.0000 0.85360  0.80400  0.62310  Biso   1.000  O
  O78      1.0000 0.98960  0.83070  0.63690  Biso   1.000  O
  O79      1.0000 0.85810  0.94610  0.71470  Biso   1.000  O
  O80      1.0000 0.99380  0.91520  0.70260  Biso   1.000  O
  C229     1.0000 0.93770  0.94510  0.72430  Biso   1.000  C
  C230     1.0000 0.97370  0.97990  0.75900  Biso   1.000  C
  C231     1.0000 0.06000  0.96520  0.77150  Biso   1.000  C
  C232     1.0000 0.92250  0.01970  0.78010  Biso   1.000  C
  H191     1.0000 0.09780  0.93890  0.75700  Biso   1.000  H
  C233     1.0000 0.08860  0.99050  0.80610  Biso   1.000  C
  N39      1.0000 0.83700  0.04240  0.76780  Biso   1.000  N
  C234     1.0000 0.95500  0.04420  0.81290  Biso   1.000  C
  H192     1.0000 0.14630  0.97950  0.81550  Biso   1.000  H
  C235     1.0000 0.03730  0.03110  0.82750  Biso   1.000  C
  H193     1.0000 0.80930  0.07060  0.78140  Biso   1.000  H
  H194     1.0000 0.81240  0.02820  0.74670  Biso   1.000  H
  H195     1.0000 0.91810  0.07230  0.82650  Biso   1.000  H
  C236     1.0000 0.06470  0.05280  0.86520  Biso   1.000  C
  N40      1.0000 0.17300  0.75600  0.53360  Biso   1.000  N
  H196     1.0000 0.20020  0.77600  0.55230  Biso   1.000  H
  H197     1.0000 0.20360  0.74360  0.51350  Biso   1.000  H
  C237     1.0000 0.97270  0.76890  0.58030  Biso   1.000  C
  C238     1.0000 0.06280  0.77200  0.57000  Biso   1.000  C
  H198     1.0000 0.10470  0.79140  0.58660  Biso   1.000  H
  C239     1.0000 0.09140  0.74670  0.53550  Biso   1.000  C
  C240     1.0000 0.03000  0.71830  0.51120  Biso   1.000  C
  H199     1.0000 0.89800  0.69570  0.50500  Biso   1.000  H
  H200     1.0000 0.84980  0.73840  0.56310  Biso   1.000  H
  O81      1.0000 0.39640  0.44600  0.62310  Biso   1.000  O
  O82      1.0000 0.26040  0.41930  0.63690  Biso   1.000  O
  O83      1.0000 0.39190  0.30390  0.71470  Biso   1.000  O
  O84      1.0000 0.25620  0.33480  0.70260  Biso   1.000  O
  C241     1.0000 0.31230  0.30490  0.72430  Biso   1.000  C
  C242     1.0000 0.27630  0.27010  0.75900  Biso   1.000  C
  C243     1.0000 0.19000  0.28480  0.77150  Biso   1.000  C
  C244     1.0000 0.32750  0.23030  0.78010  Biso   1.000  C
  H201     1.0000 0.15220  0.31110  0.75700  Biso   1.000  H
  C245     1.0000 0.16140  0.25950  0.80610  Biso   1.000  C
  N41      1.0000 0.41300  0.20760  0.76780  Biso   1.000  N
  C246     1.0000 0.29500  0.20580  0.81290  Biso   1.000  C
  H202     1.0000 0.10370  0.27050  0.81550  Biso   1.000  H
  C247     1.0000 0.21270  0.21890  0.82750  Biso   1.000  C
  H203     1.0000 0.44070  0.17940  0.78140  Biso   1.000  H
  H204     1.0000 0.43760  0.22180  0.74670  Biso   1.000  H
  H205     1.0000 0.33190  0.17770  0.82650  Biso   1.000  H
  C248     1.0000 0.18530  0.19720  0.86520  Biso   1.000  C
  N42      1.0000 0.07700  0.49400  0.53360  Biso   1.000  N
  H206     1.0000 0.04980  0.47400  0.55230  Biso   1.000  H
  H207     1.0000 0.04640  0.50640  0.51350  Biso   1.000  H
  C249     1.0000 0.27730  0.48110  0.58030  Biso   1.000  C
  C250     1.0000 0.18720  0.47800  0.57000  Biso   1.000  C
  H208     1.0000 0.14530  0.45860  0.58660  Biso   1.000  H
  C251     1.0000 0.15860  0.50330  0.53550  Biso   1.000  C
  C252     1.0000 0.22000  0.53170  0.51120  Biso   1.000  C
  H209     1.0000 0.35200  0.55430  0.50500  Biso   1.000  H
  H210     1.0000 0.40020  0.51160  0.56310  Biso   1.000  H
  O85      1.0000 0.39640  0.94600  0.12310  Biso   1.000  O
  O86      1.0000 0.26040  0.91930  0.13690  Biso   1.000  O
  O87      1.0000 0.39190  0.80390  0.21470  Biso   1.000  O
  O88      1.0000 0.25620  0.83480  0.20260  Biso   1.000  O
  C253     1.0000 0.31230  0.80490  0.22430  Biso   1.000  C
  C254     1.0000 0.27630  0.77010  0.25900  Biso   1.000  C
  C255     1.0000 0.19000  0.78480  0.27150  Biso   1.000  C
  C256     1.0000 0.32750  0.73030  0.28010  Biso   1.000  C
  H211     1.0000 0.15220  0.81110  0.25700  Biso   1.000  H
  C257     1.0000 0.16140  0.75950  0.30610  Biso   1.000  C
  N43      1.0000 0.41300  0.70760  0.26780  Biso   1.000  N
  C258     1.0000 0.29500  0.70580  0.31290  Biso   1.000  C
  H212     1.0000 0.10370  0.77050  0.31550  Biso   1.000  H
  C259     1.0000 0.21270  0.71890  0.32750  Biso   1.000  C
  H213     1.0000 0.44070  0.67940  0.28140  Biso   1.000  H
  H214     1.0000 0.43760  0.72180  0.24670  Biso   1.000  H
  H215     1.0000 0.33190  0.67770  0.32650  Biso   1.000  H
  C260     1.0000 0.18530  0.69720  0.36520  Biso   1.000  C
  N44      1.0000 0.07700  0.99400  0.03360  Biso   1.000  N
  H216     1.0000 0.04980  0.97400  0.05230  Biso   1.000  H
  H217     1.0000 0.04640  0.00640  0.01350  Biso   1.000  H
  C261     1.0000 0.27730  0.98110  0.08030  Biso   1.000  C
  C262     1.0000 0.18720  0.97800  0.07000  Biso   1.000  C
  H218     1.0000 0.14530  0.95860  0.08660  Biso   1.000  H
  C263     1.0000 0.15860  0.00330  0.03550  Biso   1.000  C
  C264     1.0000 0.22000  0.03170  0.01120  Biso   1.000  C
  H219     1.0000 0.35200  0.05430  0.00500  Biso   1.000  H
  H220     1.0000 0.40020  0.01160  0.06310  Biso   1.000  H
  O89      1.0000 0.89640  0.44600  0.12310  Biso   1.000  O
  O90      1.0000 0.76040  0.41930  0.13690  Biso   1.000  O
  O91      1.0000 0.89190  0.30390  0.21470  Biso   1.000  O
  O92      1.0000 0.75620  0.33480  0.20260  Biso   1.000  O
  C265     1.0000 0.81230  0.30490  0.22430  Biso   1.000  C
  C266     1.0000 0.77630  0.27010  0.25900  Biso   1.000  C
  C267     1.0000 0.69000  0.28480  0.27150  Biso   1.000  C
  C268     1.0000 0.82750  0.23030  0.28010  Biso   1.000  C
  H221     1.0000 0.65220  0.31110  0.25700  Biso   1.000  H
  C269     1.0000 0.66140  0.25950  0.30610  Biso   1.000  C
  N45      1.0000 0.91300  0.20760  0.26780  Biso   1.000  N
  C270     1.0000 0.79500  0.20580  0.31290  Biso   1.000  C
  H222     1.0000 0.60370  0.27050  0.31550  Biso   1.000  H
  C271     1.0000 0.71270  0.21890  0.32750  Biso   1.000  C
  H223     1.0000 0.94070  0.17940  0.28140  Biso   1.000  H
  H224     1.0000 0.93760  0.22180  0.24670  Biso   1.000  H
  H225     1.0000 0.83190  0.17770  0.32650  Biso   1.000  H
  C272     1.0000 0.68530  0.19720  0.36520  Biso   1.000  C
  N46      1.0000 0.57700  0.49400  0.03360  Biso   1.000  N
  H226     1.0000 0.54980  0.47400  0.05230  Biso   1.000  H
  H227     1.0000 0.54640  0.50640  0.01350  Biso   1.000  H
  C273     1.0000 0.77730  0.48110  0.08030  Biso   1.000  C
  C274     1.0000 0.68720  0.47800  0.07000  Biso   1.000  C
  H228     1.0000 0.64530  0.45860  0.08660  Biso   1.000  H
  C275     1.0000 0.65860  0.50330  0.03550  Biso   1.000  C
  C276     1.0000 0.72000  0.53170  0.01120  Biso   1.000  C
  H229     1.0000 0.85200  0.55430  0.00500  Biso   1.000  H
  H230     1.0000 0.90020  0.51160  0.06310  Biso   1.000  H
  O93      1.0000 0.89640  0.94600  0.62310  Biso   1.000  O
  O94      1.0000 0.76040  0.91930  0.63690  Biso   1.000  O
  O95      1.0000 0.89190  0.80390  0.71470  Biso   1.000  O
  O96      1.0000 0.75620  0.83480  0.70260  Biso   1.000  O
  C277     1.0000 0.81230  0.80490  0.72430  Biso   1.000  C
  C278     1.0000 0.77630  0.77010  0.75900  Biso   1.000  C
  C279     1.0000 0.69000  0.78480  0.77150  Biso   1.000  C
  C280     1.0000 0.82750  0.73030  0.78010  Biso   1.000  C
  H231     1.0000 0.65220  0.81110  0.75700  Biso   1.000  H
  C281     1.0000 0.66140  0.75950  0.80610  Biso   1.000  C
  N47      1.0000 0.91300  0.70760  0.76780  Biso   1.000  N
  C282     1.0000 0.79500  0.70580  0.81290  Biso   1.000  C
  H232     1.0000 0.60370  0.77050  0.81550  Biso   1.000  H
  C283     1.0000 0.71270  0.71890  0.82750  Biso   1.000  C
  H233     1.0000 0.94070  0.67940  0.78140  Biso   1.000  H
  H234     1.0000 0.93760  0.72180  0.74670  Biso   1.000  H
  H235     1.0000 0.83190  0.67770  0.82650  Biso   1.000  H
  C284     1.0000 0.68530  0.69720  0.86520  Biso   1.000  C
  N48      1.0000 0.57700  0.99400  0.53360  Biso   1.000  N
  H236     1.0000 0.54980  0.97400  0.55230  Biso   1.000  H
  H237     1.0000 0.54640  0.00640  0.51350  Biso   1.000  H
  C285     1.0000 0.77730  0.98110  0.58030  Biso   1.000  C
  C286     1.0000 0.68720  0.97800  0.57000  Biso   1.000  C
  H238     1.0000 0.64530  0.95860  0.58660  Biso   1.000  H
  C287     1.0000 0.65860  0.00330  0.53550  Biso   1.000  C
  C288     1.0000 0.72000  0.03170  0.51120  Biso   1.000  C
  H239     1.0000 0.85200  0.05430  0.50500  Biso   1.000  H
  H240     1.0000 0.90020  0.01160  0.56310  Biso   1.000  H
  O97      1.0000 0.60360  0.69600  0.87310  Biso   1.000  O
  O98      1.0000 0.73960  0.66930  0.88690  Biso   1.000  O
  O99      1.0000 0.60810  0.55390  0.96470  Biso   1.000  O
  O100     1.0000 0.74380  0.58480  0.95260  Biso   1.000  O
  C289     1.0000 0.68770  0.55490  0.97430  Biso   1.000  C
  C290     1.0000 0.72370  0.52010  0.00900  Biso   1.000  C
  C291     1.0000 0.81000  0.53480  0.02150  Biso   1.000  C
  C292     1.0000 0.67250  0.48030  0.03010  Biso   1.000  C
  H241     1.0000 0.84780  0.56110  0.00700  Biso   1.000  H
  C293     1.0000 0.83860  0.50950  0.05610  Biso   1.000  C
  N49      1.0000 0.58700  0.45760  0.01780  Biso   1.000  N
  C294     1.0000 0.70500  0.45580  0.06290  Biso   1.000  C
  H242     1.0000 0.89630  0.52050  0.06550  Biso   1.000  H
  C295     1.0000 0.78730  0.46890  0.07750  Biso   1.000  C
  H243     1.0000 0.55930  0.42940  0.03140  Biso   1.000  H
  H244     1.0000 0.56240  0.47180  0.99670  Biso   1.000  H
  H245     1.0000 0.66810  0.42770  0.07650  Biso   1.000  H
  C296     1.0000 0.81470  0.44720  0.11520  Biso   1.000  C
  N50      1.0000 0.92300  0.74400  0.78360  Biso   1.000  N
  H246     1.0000 0.95020  0.72400  0.80230  Biso   1.000  H
  H247     1.0000 0.95360  0.75640  0.76350  Biso   1.000  H
  C297     1.0000 0.72270  0.73110  0.83030  Biso   1.000  C
  C298     1.0000 0.81280  0.72800  0.82000  Biso   1.000  C
  H248     1.0000 0.85470  0.70860  0.83660  Biso   1.000  H
  C299     1.0000 0.84140  0.75330  0.78550  Biso   1.000  C
  C300     1.0000 0.78000  0.78170  0.76120  Biso   1.000  C
  H249     1.0000 0.64800  0.80430  0.75500  Biso   1.000  H
  H250     1.0000 0.59980  0.76160  0.81310  Biso   1.000  H
  O101     1.0000 0.60360  0.19600  0.37310  Biso   1.000  O
  O102     1.0000 0.73960  0.16930  0.38690  Biso   1.000  O
  O103     1.0000 0.60810  0.05390  0.46470  Biso   1.000  O
  O104     1.0000 0.74380  0.08480  0.45260  Biso   1.000  O
  C301     1.0000 0.68770  0.05490  0.47430  Biso   1.000  C
  C302     1.0000 0.72370  0.02010  0.50900  Biso   1.000  C
  C303     1.0000 0.81000  0.03480  0.52150  Biso   1.000  C
  C304     1.0000 0.67250  0.98030  0.53010  Biso   1.000  C
  H251     1.0000 0.84780  0.06110  0.50700  Biso   1.000  H
  C305     1.0000 0.83860  0.00950  0.55610  Biso   1.000  C
  N51      1.0000 0.58700  0.95760  0.51780  Biso   1.000  N
  C306     1.0000 0.70500  0.95580  0.56290  Biso   1.000  C
  H252     1.0000 0.89630  0.02050  0.56550  Biso   1.000  H
  C307     1.0000 0.78730  0.96890  0.57750  Biso   1.000  C
  H253     1.0000 0.55930  0.92940  0.53140  Biso   1.000  H
  H254     1.0000 0.56240  0.97180  0.49670  Biso   1.000  H
  H255     1.0000 0.66810  0.92770  0.57650  Biso   1.000  H
  C308     1.0000 0.81470  0.94720  0.61520  Biso   1.000  C
  N52      1.0000 0.92300  0.24400  0.28360  Biso   1.000  N
  H256     1.0000 0.95020  0.22400  0.30230  Biso   1.000  H
  H257     1.0000 0.95360  0.25640  0.26350  Biso   1.000  H
  C309     1.0000 0.72270  0.23110  0.33030  Biso   1.000  C
  C310     1.0000 0.81280  0.22800  0.32000  Biso   1.000  C
  H258     1.0000 0.85470  0.20860  0.33660  Biso   1.000  H
  C311     1.0000 0.84140  0.25330  0.28550  Biso   1.000  C
  C312     1.0000 0.78000  0.28170  0.26120  Biso   1.000  C
  H259     1.0000 0.64800  0.30430  0.25500  Biso   1.000  H
  H260     1.0000 0.59980  0.26160  0.31310  Biso   1.000  H
  O105     1.0000 0.10360  0.69600  0.37310  Biso   1.000  O
  O106     1.0000 0.23960  0.66930  0.38690  Biso   1.000  O
  O107     1.0000 0.10810  0.55390  0.46470  Biso   1.000  O
  O108     1.0000 0.24380  0.58480  0.45260  Biso   1.000  O
  C313     1.0000 0.18770  0.55490  0.47430  Biso   1.000  C
  C314     1.0000 0.22370  0.52010  0.50900  Biso   1.000  C
  C315     1.0000 0.31000  0.53480  0.52150  Biso   1.000  C
  C316     1.0000 0.17250  0.48030  0.53010  Biso   1.000  C
  H261     1.0000 0.34780  0.56110  0.50700  Biso   1.000  H
  C317     1.0000 0.33860  0.50950  0.55610  Biso   1.000  C
  N53      1.0000 0.08700  0.45760  0.51780  Biso   1.000  N
  C318     1.0000 0.20500  0.45580  0.56290  Biso   1.000  C
  H262     1.0000 0.39630  0.52050  0.56550  Biso   1.000  H
  C319     1.0000 0.28730  0.46890  0.57750  Biso   1.000  C
  H263     1.0000 0.05930  0.42940  0.53140  Biso   1.000  H
  H264     1.0000 0.06240  0.47180  0.49670  Biso   1.000  H
  H265     1.0000 0.16810  0.42770  0.57650  Biso   1.000  H
  C320     1.0000 0.31470  0.44720  0.61520  Biso   1.000  C
  N54      1.0000 0.42300  0.74400  0.28360  Biso   1.000  N
  H266     1.0000 0.45020  0.72400  0.30230  Biso   1.000  H
  H267     1.0000 0.45360  0.75640  0.26350  Biso   1.000  H
  C321     1.0000 0.22270  0.73110  0.33030  Biso   1.000  C
  C322     1.0000 0.31280  0.72800  0.32000  Biso   1.000  C
  H268     1.0000 0.35470  0.70860  0.33660  Biso   1.000  H
  C323     1.0000 0.34140  0.75330  0.28550  Biso   1.000  C
  C324     1.0000 0.28000  0.78170  0.26120  Biso   1.000  C
  H269     1.0000 0.14800  0.80430  0.25500  Biso   1.000  H
  H270     1.0000 0.09980  0.76160  0.31310  Biso   1.000  H
  O109     1.0000 0.10360  0.19600  0.87310  Biso   1.000  O
  O110     1.0000 0.23960  0.16930  0.88690  Biso   1.000  O
  O111     1.0000 0.10810  0.05390  0.96470  Biso   1.000  O
  O112     1.0000 0.24380  0.08480  0.95260  Biso   1.000  O
  C325     1.0000 0.18770  0.05490  0.97430  Biso   1.000  C
  C326     1.0000 0.22370  0.02010  0.00900  Biso   1.000  C
  C327     1.0000 0.31000  0.03480  0.02150  Biso   1.000  C
  C328     1.0000 0.17250  0.98030  0.03010  Biso   1.000  C
  H271     1.0000 0.34780  0.06110  0.00700  Biso   1.000  H
  C329     1.0000 0.33860  0.00950  0.05610  Biso   1.000  C
  N55      1.0000 0.08700  0.95760  0.01780  Biso   1.000  N
  C330     1.0000 0.20500  0.95580  0.06290  Biso   1.000  C
  H272     1.0000 0.39630  0.02050  0.06550  Biso   1.000  H
  C331     1.0000 0.28730  0.96890  0.07750  Biso   1.000  C
  H273     1.0000 0.05930  0.92940  0.03140  Biso   1.000  H
  H274     1.0000 0.06240  0.97180  0.99670  Biso   1.000  H
  H275     1.0000 0.16810  0.92770  0.07650  Biso   1.000  H
  C332     1.0000 0.31470  0.94720  0.11520  Biso   1.000  C
  N56      1.0000 0.42300  0.24400  0.78360  Biso   1.000  N
  H276     1.0000 0.45020  0.22400  0.80230  Biso   1.000  H
  H277     1.0000 0.45360  0.25640  0.76350  Biso   1.000  H
  C333     1.0000 0.22270  0.23110  0.83030  Biso   1.000  C
  C334     1.0000 0.31280  0.22800  0.82000  Biso   1.000  C
  H278     1.0000 0.35470  0.20860  0.83660  Biso   1.000  H
  C335     1.0000 0.34140  0.25330  0.78550  Biso   1.000  C
  C336     1.0000 0.28000  0.28170  0.76120  Biso   1.000  C
  H279     1.0000 0.14800  0.30430  0.75500  Biso   1.000  H
  H280     1.0000 0.09980  0.26160  0.81310  Biso   1.000  H
  O113     1.0000 0.64640  0.55400  0.87310  Biso   1.000  O
  O114     1.0000 0.51040  0.58070  0.88690  Biso   1.000  O
  O115     1.0000 0.64190  0.69610  0.96470  Biso   1.000  O
  O116     1.0000 0.50620  0.66520  0.95260  Biso   1.000  O
  C337     1.0000 0.56230  0.69510  0.97430  Biso   1.000  C
  C338     1.0000 0.52630  0.72990  0.00900  Biso   1.000  C
  C339     1.0000 0.44000  0.71520  0.02150  Biso   1.000  C
  C340     1.0000 0.57750  0.76970  0.03010  Biso   1.000  C
  H281     1.0000 0.40220  0.68890  0.00700  Biso   1.000  H
  C341     1.0000 0.41140  0.74050  0.05610  Biso   1.000  C
  N57      1.0000 0.66300  0.79240  0.01780  Biso   1.000  N
  C342     1.0000 0.54500  0.79420  0.06290  Biso   1.000  C
  H282     1.0000 0.35370  0.72950  0.06550  Biso   1.000  H
  C343     1.0000 0.46270  0.78110  0.07750  Biso   1.000  C
  H283     1.0000 0.69070  0.82060  0.03140  Biso   1.000  H
  H284     1.0000 0.68760  0.77820  0.99670  Biso   1.000  H
  H285     1.0000 0.58190  0.82230  0.07650  Biso   1.000  H
  C344     1.0000 0.43530  0.80280  0.11520  Biso   1.000  C
  N58      1.0000 0.32700  0.50600  0.78360  Biso   1.000  N
  H286     1.0000 0.29980  0.52600  0.80230  Biso   1.000  H
  H287     1.0000 0.29640  0.49360  0.76350  Biso   1.000  H
  C345     1.0000 0.52730  0.51890  0.83030  Biso   1.000  C
  C346     1.0000 0.43720  0.52200  0.82000  Biso   1.000  C
  H288     1.0000 0.39530  0.54140  0.83660  Biso   1.000  H
  C347     1.0000 0.40860  0.49670  0.78550  Biso   1.000  C
  C348     1.0000 0.47000  0.46830  0.76120  Biso   1.000  C
  H289     1.0000 0.60200  0.44570  0.75500  Biso   1.000  H
  H290     1.0000 0.65020  0.48840  0.81310  Biso   1.000  H
  O117     1.0000 0.64640  0.05400  0.37310  Biso   1.000  O
  O118     1.0000 0.51040  0.08070  0.38690  Biso   1.000  O
  O119     1.0000 0.64190  0.19610  0.46470  Biso   1.000  O
  O120     1.0000 0.50620  0.16520  0.45260  Biso   1.000  O
  C349     1.0000 0.56230  0.19510  0.47430  Biso   1.000  C
  C350     1.0000 0.52630  0.22990  0.50900  Biso   1.000  C
  C351     1.0000 0.44000  0.21520  0.52150  Biso   1.000  C
  C352     1.0000 0.57750  0.26970  0.53010  Biso   1.000  C
  H291     1.0000 0.40220  0.18890  0.50700  Biso   1.000  H
  C353     1.0000 0.41140  0.24050  0.55610  Biso   1.000  C
  N59      1.0000 0.66300  0.29240  0.51780  Biso   1.000  N
  C354     1.0000 0.54500  0.29420  0.56290  Biso   1.000  C
  H292     1.0000 0.35370  0.22950  0.56550  Biso   1.000  H
  C355     1.0000 0.46270  0.28110  0.57750  Biso   1.000  C
  H293     1.0000 0.69070  0.32060  0.53140  Biso   1.000  H
  H294     1.0000 0.68760  0.27820  0.49670  Biso   1.000  H
  H295     1.0000 0.58190  0.32230  0.57650  Biso   1.000  H
  C356     1.0000 0.43530  0.30280  0.61520  Biso   1.000  C
  N60      1.0000 0.32700  0.00600  0.28360  Biso   1.000  N
  H296     1.0000 0.29980  0.02600  0.30230  Biso   1.000  H
  H297     1.0000 0.29640  0.99360  0.26350  Biso   1.000  H
  C357     1.0000 0.52730  0.01890  0.33030  Biso   1.000  C
  C358     1.0000 0.43720  0.02200  0.32000  Biso   1.000  C
  H298     1.0000 0.39530  0.04140  0.33660  Biso   1.000  H
  C359     1.0000 0.40860  0.99670  0.28550  Biso   1.000  C
  C360     1.0000 0.47000  0.96830  0.26120  Biso   1.000  C
  H299     1.0000 0.60200  0.94570  0.25500  Biso   1.000  H
  H300     1.0000 0.65020  0.98840  0.31310  Biso   1.000  H
  O121     1.0000 0.14640  0.55400  0.37310  Biso   1.000  O
  O122     1.0000 0.01040  0.58070  0.38690  Biso   1.000  O
  O123     1.0000 0.14190  0.69610  0.46470  Biso   1.000  O
  O124     1.0000 0.00620  0.66520  0.45260  Biso   1.000  O
  C361     1.0000 0.06230  0.69510  0.47430  Biso   1.000  C
  C362     1.0000 0.02630  0.72990  0.50900  Biso   1.000  C
  C363     1.0000 0.94000  0.71520  0.52150  Biso   1.000  C
  C364     1.0000 0.07750  0.76970  0.53010  Biso   1.000  C
  H301     1.0000 0.90220  0.68890  0.50700  Biso   1.000  H
  C365     1.0000 0.91140  0.74050  0.55610  Biso   1.000  C
  N61      1.0000 0.16300  0.79240  0.51780  Biso   1.000  N
  C366     1.0000 0.04500  0.79420  0.56290  Biso   1.000  C
  H302     1.0000 0.85370  0.72950  0.56550  Biso   1.000  H
  C367     1.0000 0.96270  0.78110  0.57750  Biso   1.000  C
  H303     1.0000 0.19070  0.82060  0.53140  Biso   1.000  H
  H304     1.0000 0.18760  0.77820  0.49670  Biso   1.000  H
  H305     1.0000 0.08190  0.82230  0.57650  Biso   1.000  H
  C368     1.0000 0.93530  0.80280  0.61520  Biso   1.000  C
  N62      1.0000 0.82700  0.50600  0.28360  Biso   1.000  N
  H306     1.0000 0.79980  0.52600  0.30230  Biso   1.000  H
  H307     1.0000 0.79640  0.49360  0.26350  Biso   1.000  H
  C369     1.0000 0.02730  0.51890  0.33030  Biso   1.000  C
  C370     1.0000 0.93720  0.52200  0.32000  Biso   1.000  C
  H308     1.0000 0.89530  0.54140  0.33660  Biso   1.000  H
  C371     1.0000 0.90860  0.49670  0.28550  Biso   1.000  C
  C372     1.0000 0.97000  0.46830  0.26120  Biso   1.000  C
  H309     1.0000 0.10200  0.44570  0.25500  Biso   1.000  H
  H310     1.0000 0.15020  0.48840  0.31310  Biso   1.000  H
  O125     1.0000 0.14640  0.05400  0.87310  Biso   1.000  O
  O126     1.0000 0.01040  0.08070  0.88690  Biso   1.000  O
  O127     1.0000 0.14190  0.19610  0.96470  Biso   1.000  O
  O128     1.0000 0.00620  0.16520  0.95260  Biso   1.000  O
  C373     1.0000 0.06230  0.19510  0.97430  Biso   1.000  C
  C374     1.0000 0.02630  0.22990  0.00900  Biso   1.000  C
  C375     1.0000 0.94000  0.21520  0.02150  Biso   1.000  C
  C376     1.0000 0.07750  0.26970  0.03010  Biso   1.000  C
  H311     1.0000 0.90220  0.18890  0.00700  Biso   1.000  H
  C377     1.0000 0.91140  0.24050  0.05610  Biso   1.000  C
  N63      1.0000 0.16300  0.29240  0.01780  Biso   1.000  N
  C378     1.0000 0.04500  0.29420  0.06290  Biso   1.000  C
  H312     1.0000 0.85370  0.22950  0.06550  Biso   1.000  H
  C379     1.0000 0.96270  0.28110  0.07750  Biso   1.000  C
  H313     1.0000 0.19070  0.32060  0.03140  Biso   1.000  H
  H314     1.0000 0.18760  0.27820  0.99670  Biso   1.000  H
  H315     1.0000 0.08190  0.32230  0.07650  Biso   1.000  H
  C380     1.0000 0.93530  0.30280  0.11520  Biso   1.000  C
  N64      1.0000 0.82700  0.00600  0.78360  Biso   1.000  N
  H316     1.0000 0.79980  0.02600  0.80230  Biso   1.000  H
  H317     1.0000 0.79640  0.99360  0.76350  Biso   1.000  H
  C381     1.0000 0.02730  0.01890  0.83030  Biso   1.000  C
  C382     1.0000 0.93720  0.02200  0.82000  Biso   1.000  C
  H318     1.0000 0.89530  0.04140  0.83660  Biso   1.000  H
  C383     1.0000 0.90860  0.99670  0.78550  Biso   1.000  C
  C384     1.0000 0.97000  0.96830  0.76120  Biso   1.000  C
  H319     1.0000 0.10200  0.94570  0.75500  Biso   1.000  H
  H320     1.0000 0.15020  0.98840  0.81310  Biso   1.000  H
  In9      1.0000 0.37500  0.37500  0.66994  Biso   1.000  In
  In10     1.0000 0.37500  0.87500  0.16994  Biso   1.000  In
  In11     1.0000 0.87500  0.37500  0.16994  Biso   1.000  In
  In12     1.0000 0.87500  0.87500  0.66994  Biso   1.000  In
  In13     1.0000 0.62500  0.62500  0.91994  Biso   1.000  In
  In14     1.0000 0.62500  0.12500  0.41994  Biso   1.000  In
  In15     1.0000 0.12500  0.62500  0.41994  Biso   1.000  In
  In16     1.0000 0.12500  0.12500  0.91994  Biso   1.000  In
