data_image0
_cell_length_a       15.0954
_cell_length_b       25.789
_cell_length_c       32.274
_cell_angle_alpha    90
_cell_angle_beta     90
_cell_angle_gamma    90

_symmetry_space_group_name_H-M    "P 1"
_symmetry_int_tables_number       1

loop_
  _symmetry_equiv_pos_as_xyz
  'x, y, z'

loop_
  _atom_site_label
  _atom_site_occupancy
  _atom_site_fract_x
  _atom_site_fract_y
  _atom_site_fract_z
  _atom_site_thermal_displace_type
  _atom_site_B_iso_or_equiv
  _atom_site_type_symbol
  O1       1.0000 0.85290  0.43610  0.11610  Biso   1.000  O
  O2       1.0000 0.98830  0.41300  0.10224  Biso   1.000  O
  O3       1.0000 0.00910  0.58820  0.28120  Biso   1.000  O
  O4       1.0000 0.14450  0.56230  0.26929  Biso   1.000  O
  C1       1.0000 0.93530  0.43840  0.12380  Biso   1.000  C
  C2       1.0000 0.06210  0.56100  0.26060  Biso   1.000  C
  N1       1.0000 0.18010  0.49460  0.21020  Biso   1.000  N
  H1       1.0000 0.20500  0.51200  0.23060  Biso   1.000  H
  H2       1.0000 0.21180  0.47300  0.19520  Biso   1.000  H
  C3       1.0000 0.96610  0.47610  0.15720  Biso   1.000  C
  C4       1.0000 0.05470  0.47230  0.16850  Biso   1.000  C
  H3       1.0000 0.09330  0.44980  0.15370  Biso   1.000  H
  C5       1.0000 0.08690  0.50140  0.20150  Biso   1.000  C
  C6       1.0000 0.03050  0.53430  0.22320  Biso   1.000  C
  C7       1.0000 0.94190  0.53800  0.21180  Biso   1.000  C
  C8       1.0000 0.90970  0.50890  0.17890  Biso   1.000  C
  H4       1.0000 0.84910  0.51150  0.17110  Biso   1.000  H
  N2       1.0000 0.16490  0.46760  0.22440  Biso   1.000  N
  H5       1.0000 0.18700  0.48170  0.24690  Biso   1.000  H
  H6       1.0000 0.19530  0.44390  0.21080  Biso   1.000  H
  C9       1.0000 0.96560  0.46480  0.16100  Biso   1.000  C
  C10      1.0000 0.05040  0.45520  0.17600  Biso   1.000  C
  H7       1.0000 0.08680  0.43000  0.16300  Biso   1.000  H
  C11      1.0000 0.08170  0.48260  0.21010  Biso   1.000  C
  C12      1.0000 0.02840  0.51950  0.22920  Biso   1.000  C
  C13      1.0000 0.94370  0.52900  0.21410  Biso   1.000  C
  C14      1.0000 0.91230  0.50170  0.18000  Biso   1.000  C
  H8       1.0000 0.85440  0.50820  0.16980  Biso   1.000  H
  N3       1.0000 0.88900  0.56400  0.23030  Biso   1.000  N
  H9       1.0000 0.90620  0.58220  0.25180  Biso   1.000  H
  H10      1.0000 0.83630  0.56820  0.21960  Biso   1.000  H
  O5       1.0000 0.85290  0.93610  0.61610  Biso   1.000  O
  O6       1.0000 0.98830  0.91300  0.60224  Biso   1.000  O
  O7       1.0000 0.00910  0.08820  0.78120  Biso   1.000  O
  O8       1.0000 0.14450  0.06230  0.76929  Biso   1.000  O
  C15      1.0000 0.93530  0.93840  0.62380  Biso   1.000  C
  C16      1.0000 0.06210  0.06100  0.76060  Biso   1.000  C
  N4       1.0000 0.18010  0.99460  0.71020  Biso   1.000  N
  H11      1.0000 0.20500  0.01200  0.73060  Biso   1.000  H
  H12      1.0000 0.21180  0.97300  0.69520  Biso   1.000  H
  C17      1.0000 0.96610  0.97610  0.65720  Biso   1.000  C
  C18      1.0000 0.05470  0.97230  0.66850  Biso   1.000  C
  H13      1.0000 0.09330  0.94980  0.65370  Biso   1.000  H
  C19      1.0000 0.08690  0.00140  0.70150  Biso   1.000  C
  C20      1.0000 0.03050  0.03430  0.72320  Biso   1.000  C
  C21      1.0000 0.94190  0.03800  0.71180  Biso   1.000  C
  C22      1.0000 0.90970  0.00890  0.67890  Biso   1.000  C
  H14      1.0000 0.84910  0.01150  0.67110  Biso   1.000  H
  N5       1.0000 0.16490  0.96760  0.72440  Biso   1.000  N
  H15      1.0000 0.18700  0.98170  0.74690  Biso   1.000  H
  H16      1.0000 0.19530  0.94390  0.71080  Biso   1.000  H
  C23      1.0000 0.96560  0.96480  0.66100  Biso   1.000  C
  C24      1.0000 0.05040  0.95520  0.67600  Biso   1.000  C
  H17      1.0000 0.08680  0.93000  0.66300  Biso   1.000  H
  C25      1.0000 0.08170  0.98260  0.71010  Biso   1.000  C
  C26      1.0000 0.02840  0.01950  0.72920  Biso   1.000  C
  C27      1.0000 0.94370  0.02900  0.71410  Biso   1.000  C
  C28      1.0000 0.91230  0.00170  0.68000  Biso   1.000  C
  H18      1.0000 0.85440  0.00820  0.66980  Biso   1.000  H
  N6       1.0000 0.88900  0.06400  0.73030  Biso   1.000  N
  H19      1.0000 0.90620  0.08220  0.75180  Biso   1.000  H
  H20      1.0000 0.83630  0.06820  0.71960  Biso   1.000  H
  O9       1.0000 0.35290  0.43610  0.61610  Biso   1.000  O
  O10      1.0000 0.48830  0.41300  0.60224  Biso   1.000  O
  O11      1.0000 0.50910  0.58820  0.78120  Biso   1.000  O
  O12      1.0000 0.64450  0.56230  0.76929  Biso   1.000  O
  C29      1.0000 0.43530  0.43840  0.62380  Biso   1.000  C
  C30      1.0000 0.56210  0.56100  0.76060  Biso   1.000  C
  N7       1.0000 0.68010  0.49460  0.71020  Biso   1.000  N
  H21      1.0000 0.70500  0.51200  0.73060  Biso   1.000  H
  H22      1.0000 0.71180  0.47300  0.69520  Biso   1.000  H
  C31      1.0000 0.46610  0.47610  0.65720  Biso   1.000  C
  C32      1.0000 0.55470  0.47230  0.66850  Biso   1.000  C
  H23      1.0000 0.59330  0.44980  0.65370  Biso   1.000  H
  C33      1.0000 0.58690  0.50140  0.70150  Biso   1.000  C
  C34      1.0000 0.53050  0.53430  0.72320  Biso   1.000  C
  C35      1.0000 0.44190  0.53800  0.71180  Biso   1.000  C
  C36      1.0000 0.40970  0.50890  0.67890  Biso   1.000  C
  H24      1.0000 0.34910  0.51150  0.67110  Biso   1.000  H
  N8       1.0000 0.66490  0.46760  0.72440  Biso   1.000  N
  H25      1.0000 0.68700  0.48170  0.74690  Biso   1.000  H
  H26      1.0000 0.69530  0.44390  0.71080  Biso   1.000  H
  C37      1.0000 0.46560  0.46480  0.66100  Biso   1.000  C
  C38      1.0000 0.55040  0.45520  0.67600  Biso   1.000  C
  H27      1.0000 0.58680  0.43000  0.66300  Biso   1.000  H
  C39      1.0000 0.58170  0.48260  0.71010  Biso   1.000  C
  C40      1.0000 0.52840  0.51950  0.72920  Biso   1.000  C
  C41      1.0000 0.44370  0.52900  0.71410  Biso   1.000  C
  C42      1.0000 0.41230  0.50170  0.68000  Biso   1.000  C
  H28      1.0000 0.35440  0.50820  0.66980  Biso   1.000  H
  N9       1.0000 0.38900  0.56400  0.73030  Biso   1.000  N
  H29      1.0000 0.40620  0.58220  0.75180  Biso   1.000  H
  H30      1.0000 0.33630  0.56820  0.71960  Biso   1.000  H
  O13      1.0000 0.35290  0.93610  0.11610  Biso   1.000  O
  O14      1.0000 0.48830  0.91300  0.10224  Biso   1.000  O
  O15      1.0000 0.50910  0.08820  0.28120  Biso   1.000  O
  O16      1.0000 0.64450  0.06230  0.26929  Biso   1.000  O
  C43      1.0000 0.43530  0.93840  0.12380  Biso   1.000  C
  C44      1.0000 0.56210  0.06100  0.26060  Biso   1.000  C
  N10      1.0000 0.68010  0.99460  0.21020  Biso   1.000  N
  H31      1.0000 0.70500  0.01200  0.23060  Biso   1.000  H
  H32      1.0000 0.71180  0.97300  0.19520  Biso   1.000  H
  C45      1.0000 0.46610  0.97610  0.15720  Biso   1.000  C
  C46      1.0000 0.55470  0.97230  0.16850  Biso   1.000  C
  H33      1.0000 0.59330  0.94980  0.15370  Biso   1.000  H
  C47      1.0000 0.58690  0.00140  0.20150  Biso   1.000  C
  C48      1.0000 0.53050  0.03430  0.22320  Biso   1.000  C
  C49      1.0000 0.44190  0.03800  0.21180  Biso   1.000  C
  C50      1.0000 0.40970  0.00890  0.17890  Biso   1.000  C
  H34      1.0000 0.34910  0.01150  0.17110  Biso   1.000  H
  N11      1.0000 0.66490  0.96760  0.22440  Biso   1.000  N
  H35      1.0000 0.68700  0.98170  0.24690  Biso   1.000  H
  H36      1.0000 0.69530  0.94390  0.21080  Biso   1.000  H
  C51      1.0000 0.46560  0.96480  0.16100  Biso   1.000  C
  C52      1.0000 0.55040  0.95520  0.17600  Biso   1.000  C
  H37      1.0000 0.58680  0.93000  0.16300  Biso   1.000  H
  C53      1.0000 0.58170  0.98260  0.21010  Biso   1.000  C
  C54      1.0000 0.52840  0.01950  0.22920  Biso   1.000  C
  C55      1.0000 0.44370  0.02900  0.21410  Biso   1.000  C
  C56      1.0000 0.41230  0.00170  0.18000  Biso   1.000  C
  H38      1.0000 0.35440  0.00820  0.16980  Biso   1.000  H
  N12      1.0000 0.38900  0.06400  0.23030  Biso   1.000  N
  H39      1.0000 0.40620  0.08220  0.25180  Biso   1.000  H
  H40      1.0000 0.33630  0.06820  0.21960  Biso   1.000  H
  O17      1.0000 0.89710  0.31390  0.11610  Biso   1.000  O
  O18      1.0000 0.76170  0.33700  0.10224  Biso   1.000  O
  O19      1.0000 0.74090  0.16180  0.28120  Biso   1.000  O
  O20      1.0000 0.60550  0.18770  0.26929  Biso   1.000  O
  C57      1.0000 0.81470  0.31160  0.12380  Biso   1.000  C
  C58      1.0000 0.68790  0.18900  0.26060  Biso   1.000  C
  N13      1.0000 0.56990  0.25540  0.21020  Biso   1.000  N
  H41      1.0000 0.54500  0.23800  0.23060  Biso   1.000  H
  H42      1.0000 0.53820  0.27700  0.19520  Biso   1.000  H
  C59      1.0000 0.78390  0.27390  0.15720  Biso   1.000  C
  C60      1.0000 0.69530  0.27770  0.16850  Biso   1.000  C
  H43      1.0000 0.65670  0.30020  0.15370  Biso   1.000  H
  C61      1.0000 0.66310  0.24860  0.20150  Biso   1.000  C
  C62      1.0000 0.71950  0.21570  0.22320  Biso   1.000  C
  C63      1.0000 0.80810  0.21200  0.21180  Biso   1.000  C
  C64      1.0000 0.84030  0.24110  0.17890  Biso   1.000  C
  H44      1.0000 0.90090  0.23850  0.17110  Biso   1.000  H
  N14      1.0000 0.58510  0.28240  0.22440  Biso   1.000  N
  H45      1.0000 0.56300  0.26830  0.24690  Biso   1.000  H
  H46      1.0000 0.55470  0.30610  0.21080  Biso   1.000  H
  C65      1.0000 0.78440  0.28520  0.16100  Biso   1.000  C
  C66      1.0000 0.69960  0.29480  0.17600  Biso   1.000  C
  H47      1.0000 0.66320  0.32000  0.16300  Biso   1.000  H
  C67      1.0000 0.66830  0.26740  0.21010  Biso   1.000  C
  C68      1.0000 0.72160  0.23050  0.22920  Biso   1.000  C
  C69      1.0000 0.80630  0.22100  0.21410  Biso   1.000  C
  C70      1.0000 0.83770  0.24830  0.18000  Biso   1.000  C
  H48      1.0000 0.89560  0.24180  0.16980  Biso   1.000  H
  N15      1.0000 0.86100  0.18600  0.23030  Biso   1.000  N
  H49      1.0000 0.84380  0.16780  0.25180  Biso   1.000  H
  H50      1.0000 0.91370  0.18180  0.21960  Biso   1.000  H
  O21      1.0000 0.89710  0.81390  0.61610  Biso   1.000  O
  O22      1.0000 0.76170  0.83700  0.60224  Biso   1.000  O
  O23      1.0000 0.74090  0.66180  0.78120  Biso   1.000  O
  O24      1.0000 0.60550  0.68770  0.76929  Biso   1.000  O
  C71      1.0000 0.81470  0.81160  0.62380  Biso   1.000  C
  C72      1.0000 0.68790  0.68900  0.76060  Biso   1.000  C
  N16      1.0000 0.56990  0.75540  0.71020  Biso   1.000  N
  H51      1.0000 0.54500  0.73800  0.73060  Biso   1.000  H
  H52      1.0000 0.53820  0.77700  0.69520  Biso   1.000  H
  C73      1.0000 0.78390  0.77390  0.65720  Biso   1.000  C
  C74      1.0000 0.69530  0.77770  0.66850  Biso   1.000  C
  H53      1.0000 0.65670  0.80020  0.65370  Biso   1.000  H
  C75      1.0000 0.66310  0.74860  0.70150  Biso   1.000  C
  C76      1.0000 0.71950  0.71570  0.72320  Biso   1.000  C
  C77      1.0000 0.80810  0.71200  0.71180  Biso   1.000  C
  C78      1.0000 0.84030  0.74110  0.67890  Biso   1.000  C
  H54      1.0000 0.90090  0.73850  0.67110  Biso   1.000  H
  N17      1.0000 0.58510  0.78240  0.72440  Biso   1.000  N
  H55      1.0000 0.56300  0.76830  0.74690  Biso   1.000  H
  H56      1.0000 0.55470  0.80610  0.71080  Biso   1.000  H
  C79      1.0000 0.78440  0.78520  0.66100  Biso   1.000  C
  C80      1.0000 0.69960  0.79480  0.67600  Biso   1.000  C
  H57      1.0000 0.66320  0.82000  0.66300  Biso   1.000  H
  C81      1.0000 0.66830  0.76740  0.71010  Biso   1.000  C
  C82      1.0000 0.72160  0.73050  0.72920  Biso   1.000  C
  C83      1.0000 0.80630  0.72100  0.71410  Biso   1.000  C
  C84      1.0000 0.83770  0.74830  0.68000  Biso   1.000  C
  H58      1.0000 0.89560  0.74180  0.66980  Biso   1.000  H
  N18      1.0000 0.86100  0.68600  0.73030  Biso   1.000  N
  H59      1.0000 0.84380  0.66780  0.75180  Biso   1.000  H
  H60      1.0000 0.91370  0.68180  0.71960  Biso   1.000  H
  O25      1.0000 0.39710  0.31390  0.61610  Biso   1.000  O
  O26      1.0000 0.26170  0.33700  0.60224  Biso   1.000  O
  O27      1.0000 0.24090  0.16180  0.78120  Biso   1.000  O
  O28      1.0000 0.10550  0.18770  0.76929  Biso   1.000  O
  C85      1.0000 0.31470  0.31160  0.62380  Biso   1.000  C
  C86      1.0000 0.18790  0.18900  0.76060  Biso   1.000  C
  N19      1.0000 0.06990  0.25540  0.71020  Biso   1.000  N
  H61      1.0000 0.04500  0.23800  0.73060  Biso   1.000  H
  H62      1.0000 0.03820  0.27700  0.69520  Biso   1.000  H
  C87      1.0000 0.28390  0.27390  0.65720  Biso   1.000  C
  C88      1.0000 0.19530  0.27770  0.66850  Biso   1.000  C
  H63      1.0000 0.15670  0.30020  0.65370  Biso   1.000  H
  C89      1.0000 0.16310  0.24860  0.70150  Biso   1.000  C
  C90      1.0000 0.21950  0.21570  0.72320  Biso   1.000  C
  C91      1.0000 0.30810  0.21200  0.71180  Biso   1.000  C
  C92      1.0000 0.34030  0.24110  0.67890  Biso   1.000  C
  H64      1.0000 0.40090  0.23850  0.67110  Biso   1.000  H
  N20      1.0000 0.08510  0.28240  0.72440  Biso   1.000  N
  H65      1.0000 0.06300  0.26830  0.74690  Biso   1.000  H
  H66      1.0000 0.05470  0.30610  0.71080  Biso   1.000  H
  C93      1.0000 0.28440  0.28520  0.66100  Biso   1.000  C
  C94      1.0000 0.19960  0.29480  0.67600  Biso   1.000  C
  H67      1.0000 0.16320  0.32000  0.66300  Biso   1.000  H
  C95      1.0000 0.16830  0.26740  0.71010  Biso   1.000  C
  C96      1.0000 0.22160  0.23050  0.72920  Biso   1.000  C
  C97      1.0000 0.30630  0.22100  0.71410  Biso   1.000  C
  C98      1.0000 0.33770  0.24830  0.68000  Biso   1.000  C
  H68      1.0000 0.39560  0.24180  0.66980  Biso   1.000  H
  N21      1.0000 0.36100  0.18600  0.73030  Biso   1.000  N
  H69      1.0000 0.34380  0.16780  0.75180  Biso   1.000  H
  H70      1.0000 0.41370  0.18180  0.71960  Biso   1.000  H
  O29      1.0000 0.39710  0.81390  0.11610  Biso   1.000  O
  O30      1.0000 0.26170  0.83700  0.10224  Biso   1.000  O
  O31      1.0000 0.24090  0.66180  0.28120  Biso   1.000  O
  O32      1.0000 0.10550  0.68770  0.26929  Biso   1.000  O
  C99      1.0000 0.31470  0.81160  0.12380  Biso   1.000  C
  C100     1.0000 0.18790  0.68900  0.26060  Biso   1.000  C
  N22      1.0000 0.06990  0.75540  0.21020  Biso   1.000  N
  H71      1.0000 0.04500  0.73800  0.23060  Biso   1.000  H
  H72      1.0000 0.03820  0.77700  0.19520  Biso   1.000  H
  C101     1.0000 0.28390  0.77390  0.15720  Biso   1.000  C
  C102     1.0000 0.19530  0.77770  0.16850  Biso   1.000  C
  H73      1.0000 0.15670  0.80020  0.15370  Biso   1.000  H
  C103     1.0000 0.16310  0.74860  0.20150  Biso   1.000  C
  C104     1.0000 0.21950  0.71570  0.22320  Biso   1.000  C
  C105     1.0000 0.30810  0.71200  0.21180  Biso   1.000  C
  C106     1.0000 0.34030  0.74110  0.17890  Biso   1.000  C
  H74      1.0000 0.40090  0.73850  0.17110  Biso   1.000  H
  N23      1.0000 0.08510  0.78240  0.22440  Biso   1.000  N
  H75      1.0000 0.06300  0.76830  0.24690  Biso   1.000  H
  H76      1.0000 0.05470  0.80610  0.21080  Biso   1.000  H
  C107     1.0000 0.28440  0.78520  0.16100  Biso   1.000  C
  C108     1.0000 0.19960  0.79480  0.17600  Biso   1.000  C
  H77      1.0000 0.16320  0.82000  0.16300  Biso   1.000  H
  C109     1.0000 0.16830  0.76740  0.21010  Biso   1.000  C
  C110     1.0000 0.22160  0.73050  0.22920  Biso   1.000  C
  C111     1.0000 0.30630  0.72100  0.21410  Biso   1.000  C
  C112     1.0000 0.33770  0.74830  0.18000  Biso   1.000  C
  H78      1.0000 0.39560  0.74180  0.16980  Biso   1.000  H
  N24      1.0000 0.36100  0.68600  0.23030  Biso   1.000  N
  H79      1.0000 0.34380  0.66780  0.25180  Biso   1.000  H
  H80      1.0000 0.41370  0.68180  0.21960  Biso   1.000  H
  O33      1.0000 0.10290  0.56390  0.36610  Biso   1.000  O
  O34      1.0000 0.23830  0.58700  0.35224  Biso   1.000  O
  O35      1.0000 0.25910  0.41180  0.53120  Biso   1.000  O
  O36      1.0000 0.39450  0.43770  0.51929  Biso   1.000  O
  C113     1.0000 0.18530  0.56160  0.37380  Biso   1.000  C
  C114     1.0000 0.31210  0.43900  0.51060  Biso   1.000  C
  N25      1.0000 0.43010  0.50540  0.46020  Biso   1.000  N
  H81      1.0000 0.45500  0.48800  0.48060  Biso   1.000  H
  H82      1.0000 0.46180  0.52700  0.44520  Biso   1.000  H
  C115     1.0000 0.21610  0.52390  0.40720  Biso   1.000  C
  C116     1.0000 0.30470  0.52770  0.41850  Biso   1.000  C
  H83      1.0000 0.34330  0.55020  0.40370  Biso   1.000  H
  C117     1.0000 0.33690  0.49860  0.45150  Biso   1.000  C
  C118     1.0000 0.28050  0.46570  0.47320  Biso   1.000  C
  C119     1.0000 0.19190  0.46200  0.46180  Biso   1.000  C
  C120     1.0000 0.15970  0.49110  0.42890  Biso   1.000  C
  H84      1.0000 0.09910  0.48850  0.42110  Biso   1.000  H
  N26      1.0000 0.41490  0.53240  0.47440  Biso   1.000  N
  H85      1.0000 0.43700  0.51830  0.49690  Biso   1.000  H
  H86      1.0000 0.44530  0.55610  0.46080  Biso   1.000  H
  C121     1.0000 0.21560  0.53520  0.41100  Biso   1.000  C
  C122     1.0000 0.30040  0.54480  0.42600  Biso   1.000  C
  H87      1.0000 0.33680  0.57000  0.41300  Biso   1.000  H
  C123     1.0000 0.33170  0.51740  0.46010  Biso   1.000  C
  C124     1.0000 0.27840  0.48050  0.47920  Biso   1.000  C
  C125     1.0000 0.19370  0.47100  0.46410  Biso   1.000  C
  C126     1.0000 0.16230  0.49830  0.43000  Biso   1.000  C
  H88      1.0000 0.10440  0.49180  0.41980  Biso   1.000  H
  N27      1.0000 0.13900  0.43600  0.48030  Biso   1.000  N
  H89      1.0000 0.15620  0.41780  0.50180  Biso   1.000  H
  H90      1.0000 0.08630  0.43180  0.46960  Biso   1.000  H
  O37      1.0000 0.10290  0.06390  0.86610  Biso   1.000  O
  O38      1.0000 0.23830  0.08700  0.85224  Biso   1.000  O
  O39      1.0000 0.25910  0.91180  0.03120  Biso   1.000  O
  O40      1.0000 0.39450  0.93770  0.01929  Biso   1.000  O
  C127     1.0000 0.18530  0.06160  0.87380  Biso   1.000  C
  C128     1.0000 0.31210  0.93900  0.01060  Biso   1.000  C
  N28      1.0000 0.43010  0.00540  0.96020  Biso   1.000  N
  H91      1.0000 0.45500  0.98800  0.98060  Biso   1.000  H
  H92      1.0000 0.46180  0.02700  0.94520  Biso   1.000  H
  C129     1.0000 0.21610  0.02390  0.90720  Biso   1.000  C
  C130     1.0000 0.30470  0.02770  0.91850  Biso   1.000  C
  H93      1.0000 0.34330  0.05020  0.90370  Biso   1.000  H
  C131     1.0000 0.33690  0.99860  0.95150  Biso   1.000  C
  C132     1.0000 0.28050  0.96570  0.97320  Biso   1.000  C
  C133     1.0000 0.19190  0.96200  0.96180  Biso   1.000  C
  C134     1.0000 0.15970  0.99110  0.92890  Biso   1.000  C
  H94      1.0000 0.09910  0.98850  0.92110  Biso   1.000  H
  N29      1.0000 0.41490  0.03240  0.97440  Biso   1.000  N
  H95      1.0000 0.43700  0.01830  0.99690  Biso   1.000  H
  H96      1.0000 0.44530  0.05610  0.96080  Biso   1.000  H
  C135     1.0000 0.21560  0.03520  0.91100  Biso   1.000  C
  C136     1.0000 0.30040  0.04480  0.92600  Biso   1.000  C
  H97      1.0000 0.33680  0.07000  0.91300  Biso   1.000  H
  C137     1.0000 0.33170  0.01740  0.96010  Biso   1.000  C
  C138     1.0000 0.27840  0.98050  0.97920  Biso   1.000  C
  C139     1.0000 0.19370  0.97100  0.96410  Biso   1.000  C
  C140     1.0000 0.16230  0.99830  0.93000  Biso   1.000  C
  H98      1.0000 0.10440  0.99180  0.91980  Biso   1.000  H
  N30      1.0000 0.13900  0.93600  0.98030  Biso   1.000  N
  H99      1.0000 0.15620  0.91780  0.00180  Biso   1.000  H
  H100     1.0000 0.08630  0.93180  0.96960  Biso   1.000  H
  O41      1.0000 0.60290  0.56390  0.86610  Biso   1.000  O
  O42      1.0000 0.73830  0.58700  0.85224  Biso   1.000  O
  O43      1.0000 0.75910  0.41180  0.03120  Biso   1.000  O
  O44      1.0000 0.89450  0.43770  0.01929  Biso   1.000  O
  C141     1.0000 0.68530  0.56160  0.87380  Biso   1.000  C
  C142     1.0000 0.81210  0.43900  0.01060  Biso   1.000  C
  N31      1.0000 0.93010  0.50540  0.96020  Biso   1.000  N
  H101     1.0000 0.95500  0.48800  0.98060  Biso   1.000  H
  H102     1.0000 0.96180  0.52700  0.94520  Biso   1.000  H
  C143     1.0000 0.71610  0.52390  0.90720  Biso   1.000  C
  C144     1.0000 0.80470  0.52770  0.91850  Biso   1.000  C
  H103     1.0000 0.84330  0.55020  0.90370  Biso   1.000  H
  C145     1.0000 0.83690  0.49860  0.95150  Biso   1.000  C
  C146     1.0000 0.78050  0.46570  0.97320  Biso   1.000  C
  C147     1.0000 0.69190  0.46200  0.96180  Biso   1.000  C
  C148     1.0000 0.65970  0.49110  0.92890  Biso   1.000  C
  H104     1.0000 0.59910  0.48850  0.92110  Biso   1.000  H
  N32      1.0000 0.91490  0.53240  0.97440  Biso   1.000  N
  H105     1.0000 0.93700  0.51830  0.99690  Biso   1.000  H
  H106     1.0000 0.94530  0.55610  0.96080  Biso   1.000  H
  C149     1.0000 0.71560  0.53520  0.91100  Biso   1.000  C
  C150     1.0000 0.80040  0.54480  0.92600  Biso   1.000  C
  H107     1.0000 0.83680  0.57000  0.91300  Biso   1.000  H
  C151     1.0000 0.83170  0.51740  0.96010  Biso   1.000  C
  C152     1.0000 0.77840  0.48050  0.97920  Biso   1.000  C
  C153     1.0000 0.69370  0.47100  0.96410  Biso   1.000  C
  C154     1.0000 0.66230  0.49830  0.93000  Biso   1.000  C
  H108     1.0000 0.60440  0.49180  0.91980  Biso   1.000  H
  N33      1.0000 0.63900  0.43600  0.98030  Biso   1.000  N
  H109     1.0000 0.65620  0.41780  0.00180  Biso   1.000  H
  H110     1.0000 0.58630  0.43180  0.96960  Biso   1.000  H
  O45      1.0000 0.60290  0.06390  0.36610  Biso   1.000  O
  O46      1.0000 0.73830  0.08700  0.35224  Biso   1.000  O
  O47      1.0000 0.75910  0.91180  0.53120  Biso   1.000  O
  O48      1.0000 0.89450  0.93770  0.51929  Biso   1.000  O
  C155     1.0000 0.68530  0.06160  0.37380  Biso   1.000  C
  C156     1.0000 0.81210  0.93900  0.51060  Biso   1.000  C
  N34      1.0000 0.93010  0.00540  0.46020  Biso   1.000  N
  H111     1.0000 0.95500  0.98800  0.48060  Biso   1.000  H
  H112     1.0000 0.96180  0.02700  0.44520  Biso   1.000  H
  C157     1.0000 0.71610  0.02390  0.40720  Biso   1.000  C
  C158     1.0000 0.80470  0.02770  0.41850  Biso   1.000  C
  H113     1.0000 0.84330  0.05020  0.40370  Biso   1.000  H
  C159     1.0000 0.83690  0.99860  0.45150  Biso   1.000  C
  C160     1.0000 0.78050  0.96570  0.47320  Biso   1.000  C
  C161     1.0000 0.69190  0.96200  0.46180  Biso   1.000  C
  C162     1.0000 0.65970  0.99110  0.42890  Biso   1.000  C
  H114     1.0000 0.59910  0.98850  0.42110  Biso   1.000  H
  N35      1.0000 0.91490  0.03240  0.47440  Biso   1.000  N
  H115     1.0000 0.93700  0.01830  0.49690  Biso   1.000  H
  H116     1.0000 0.94530  0.05610  0.46080  Biso   1.000  H
  C163     1.0000 0.71560  0.03520  0.41100  Biso   1.000  C
  C164     1.0000 0.80040  0.04480  0.42600  Biso   1.000  C
  H117     1.0000 0.83680  0.07000  0.41300  Biso   1.000  H
  C165     1.0000 0.83170  0.01740  0.46010  Biso   1.000  C
  C166     1.0000 0.77840  0.98050  0.47920  Biso   1.000  C
  C167     1.0000 0.69370  0.97100  0.46410  Biso   1.000  C
  C168     1.0000 0.66230  0.99830  0.43000  Biso   1.000  C
  H118     1.0000 0.60440  0.99180  0.41980  Biso   1.000  H
  N36      1.0000 0.63900  0.93600  0.48030  Biso   1.000  N
  H119     1.0000 0.65620  0.91780  0.50180  Biso   1.000  H
  H120     1.0000 0.58630  0.93180  0.46960  Biso   1.000  H
  O49      1.0000 0.14710  0.68610  0.36610  Biso   1.000  O
  O50      1.0000 0.01170  0.66300  0.35224  Biso   1.000  O
  O51      1.0000 0.99090  0.83820  0.53120  Biso   1.000  O
  O52      1.0000 0.85550  0.81230  0.51929  Biso   1.000  O
  C169     1.0000 0.06470  0.68840  0.37380  Biso   1.000  C
  C170     1.0000 0.93790  0.81100  0.51060  Biso   1.000  C
  N37      1.0000 0.81990  0.74460  0.46020  Biso   1.000  N
  H121     1.0000 0.79500  0.76200  0.48060  Biso   1.000  H
  H122     1.0000 0.78820  0.72300  0.44520  Biso   1.000  H
  C171     1.0000 0.03390  0.72610  0.40720  Biso   1.000  C
  C172     1.0000 0.94530  0.72230  0.41850  Biso   1.000  C
  H123     1.0000 0.90670  0.69980  0.40370  Biso   1.000  H
  C173     1.0000 0.91310  0.75140  0.45150  Biso   1.000  C
  C174     1.0000 0.96950  0.78430  0.47320  Biso   1.000  C
  C175     1.0000 0.05810  0.78800  0.46180  Biso   1.000  C
  C176     1.0000 0.09030  0.75890  0.42890  Biso   1.000  C
  H124     1.0000 0.15090  0.76150  0.42110  Biso   1.000  H
  N38      1.0000 0.83510  0.71760  0.47440  Biso   1.000  N
  H125     1.0000 0.81300  0.73170  0.49690  Biso   1.000  H
  H126     1.0000 0.80470  0.69390  0.46080  Biso   1.000  H
  C177     1.0000 0.03440  0.71480  0.41100  Biso   1.000  C
  C178     1.0000 0.94960  0.70520  0.42600  Biso   1.000  C
  H127     1.0000 0.91320  0.68000  0.41300  Biso   1.000  H
  C179     1.0000 0.91830  0.73260  0.46010  Biso   1.000  C
  C180     1.0000 0.97160  0.76950  0.47920  Biso   1.000  C
  C181     1.0000 0.05630  0.77900  0.46410  Biso   1.000  C
  C182     1.0000 0.08770  0.75170  0.43000  Biso   1.000  C
  H128     1.0000 0.14560  0.75820  0.41980  Biso   1.000  H
  N39      1.0000 0.11100  0.81400  0.48030  Biso   1.000  N
  H129     1.0000 0.09380  0.83220  0.50180  Biso   1.000  H
  H130     1.0000 0.16370  0.81820  0.46960  Biso   1.000  H
  O53      1.0000 0.14710  0.18610  0.86610  Biso   1.000  O
  O54      1.0000 0.01170  0.16300  0.85224  Biso   1.000  O
  O55      1.0000 0.99090  0.33820  0.03120  Biso   1.000  O
  O56      1.0000 0.85550  0.31230  0.01929  Biso   1.000  O
  C183     1.0000 0.06470  0.18840  0.87380  Biso   1.000  C
  C184     1.0000 0.93790  0.31100  0.01060  Biso   1.000  C
  N40      1.0000 0.81990  0.24460  0.96020  Biso   1.000  N
  H131     1.0000 0.79500  0.26200  0.98060  Biso   1.000  H
  H132     1.0000 0.78820  0.22300  0.94520  Biso   1.000  H
  C185     1.0000 0.03390  0.22610  0.90720  Biso   1.000  C
  C186     1.0000 0.94530  0.22230  0.91850  Biso   1.000  C
  H133     1.0000 0.90670  0.19980  0.90370  Biso   1.000  H
  C187     1.0000 0.91310  0.25140  0.95150  Biso   1.000  C
  C188     1.0000 0.96950  0.28430  0.97320  Biso   1.000  C
  C189     1.0000 0.05810  0.28800  0.96180  Biso   1.000  C
  C190     1.0000 0.09030  0.25890  0.92890  Biso   1.000  C
  H134     1.0000 0.15090  0.26150  0.92110  Biso   1.000  H
  N41      1.0000 0.83510  0.21760  0.97440  Biso   1.000  N
  H135     1.0000 0.81300  0.23170  0.99690  Biso   1.000  H
  H136     1.0000 0.80470  0.19390  0.96080  Biso   1.000  H
  C191     1.0000 0.03440  0.21480  0.91100  Biso   1.000  C
  C192     1.0000 0.94960  0.20520  0.92600  Biso   1.000  C
  H137     1.0000 0.91320  0.18000  0.91300  Biso   1.000  H
  C193     1.0000 0.91830  0.23260  0.96010  Biso   1.000  C
  C194     1.0000 0.97160  0.26950  0.97920  Biso   1.000  C
  C195     1.0000 0.05630  0.27900  0.96410  Biso   1.000  C
  C196     1.0000 0.08770  0.25170  0.93000  Biso   1.000  C
  H138     1.0000 0.14560  0.25820  0.91980  Biso   1.000  H
  N42      1.0000 0.11100  0.31400  0.98030  Biso   1.000  N
  H139     1.0000 0.09380  0.33220  0.00180  Biso   1.000  H
  H140     1.0000 0.16370  0.31820  0.96960  Biso   1.000  H
  O57      1.0000 0.64710  0.68610  0.86610  Biso   1.000  O
  O58      1.0000 0.51170  0.66300  0.85224  Biso   1.000  O
  O59      1.0000 0.49090  0.83820  0.03120  Biso   1.000  O
  O60      1.0000 0.35550  0.81230  0.01929  Biso   1.000  O
  C197     1.0000 0.56470  0.68840  0.87380  Biso   1.000  C
  C198     1.0000 0.43790  0.81100  0.01060  Biso   1.000  C
  N43      1.0000 0.31990  0.74460  0.96020  Biso   1.000  N
  H141     1.0000 0.29500  0.76200  0.98060  Biso   1.000  H
  H142     1.0000 0.28820  0.72300  0.94520  Biso   1.000  H
  C199     1.0000 0.53390  0.72610  0.90720  Biso   1.000  C
  C200     1.0000 0.44530  0.72230  0.91850  Biso   1.000  C
  H143     1.0000 0.40670  0.69980  0.90370  Biso   1.000  H
  C201     1.0000 0.41310  0.75140  0.95150  Biso   1.000  C
  C202     1.0000 0.46950  0.78430  0.97320  Biso   1.000  C
  C203     1.0000 0.55810  0.78800  0.96180  Biso   1.000  C
  C204     1.0000 0.59030  0.75890  0.92890  Biso   1.000  C
  H144     1.0000 0.65090  0.76150  0.92110  Biso   1.000  H
  N44      1.0000 0.33510  0.71760  0.97440  Biso   1.000  N
  H145     1.0000 0.31300  0.73170  0.99690  Biso   1.000  H
  H146     1.0000 0.30470  0.69390  0.96080  Biso   1.000  H
  C205     1.0000 0.53440  0.71480  0.91100  Biso   1.000  C
  C206     1.0000 0.44960  0.70520  0.92600  Biso   1.000  C
  H147     1.0000 0.41320  0.68000  0.91300  Biso   1.000  H
  C207     1.0000 0.41830  0.73260  0.96010  Biso   1.000  C
  C208     1.0000 0.47160  0.76950  0.97920  Biso   1.000  C
  C209     1.0000 0.55630  0.77900  0.96410  Biso   1.000  C
  C210     1.0000 0.58770  0.75170  0.93000  Biso   1.000  C
  H148     1.0000 0.64560  0.75820  0.91980  Biso   1.000  H
  N45      1.0000 0.61100  0.81400  0.98030  Biso   1.000  N
  H149     1.0000 0.59380  0.83220  0.00180  Biso   1.000  H
  H150     1.0000 0.66370  0.81820  0.96960  Biso   1.000  H
  O61      1.0000 0.64710  0.18610  0.36610  Biso   1.000  O
  O62      1.0000 0.51170  0.16300  0.35224  Biso   1.000  O
  O63      1.0000 0.49090  0.33820  0.53120  Biso   1.000  O
  O64      1.0000 0.35550  0.31230  0.51929  Biso   1.000  O
  C211     1.0000 0.56470  0.18840  0.37380  Biso   1.000  C
  C212     1.0000 0.43790  0.31100  0.51060  Biso   1.000  C
  N46      1.0000 0.31990  0.24460  0.46020  Biso   1.000  N
  H151     1.0000 0.29500  0.26200  0.48060  Biso   1.000  H
  H152     1.0000 0.28820  0.22300  0.44520  Biso   1.000  H
  C213     1.0000 0.53390  0.22610  0.40720  Biso   1.000  C
  C214     1.0000 0.44530  0.22230  0.41850  Biso   1.000  C
  H153     1.0000 0.40670  0.19980  0.40370  Biso   1.000  H
  C215     1.0000 0.41310  0.25140  0.45150  Biso   1.000  C
  C216     1.0000 0.46950  0.28430  0.47320  Biso   1.000  C
  C217     1.0000 0.55810  0.28800  0.46180  Biso   1.000  C
  C218     1.0000 0.59030  0.25890  0.42890  Biso   1.000  C
  H154     1.0000 0.65090  0.26150  0.42110  Biso   1.000  H
  N47      1.0000 0.33510  0.21760  0.47440  Biso   1.000  N
  H155     1.0000 0.31300  0.23170  0.49690  Biso   1.000  H
  H156     1.0000 0.30470  0.19390  0.46080  Biso   1.000  H
  C219     1.0000 0.53440  0.21480  0.41100  Biso   1.000  C
  C220     1.0000 0.44960  0.20520  0.42600  Biso   1.000  C
  H157     1.0000 0.41320  0.18000  0.41300  Biso   1.000  H
  C221     1.0000 0.41830  0.23260  0.46010  Biso   1.000  C
  C222     1.0000 0.47160  0.26950  0.47920  Biso   1.000  C
  C223     1.0000 0.55630  0.27900  0.46410  Biso   1.000  C
  C224     1.0000 0.58770  0.25170  0.43000  Biso   1.000  C
  H158     1.0000 0.64560  0.25820  0.41980  Biso   1.000  H
  N48      1.0000 0.61100  0.31400  0.48030  Biso   1.000  N
  H159     1.0000 0.59380  0.33220  0.50180  Biso   1.000  H
  H160     1.0000 0.66370  0.31820  0.46960  Biso   1.000  H
  In1      1.0000 0.87500  0.37500  0.06641  Biso   1.000  In
  In2      1.0000 0.87500  0.87500  0.56641  Biso   1.000  In
  In3      1.0000 0.37500  0.37500  0.56641  Biso   1.000  In
  In4      1.0000 0.37500  0.87500  0.06641  Biso   1.000  In
  In5      1.0000 0.12500  0.62500  0.31641  Biso   1.000  In
  In6      1.0000 0.12500  0.12500  0.81641  Biso   1.000  In
  In7      1.0000 0.62500  0.62500  0.81641  Biso   1.000  In
  In8      1.0000 0.62500  0.12500  0.31641  Biso   1.000  In
  O65      1.0000 0.89710  0.43610  0.63390  Biso   1.000  O
  O66      1.0000 0.76170  0.41300  0.64776  Biso   1.000  O
  O67      1.0000 0.74090  0.58820  0.46880  Biso   1.000  O
  O68      1.0000 0.60550  0.56230  0.48071  Biso   1.000  O
  C225     1.0000 0.81470  0.43840  0.62620  Biso   1.000  C
  C226     1.0000 0.68790  0.56100  0.48940  Biso   1.000  C
  N49      1.0000 0.56990  0.49460  0.53980  Biso   1.000  N
  H161     1.0000 0.54500  0.51200  0.51940  Biso   1.000  H
  H162     1.0000 0.53820  0.47300  0.55480  Biso   1.000  H
  C227     1.0000 0.78390  0.47610  0.59280  Biso   1.000  C
  C228     1.0000 0.69530  0.47230  0.58150  Biso   1.000  C
  H163     1.0000 0.65670  0.44980  0.59630  Biso   1.000  H
  C229     1.0000 0.66310  0.50140  0.54850  Biso   1.000  C
  C230     1.0000 0.71950  0.53430  0.52680  Biso   1.000  C
  C231     1.0000 0.80810  0.53800  0.53820  Biso   1.000  C
  C232     1.0000 0.84030  0.50890  0.57110  Biso   1.000  C
  H164     1.0000 0.90090  0.51150  0.57890  Biso   1.000  H
  N50      1.0000 0.58510  0.46760  0.52560  Biso   1.000  N
  H165     1.0000 0.56300  0.48170  0.50310  Biso   1.000  H
  H166     1.0000 0.55470  0.44390  0.53920  Biso   1.000  H
  C233     1.0000 0.78440  0.46480  0.58900  Biso   1.000  C
  C234     1.0000 0.69960  0.45520  0.57400  Biso   1.000  C
  H167     1.0000 0.66320  0.43000  0.58700  Biso   1.000  H
  C235     1.0000 0.66830  0.48260  0.53990  Biso   1.000  C
  C236     1.0000 0.72160  0.51950  0.52080  Biso   1.000  C
  C237     1.0000 0.80630  0.52900  0.53590  Biso   1.000  C
  C238     1.0000 0.83770  0.50170  0.57000  Biso   1.000  C
  H168     1.0000 0.89560  0.50820  0.58020  Biso   1.000  H
  N51      1.0000 0.86100  0.56400  0.51970  Biso   1.000  N
  H169     1.0000 0.84380  0.58220  0.49820  Biso   1.000  H
  H170     1.0000 0.91370  0.56820  0.53040  Biso   1.000  H
  O69      1.0000 0.89710  0.93610  0.13390  Biso   1.000  O
  O70      1.0000 0.76170  0.91300  0.14776  Biso   1.000  O
  O71      1.0000 0.74090  0.08820  0.96880  Biso   1.000  O
  O72      1.0000 0.60550  0.06230  0.98071  Biso   1.000  O
  C239     1.0000 0.81470  0.93840  0.12620  Biso   1.000  C
  C240     1.0000 0.68790  0.06100  0.98940  Biso   1.000  C
  N52      1.0000 0.56990  0.99460  0.03980  Biso   1.000  N
  H171     1.0000 0.54500  0.01200  0.01940  Biso   1.000  H
  H172     1.0000 0.53820  0.97300  0.05480  Biso   1.000  H
  C241     1.0000 0.78390  0.97610  0.09280  Biso   1.000  C
  C242     1.0000 0.69530  0.97230  0.08150  Biso   1.000  C
  H173     1.0000 0.65670  0.94980  0.09630  Biso   1.000  H
  C243     1.0000 0.66310  0.00140  0.04850  Biso   1.000  C
  C244     1.0000 0.71950  0.03430  0.02680  Biso   1.000  C
  C245     1.0000 0.80810  0.03800  0.03820  Biso   1.000  C
  C246     1.0000 0.84030  0.00890  0.07110  Biso   1.000  C
  H174     1.0000 0.90090  0.01150  0.07890  Biso   1.000  H
  N53      1.0000 0.58510  0.96760  0.02560  Biso   1.000  N
  H175     1.0000 0.56300  0.98170  0.00310  Biso   1.000  H
  H176     1.0000 0.55470  0.94390  0.03920  Biso   1.000  H
  C247     1.0000 0.78440  0.96480  0.08900  Biso   1.000  C
  C248     1.0000 0.69960  0.95520  0.07400  Biso   1.000  C
  H177     1.0000 0.66320  0.93000  0.08700  Biso   1.000  H
  C249     1.0000 0.66830  0.98260  0.03990  Biso   1.000  C
  C250     1.0000 0.72160  0.01950  0.02080  Biso   1.000  C
  C251     1.0000 0.80630  0.02900  0.03590  Biso   1.000  C
  C252     1.0000 0.83770  0.00170  0.07000  Biso   1.000  C
  H178     1.0000 0.89560  0.00820  0.08020  Biso   1.000  H
  N54      1.0000 0.86100  0.06400  0.01970  Biso   1.000  N
  H179     1.0000 0.84380  0.08220  0.99820  Biso   1.000  H
  H180     1.0000 0.91370  0.06820  0.03040  Biso   1.000  H
  O73      1.0000 0.39710  0.43610  0.13390  Biso   1.000  O
  O74      1.0000 0.26170  0.41300  0.14776  Biso   1.000  O
  O75      1.0000 0.24090  0.58820  0.96880  Biso   1.000  O
  O76      1.0000 0.10550  0.56230  0.98071  Biso   1.000  O
  C253     1.0000 0.31470  0.43840  0.12620  Biso   1.000  C
  C254     1.0000 0.18790  0.56100  0.98940  Biso   1.000  C
  N55      1.0000 0.06990  0.49460  0.03980  Biso   1.000  N
  H181     1.0000 0.04500  0.51200  0.01940  Biso   1.000  H
  H182     1.0000 0.03820  0.47300  0.05480  Biso   1.000  H
  C255     1.0000 0.28390  0.47610  0.09280  Biso   1.000  C
  C256     1.0000 0.19530  0.47230  0.08150  Biso   1.000  C
  H183     1.0000 0.15670  0.44980  0.09630  Biso   1.000  H
  C257     1.0000 0.16310  0.50140  0.04850  Biso   1.000  C
  C258     1.0000 0.21950  0.53430  0.02680  Biso   1.000  C
  C259     1.0000 0.30810  0.53800  0.03820  Biso   1.000  C
  C260     1.0000 0.34030  0.50890  0.07110  Biso   1.000  C
  H184     1.0000 0.40090  0.51150  0.07890  Biso   1.000  H
  N56      1.0000 0.08510  0.46760  0.02560  Biso   1.000  N
  H185     1.0000 0.06300  0.48170  0.00310  Biso   1.000  H
  H186     1.0000 0.05470  0.44390  0.03920  Biso   1.000  H
  C261     1.0000 0.28440  0.46480  0.08900  Biso   1.000  C
  C262     1.0000 0.19960  0.45520  0.07400  Biso   1.000  C
  H187     1.0000 0.16320  0.43000  0.08700  Biso   1.000  H
  C263     1.0000 0.16830  0.48260  0.03990  Biso   1.000  C
  C264     1.0000 0.22160  0.51950  0.02080  Biso   1.000  C
  C265     1.0000 0.30630  0.52900  0.03590  Biso   1.000  C
  C266     1.0000 0.33770  0.50170  0.07000  Biso   1.000  C
  H188     1.0000 0.39560  0.50820  0.08020  Biso   1.000  H
  N57      1.0000 0.36100  0.56400  0.01970  Biso   1.000  N
  H189     1.0000 0.34380  0.58220  0.99820  Biso   1.000  H
  H190     1.0000 0.41370  0.56820  0.03040  Biso   1.000  H
  O77      1.0000 0.39710  0.93610  0.63390  Biso   1.000  O
  O78      1.0000 0.26170  0.91300  0.64776  Biso   1.000  O
  O79      1.0000 0.24090  0.08820  0.46880  Biso   1.000  O
  O80      1.0000 0.10550  0.06230  0.48071  Biso   1.000  O
  C267     1.0000 0.31470  0.93840  0.62620  Biso   1.000  C
  C268     1.0000 0.18790  0.06100  0.48940  Biso   1.000  C
  N58      1.0000 0.06990  0.99460  0.53980  Biso   1.000  N
  H191     1.0000 0.04500  0.01200  0.51940  Biso   1.000  H
  H192     1.0000 0.03820  0.97300  0.55480  Biso   1.000  H
  C269     1.0000 0.28390  0.97610  0.59280  Biso   1.000  C
  C270     1.0000 0.19530  0.97230  0.58150  Biso   1.000  C
  H193     1.0000 0.15670  0.94980  0.59630  Biso   1.000  H
  C271     1.0000 0.16310  0.00140  0.54850  Biso   1.000  C
  C272     1.0000 0.21950  0.03430  0.52680  Biso   1.000  C
  C273     1.0000 0.30810  0.03800  0.53820  Biso   1.000  C
  C274     1.0000 0.34030  0.00890  0.57110  Biso   1.000  C
  H194     1.0000 0.40090  0.01150  0.57890  Biso   1.000  H
  N59      1.0000 0.08510  0.96760  0.52560  Biso   1.000  N
  H195     1.0000 0.06300  0.98170  0.50310  Biso   1.000  H
  H196     1.0000 0.05470  0.94390  0.53920  Biso   1.000  H
  C275     1.0000 0.28440  0.96480  0.58900  Biso   1.000  C
  C276     1.0000 0.19960  0.95520  0.57400  Biso   1.000  C
  H197     1.0000 0.16320  0.93000  0.58700  Biso   1.000  H
  C277     1.0000 0.16830  0.98260  0.53990  Biso   1.000  C
  C278     1.0000 0.22160  0.01950  0.52080  Biso   1.000  C
  C279     1.0000 0.30630  0.02900  0.53590  Biso   1.000  C
  C280     1.0000 0.33770  0.00170  0.57000  Biso   1.000  C
  H198     1.0000 0.39560  0.00820  0.58020  Biso   1.000  H
  N60      1.0000 0.36100  0.06400  0.51970  Biso   1.000  N
  H199     1.0000 0.34380  0.08220  0.49820  Biso   1.000  H
  H200     1.0000 0.41370  0.06820  0.53040  Biso   1.000  H
  O81      1.0000 0.85290  0.31390  0.63390  Biso   1.000  O
  O82      1.0000 0.98830  0.33700  0.64776  Biso   1.000  O
  O83      1.0000 0.00910  0.16180  0.46880  Biso   1.000  O
  O84      1.0000 0.14450  0.18770  0.48071  Biso   1.000  O
  C281     1.0000 0.93530  0.31160  0.62620  Biso   1.000  C
  C282     1.0000 0.06210  0.18900  0.48940  Biso   1.000  C
  N61      1.0000 0.18010  0.25540  0.53980  Biso   1.000  N
  H201     1.0000 0.20500  0.23800  0.51940  Biso   1.000  H
  H202     1.0000 0.21180  0.27700  0.55480  Biso   1.000  H
  C283     1.0000 0.96610  0.27390  0.59280  Biso   1.000  C
  C284     1.0000 0.05470  0.27770  0.58150  Biso   1.000  C
  H203     1.0000 0.09330  0.30020  0.59630  Biso   1.000  H
  C285     1.0000 0.08690  0.24860  0.54850  Biso   1.000  C
  C286     1.0000 0.03050  0.21570  0.52680  Biso   1.000  C
  C287     1.0000 0.94190  0.21200  0.53820  Biso   1.000  C
  C288     1.0000 0.90970  0.24110  0.57110  Biso   1.000  C
  H204     1.0000 0.84910  0.23850  0.57890  Biso   1.000  H
  N62      1.0000 0.16490  0.28240  0.52560  Biso   1.000  N
  H205     1.0000 0.18700  0.26830  0.50310  Biso   1.000  H
  H206     1.0000 0.19530  0.30610  0.53920  Biso   1.000  H
  C289     1.0000 0.96560  0.28520  0.58900  Biso   1.000  C
  C290     1.0000 0.05040  0.29480  0.57400  Biso   1.000  C
  H207     1.0000 0.08680  0.32000  0.58700  Biso   1.000  H
  C291     1.0000 0.08170  0.26740  0.53990  Biso   1.000  C
  C292     1.0000 0.02840  0.23050  0.52080  Biso   1.000  C
  C293     1.0000 0.94370  0.22100  0.53590  Biso   1.000  C
  C294     1.0000 0.91230  0.24830  0.57000  Biso   1.000  C
  H208     1.0000 0.85440  0.24180  0.58020  Biso   1.000  H
  N63      1.0000 0.88900  0.18600  0.51970  Biso   1.000  N
  H209     1.0000 0.90620  0.16780  0.49820  Biso   1.000  H
  H210     1.0000 0.83630  0.18180  0.53040  Biso   1.000  H
  O85      1.0000 0.85290  0.81390  0.13390  Biso   1.000  O
  O86      1.0000 0.98830  0.83700  0.14776  Biso   1.000  O
  O87      1.0000 0.00910  0.66180  0.96880  Biso   1.000  O
  O88      1.0000 0.14450  0.68770  0.98071  Biso   1.000  O
  C295     1.0000 0.93530  0.81160  0.12620  Biso   1.000  C
  C296     1.0000 0.06210  0.68900  0.98940  Biso   1.000  C
  N64      1.0000 0.18010  0.75540  0.03980  Biso   1.000  N
  H211     1.0000 0.20500  0.73800  0.01940  Biso   1.000  H
  H212     1.0000 0.21180  0.77700  0.05480  Biso   1.000  H
  C297     1.0000 0.96610  0.77390  0.09280  Biso   1.000  C
  C298     1.0000 0.05470  0.77770  0.08150  Biso   1.000  C
  H213     1.0000 0.09330  0.80020  0.09630  Biso   1.000  H
  C299     1.0000 0.08690  0.74860  0.04850  Biso   1.000  C
  C300     1.0000 0.03050  0.71570  0.02680  Biso   1.000  C
  C301     1.0000 0.94190  0.71200  0.03820  Biso   1.000  C
  C302     1.0000 0.90970  0.74110  0.07110  Biso   1.000  C
  H214     1.0000 0.84910  0.73850  0.07890  Biso   1.000  H
  N65      1.0000 0.16490  0.78240  0.02560  Biso   1.000  N
  H215     1.0000 0.18700  0.76830  0.00310  Biso   1.000  H
  H216     1.0000 0.19530  0.80610  0.03920  Biso   1.000  H
  C303     1.0000 0.96560  0.78520  0.08900  Biso   1.000  C
  C304     1.0000 0.05040  0.79480  0.07400  Biso   1.000  C
  H217     1.0000 0.08680  0.82000  0.08700  Biso   1.000  H
  C305     1.0000 0.08170  0.76740  0.03990  Biso   1.000  C
  C306     1.0000 0.02840  0.73050  0.02080  Biso   1.000  C
  C307     1.0000 0.94370  0.72100  0.03590  Biso   1.000  C
  C308     1.0000 0.91230  0.74830  0.07000  Biso   1.000  C
  H218     1.0000 0.85440  0.74180  0.08020  Biso   1.000  H
  N66      1.0000 0.88900  0.68600  0.01970  Biso   1.000  N
  H219     1.0000 0.90620  0.66780  0.99820  Biso   1.000  H
  H220     1.0000 0.83630  0.68180  0.03040  Biso   1.000  H
  O89      1.0000 0.35290  0.31390  0.13390  Biso   1.000  O
  O90      1.0000 0.48830  0.33700  0.14776  Biso   1.000  O
  O91      1.0000 0.50910  0.16180  0.96880  Biso   1.000  O
  O92      1.0000 0.64450  0.18770  0.98071  Biso   1.000  O
  C309     1.0000 0.43530  0.31160  0.12620  Biso   1.000  C
  C310     1.0000 0.56210  0.18900  0.98940  Biso   1.000  C
  N67      1.0000 0.68010  0.25540  0.03980  Biso   1.000  N
  H221     1.0000 0.70500  0.23800  0.01940  Biso   1.000  H
  H222     1.0000 0.71180  0.27700  0.05480  Biso   1.000  H
  C311     1.0000 0.46610  0.27390  0.09280  Biso   1.000  C
  C312     1.0000 0.55470  0.27770  0.08150  Biso   1.000  C
  H223     1.0000 0.59330  0.30020  0.09630  Biso   1.000  H
  C313     1.0000 0.58690  0.24860  0.04850  Biso   1.000  C
  C314     1.0000 0.53050  0.21570  0.02680  Biso   1.000  C
  C315     1.0000 0.44190  0.21200  0.03820  Biso   1.000  C
  C316     1.0000 0.40970  0.24110  0.07110  Biso   1.000  C
  H224     1.0000 0.34910  0.23850  0.07890  Biso   1.000  H
  N68      1.0000 0.66490  0.28240  0.02560  Biso   1.000  N
  H225     1.0000 0.68700  0.26830  0.00310  Biso   1.000  H
  H226     1.0000 0.69530  0.30610  0.03920  Biso   1.000  H
  C317     1.0000 0.46560  0.28520  0.08900  Biso   1.000  C
  C318     1.0000 0.55040  0.29480  0.07400  Biso   1.000  C
  H227     1.0000 0.58680  0.32000  0.08700  Biso   1.000  H
  C319     1.0000 0.58170  0.26740  0.03990  Biso   1.000  C
  C320     1.0000 0.52840  0.23050  0.02080  Biso   1.000  C
  C321     1.0000 0.44370  0.22100  0.03590  Biso   1.000  C
  C322     1.0000 0.41230  0.24830  0.07000  Biso   1.000  C
  H228     1.0000 0.35440  0.24180  0.08020  Biso   1.000  H
  N69      1.0000 0.38900  0.18600  0.01970  Biso   1.000  N
  H229     1.0000 0.40620  0.16780  0.99820  Biso   1.000  H
  H230     1.0000 0.33630  0.18180  0.03040  Biso   1.000  H
  O93      1.0000 0.35290  0.81390  0.63390  Biso   1.000  O
  O94      1.0000 0.48830  0.83700  0.64776  Biso   1.000  O
  O95      1.0000 0.50910  0.66180  0.46880  Biso   1.000  O
  O96      1.0000 0.64450  0.68770  0.48071  Biso   1.000  O
  C323     1.0000 0.43530  0.81160  0.62620  Biso   1.000  C
  C324     1.0000 0.56210  0.68900  0.48940  Biso   1.000  C
  N70      1.0000 0.68010  0.75540  0.53980  Biso   1.000  N
  H231     1.0000 0.70500  0.73800  0.51940  Biso   1.000  H
  H232     1.0000 0.71180  0.77700  0.55480  Biso   1.000  H
  C325     1.0000 0.46610  0.77390  0.59280  Biso   1.000  C
  C326     1.0000 0.55470  0.77770  0.58150  Biso   1.000  C
  H233     1.0000 0.59330  0.80020  0.59630  Biso   1.000  H
  C327     1.0000 0.58690  0.74860  0.54850  Biso   1.000  C
  C328     1.0000 0.53050  0.71570  0.52680  Biso   1.000  C
  C329     1.0000 0.44190  0.71200  0.53820  Biso   1.000  C
  C330     1.0000 0.40970  0.74110  0.57110  Biso   1.000  C
  H234     1.0000 0.34910  0.73850  0.57890  Biso   1.000  H
  N71      1.0000 0.66490  0.78240  0.52560  Biso   1.000  N
  H235     1.0000 0.68700  0.76830  0.50310  Biso   1.000  H
  H236     1.0000 0.69530  0.80610  0.53920  Biso   1.000  H
  C331     1.0000 0.46560  0.78520  0.58900  Biso   1.000  C
  C332     1.0000 0.55040  0.79480  0.57400  Biso   1.000  C
  H237     1.0000 0.58680  0.82000  0.58700  Biso   1.000  H
  C333     1.0000 0.58170  0.76740  0.53990  Biso   1.000  C
  C334     1.0000 0.52840  0.73050  0.52080  Biso   1.000  C
  C335     1.0000 0.44370  0.72100  0.53590  Biso   1.000  C
  C336     1.0000 0.41230  0.74830  0.57000  Biso   1.000  C
  H238     1.0000 0.35440  0.74180  0.58020  Biso   1.000  H
  N72      1.0000 0.38900  0.68600  0.51970  Biso   1.000  N
  H239     1.0000 0.40620  0.66780  0.49820  Biso   1.000  H
  H240     1.0000 0.33630  0.68180  0.53040  Biso   1.000  H
  O97      1.0000 0.14710  0.56390  0.88390  Biso   1.000  O
  O98      1.0000 0.01170  0.58700  0.89776  Biso   1.000  O
  O99      1.0000 0.99090  0.41180  0.71880  Biso   1.000  O
  O100     1.0000 0.85550  0.43770  0.73071  Biso   1.000  O
  C337     1.0000 0.06470  0.56160  0.87620  Biso   1.000  C
  C338     1.0000 0.93790  0.43900  0.73940  Biso   1.000  C
  N73      1.0000 0.81990  0.50540  0.78980  Biso   1.000  N
  H241     1.0000 0.79500  0.48800  0.76940  Biso   1.000  H
  H242     1.0000 0.78820  0.52700  0.80480  Biso   1.000  H
  C339     1.0000 0.03390  0.52390  0.84280  Biso   1.000  C
  C340     1.0000 0.94530  0.52770  0.83150  Biso   1.000  C
  H243     1.0000 0.90670  0.55020  0.84630  Biso   1.000  H
  C341     1.0000 0.91310  0.49860  0.79850  Biso   1.000  C
  C342     1.0000 0.96950  0.46570  0.77680  Biso   1.000  C
  C343     1.0000 0.05810  0.46200  0.78820  Biso   1.000  C
  C344     1.0000 0.09030  0.49110  0.82110  Biso   1.000  C
  H244     1.0000 0.15090  0.48850  0.82890  Biso   1.000  H
  N74      1.0000 0.83510  0.53240  0.77560  Biso   1.000  N
  H245     1.0000 0.81300  0.51830  0.75310  Biso   1.000  H
  H246     1.0000 0.80470  0.55610  0.78920  Biso   1.000  H
  C345     1.0000 0.03440  0.53520  0.83900  Biso   1.000  C
  C346     1.0000 0.94960  0.54480  0.82400  Biso   1.000  C
  H247     1.0000 0.91320  0.57000  0.83700  Biso   1.000  H
  C347     1.0000 0.91830  0.51740  0.78990  Biso   1.000  C
  C348     1.0000 0.97160  0.48050  0.77080  Biso   1.000  C
  C349     1.0000 0.05630  0.47100  0.78590  Biso   1.000  C
  C350     1.0000 0.08770  0.49830  0.82000  Biso   1.000  C
  H248     1.0000 0.14560  0.49180  0.83020  Biso   1.000  H
  N75      1.0000 0.11100  0.43600  0.76970  Biso   1.000  N
  H249     1.0000 0.09380  0.41780  0.74820  Biso   1.000  H
  H250     1.0000 0.16370  0.43180  0.78040  Biso   1.000  H
  O101     1.0000 0.14710  0.06390  0.38390  Biso   1.000  O
  O102     1.0000 0.01170  0.08700  0.39776  Biso   1.000  O
  O103     1.0000 0.99090  0.91180  0.21880  Biso   1.000  O
  O104     1.0000 0.85550  0.93770  0.23071  Biso   1.000  O
  C351     1.0000 0.06470  0.06160  0.37620  Biso   1.000  C
  C352     1.0000 0.93790  0.93900  0.23940  Biso   1.000  C
  N76      1.0000 0.81990  0.00540  0.28980  Biso   1.000  N
  H251     1.0000 0.79500  0.98800  0.26940  Biso   1.000  H
  H252     1.0000 0.78820  0.02700  0.30480  Biso   1.000  H
  C353     1.0000 0.03390  0.02390  0.34280  Biso   1.000  C
  C354     1.0000 0.94530  0.02770  0.33150  Biso   1.000  C
  H253     1.0000 0.90670  0.05020  0.34630  Biso   1.000  H
  C355     1.0000 0.91310  0.99860  0.29850  Biso   1.000  C
  C356     1.0000 0.96950  0.96570  0.27680  Biso   1.000  C
  C357     1.0000 0.05810  0.96200  0.28820  Biso   1.000  C
  C358     1.0000 0.09030  0.99110  0.32110  Biso   1.000  C
  H254     1.0000 0.15090  0.98850  0.32890  Biso   1.000  H
  N77      1.0000 0.83510  0.03240  0.27560  Biso   1.000  N
  H255     1.0000 0.81300  0.01830  0.25310  Biso   1.000  H
  H256     1.0000 0.80470  0.05610  0.28920  Biso   1.000  H
  C359     1.0000 0.03440  0.03520  0.33900  Biso   1.000  C
  C360     1.0000 0.94960  0.04480  0.32400  Biso   1.000  C
  H257     1.0000 0.91320  0.07000  0.33700  Biso   1.000  H
  C361     1.0000 0.91830  0.01740  0.28990  Biso   1.000  C
  C362     1.0000 0.97160  0.98050  0.27080  Biso   1.000  C
  C363     1.0000 0.05630  0.97100  0.28590  Biso   1.000  C
  C364     1.0000 0.08770  0.99830  0.32000  Biso   1.000  C
  H258     1.0000 0.14560  0.99180  0.33020  Biso   1.000  H
  N78      1.0000 0.11100  0.93600  0.26970  Biso   1.000  N
  H259     1.0000 0.09380  0.91780  0.24820  Biso   1.000  H
  H260     1.0000 0.16370  0.93180  0.28040  Biso   1.000  H
  O105     1.0000 0.64710  0.56390  0.38390  Biso   1.000  O
  O106     1.0000 0.51170  0.58700  0.39776  Biso   1.000  O
  O107     1.0000 0.49090  0.41180  0.21880  Biso   1.000  O
  O108     1.0000 0.35550  0.43770  0.23071  Biso   1.000  O
  C365     1.0000 0.56470  0.56160  0.37620  Biso   1.000  C
  C366     1.0000 0.43790  0.43900  0.23940  Biso   1.000  C
  N79      1.0000 0.31990  0.50540  0.28980  Biso   1.000  N
  H261     1.0000 0.29500  0.48800  0.26940  Biso   1.000  H
  H262     1.0000 0.28820  0.52700  0.30480  Biso   1.000  H
  C367     1.0000 0.53390  0.52390  0.34280  Biso   1.000  C
  C368     1.0000 0.44530  0.52770  0.33150  Biso   1.000  C
  H263     1.0000 0.40670  0.55020  0.34630  Biso   1.000  H
  C369     1.0000 0.41310  0.49860  0.29850  Biso   1.000  C
  C370     1.0000 0.46950  0.46570  0.27680  Biso   1.000  C
  C371     1.0000 0.55810  0.46200  0.28820  Biso   1.000  C
  C372     1.0000 0.59030  0.49110  0.32110  Biso   1.000  C
  H264     1.0000 0.65090  0.48850  0.32890  Biso   1.000  H
  N80      1.0000 0.33510  0.53240  0.27560  Biso   1.000  N
  H265     1.0000 0.31300  0.51830  0.25310  Biso   1.000  H
  H266     1.0000 0.30470  0.55610  0.28920  Biso   1.000  H
  C373     1.0000 0.53440  0.53520  0.33900  Biso   1.000  C
  C374     1.0000 0.44960  0.54480  0.32400  Biso   1.000  C
  H267     1.0000 0.41320  0.57000  0.33700  Biso   1.000  H
  C375     1.0000 0.41830  0.51740  0.28990  Biso   1.000  C
  C376     1.0000 0.47160  0.48050  0.27080  Biso   1.000  C
  C377     1.0000 0.55630  0.47100  0.28590  Biso   1.000  C
  C378     1.0000 0.58770  0.49830  0.32000  Biso   1.000  C
  H268     1.0000 0.64560  0.49180  0.33020  Biso   1.000  H
  N81      1.0000 0.61100  0.43600  0.26970  Biso   1.000  N
  H269     1.0000 0.59380  0.41780  0.24820  Biso   1.000  H
  H270     1.0000 0.66370  0.43180  0.28040  Biso   1.000  H
  O109     1.0000 0.64710  0.06390  0.88390  Biso   1.000  O
  O110     1.0000 0.51170  0.08700  0.89776  Biso   1.000  O
  O111     1.0000 0.49090  0.91180  0.71880  Biso   1.000  O
  O112     1.0000 0.35550  0.93770  0.73071  Biso   1.000  O
  C379     1.0000 0.56470  0.06160  0.87620  Biso   1.000  C
  C380     1.0000 0.43790  0.93900  0.73940  Biso   1.000  C
  N82      1.0000 0.31990  0.00540  0.78980  Biso   1.000  N
  H271     1.0000 0.29500  0.98800  0.76940  Biso   1.000  H
  H272     1.0000 0.28820  0.02700  0.80480  Biso   1.000  H
  C381     1.0000 0.53390  0.02390  0.84280  Biso   1.000  C
  C382     1.0000 0.44530  0.02770  0.83150  Biso   1.000  C
  H273     1.0000 0.40670  0.05020  0.84630  Biso   1.000  H
  C383     1.0000 0.41310  0.99860  0.79850  Biso   1.000  C
  C384     1.0000 0.46950  0.96570  0.77680  Biso   1.000  C
  C385     1.0000 0.55810  0.96200  0.78820  Biso   1.000  C
  C386     1.0000 0.59030  0.99110  0.82110  Biso   1.000  C
  H274     1.0000 0.65090  0.98850  0.82890  Biso   1.000  H
  N83      1.0000 0.33510  0.03240  0.77560  Biso   1.000  N
  H275     1.0000 0.31300  0.01830  0.75310  Biso   1.000  H
  H276     1.0000 0.30470  0.05610  0.78920  Biso   1.000  H
  C387     1.0000 0.53440  0.03520  0.83900  Biso   1.000  C
  C388     1.0000 0.44960  0.04480  0.82400  Biso   1.000  C
  H277     1.0000 0.41320  0.07000  0.83700  Biso   1.000  H
  C389     1.0000 0.41830  0.01740  0.78990  Biso   1.000  C
  C390     1.0000 0.47160  0.98050  0.77080  Biso   1.000  C
  C391     1.0000 0.55630  0.97100  0.78590  Biso   1.000  C
  C392     1.0000 0.58770  0.99830  0.82000  Biso   1.000  C
  H278     1.0000 0.64560  0.99180  0.83020  Biso   1.000  H
  N84      1.0000 0.61100  0.93600  0.76970  Biso   1.000  N
  H279     1.0000 0.59380  0.91780  0.74820  Biso   1.000  H
  H280     1.0000 0.66370  0.93180  0.78040  Biso   1.000  H
  O113     1.0000 0.10290  0.68610  0.88390  Biso   1.000  O
  O114     1.0000 0.23830  0.66300  0.89776  Biso   1.000  O
  O115     1.0000 0.25910  0.83820  0.71880  Biso   1.000  O
  O116     1.0000 0.39450  0.81230  0.73071  Biso   1.000  O
  C393     1.0000 0.18530  0.68840  0.87620  Biso   1.000  C
  C394     1.0000 0.31210  0.81100  0.73940  Biso   1.000  C
  N85      1.0000 0.43010  0.74460  0.78980  Biso   1.000  N
  H281     1.0000 0.45500  0.76200  0.76940  Biso   1.000  H
  H282     1.0000 0.46180  0.72300  0.80480  Biso   1.000  H
  C395     1.0000 0.21610  0.72610  0.84280  Biso   1.000  C
  C396     1.0000 0.30470  0.72230  0.83150  Biso   1.000  C
  H283     1.0000 0.34330  0.69980  0.84630  Biso   1.000  H
  C397     1.0000 0.33690  0.75140  0.79850  Biso   1.000  C
  C398     1.0000 0.28050  0.78430  0.77680  Biso   1.000  C
  C399     1.0000 0.19190  0.78800  0.78820  Biso   1.000  C
  C400     1.0000 0.15970  0.75890  0.82110  Biso   1.000  C
  H284     1.0000 0.09910  0.76150  0.82890  Biso   1.000  H
  N86      1.0000 0.41490  0.71760  0.77560  Biso   1.000  N
  H285     1.0000 0.43700  0.73170  0.75310  Biso   1.000  H
  H286     1.0000 0.44530  0.69390  0.78920  Biso   1.000  H
  C401     1.0000 0.21560  0.71480  0.83900  Biso   1.000  C
  C402     1.0000 0.30040  0.70520  0.82400  Biso   1.000  C
  H287     1.0000 0.33680  0.68000  0.83700  Biso   1.000  H
  C403     1.0000 0.33170  0.73260  0.78990  Biso   1.000  C
  C404     1.0000 0.27840  0.76950  0.77080  Biso   1.000  C
  C405     1.0000 0.19370  0.77900  0.78590  Biso   1.000  C
  C406     1.0000 0.16230  0.75170  0.82000  Biso   1.000  C
  H288     1.0000 0.10440  0.75820  0.83020  Biso   1.000  H
  N87      1.0000 0.13900  0.81400  0.76970  Biso   1.000  N
  H289     1.0000 0.15620  0.83220  0.74820  Biso   1.000  H
  H290     1.0000 0.08630  0.81820  0.78040  Biso   1.000  H
  O117     1.0000 0.10290  0.18610  0.38390  Biso   1.000  O
  O118     1.0000 0.23830  0.16300  0.39776  Biso   1.000  O
  O119     1.0000 0.25910  0.33820  0.21880  Biso   1.000  O
  O120     1.0000 0.39450  0.31230  0.23071  Biso   1.000  O
  C407     1.0000 0.18530  0.18840  0.37620  Biso   1.000  C
  C408     1.0000 0.31210  0.31100  0.23940  Biso   1.000  C
  N88      1.0000 0.43010  0.24460  0.28980  Biso   1.000  N
  H291     1.0000 0.45500  0.26200  0.26940  Biso   1.000  H
  H292     1.0000 0.46180  0.22300  0.30480  Biso   1.000  H
  C409     1.0000 0.21610  0.22610  0.34280  Biso   1.000  C
  C410     1.0000 0.30470  0.22230  0.33150  Biso   1.000  C
  H293     1.0000 0.34330  0.19980  0.34630  Biso   1.000  H
  C411     1.0000 0.33690  0.25140  0.29850  Biso   1.000  C
  C412     1.0000 0.28050  0.28430  0.27680  Biso   1.000  C
  C413     1.0000 0.19190  0.28800  0.28820  Biso   1.000  C
  C414     1.0000 0.15970  0.25890  0.32110  Biso   1.000  C
  H294     1.0000 0.09910  0.26150  0.32890  Biso   1.000  H
  N89      1.0000 0.41490  0.21760  0.27560  Biso   1.000  N
  H295     1.0000 0.43700  0.23170  0.25310  Biso   1.000  H
  H296     1.0000 0.44530  0.19390  0.28920  Biso   1.000  H
  C415     1.0000 0.21560  0.21480  0.33900  Biso   1.000  C
  C416     1.0000 0.30040  0.20520  0.32400  Biso   1.000  C
  H297     1.0000 0.33680  0.18000  0.33700  Biso   1.000  H
  C417     1.0000 0.33170  0.23260  0.28990  Biso   1.000  C
  C418     1.0000 0.27840  0.26950  0.27080  Biso   1.000  C
  C419     1.0000 0.19370  0.27900  0.28590  Biso   1.000  C
  C420     1.0000 0.16230  0.25170  0.32000  Biso   1.000  C
  H298     1.0000 0.10440  0.25820  0.33020  Biso   1.000  H
  N90      1.0000 0.13900  0.31400  0.26970  Biso   1.000  N
  H299     1.0000 0.15620  0.33220  0.24820  Biso   1.000  H
  H300     1.0000 0.08630  0.31820  0.28040  Biso   1.000  H
  O121     1.0000 0.60290  0.68610  0.38390  Biso   1.000  O
  O122     1.0000 0.73830  0.66300  0.39776  Biso   1.000  O
  O123     1.0000 0.75910  0.83820  0.21880  Biso   1.000  O
  O124     1.0000 0.89450  0.81230  0.23071  Biso   1.000  O
  C421     1.0000 0.68530  0.68840  0.37620  Biso   1.000  C
  C422     1.0000 0.81210  0.81100  0.23940  Biso   1.000  C
  N91      1.0000 0.93010  0.74460  0.28980  Biso   1.000  N
  H301     1.0000 0.95500  0.76200  0.26940  Biso   1.000  H
  H302     1.0000 0.96180  0.72300  0.30480  Biso   1.000  H
  C423     1.0000 0.71610  0.72610  0.34280  Biso   1.000  C
  C424     1.0000 0.80470  0.72230  0.33150  Biso   1.000  C
  H303     1.0000 0.84330  0.69980  0.34630  Biso   1.000  H
  C425     1.0000 0.83690  0.75140  0.29850  Biso   1.000  C
  C426     1.0000 0.78050  0.78430  0.27680  Biso   1.000  C
  C427     1.0000 0.69190  0.78800  0.28820  Biso   1.000  C
  C428     1.0000 0.65970  0.75890  0.32110  Biso   1.000  C
  H304     1.0000 0.59910  0.76150  0.32890  Biso   1.000  H
  N92      1.0000 0.91490  0.71760  0.27560  Biso   1.000  N
  H305     1.0000 0.93700  0.73170  0.25310  Biso   1.000  H
  H306     1.0000 0.94530  0.69390  0.28920  Biso   1.000  H
  C429     1.0000 0.71560  0.71480  0.33900  Biso   1.000  C
  C430     1.0000 0.80040  0.70520  0.32400  Biso   1.000  C
  H307     1.0000 0.83680  0.68000  0.33700  Biso   1.000  H
  C431     1.0000 0.83170  0.73260  0.28990  Biso   1.000  C
  C432     1.0000 0.77840  0.76950  0.27080  Biso   1.000  C
  C433     1.0000 0.69370  0.77900  0.28590  Biso   1.000  C
  C434     1.0000 0.66230  0.75170  0.32000  Biso   1.000  C
  H308     1.0000 0.60440  0.75820  0.33020  Biso   1.000  H
  N93      1.0000 0.63900  0.81400  0.26970  Biso   1.000  N
  H309     1.0000 0.65620  0.83220  0.24820  Biso   1.000  H
  H310     1.0000 0.58630  0.81820  0.28040  Biso   1.000  H
  O125     1.0000 0.60290  0.18610  0.88390  Biso   1.000  O
  O126     1.0000 0.73830  0.16300  0.89776  Biso   1.000  O
  O127     1.0000 0.75910  0.33820  0.71880  Biso   1.000  O
  O128     1.0000 0.89450  0.31230  0.73071  Biso   1.000  O
  C435     1.0000 0.68530  0.18840  0.87620  Biso   1.000  C
  C436     1.0000 0.81210  0.31100  0.73940  Biso   1.000  C
  N94      1.0000 0.93010  0.24460  0.78980  Biso   1.000  N
  H311     1.0000 0.95500  0.26200  0.76940  Biso   1.000  H
  H312     1.0000 0.96180  0.22300  0.80480  Biso   1.000  H
  C437     1.0000 0.71610  0.22610  0.84280  Biso   1.000  C
  C438     1.0000 0.80470  0.22230  0.83150  Biso   1.000  C
  H313     1.0000 0.84330  0.19980  0.84630  Biso   1.000  H
  C439     1.0000 0.83690  0.25140  0.79850  Biso   1.000  C
  C440     1.0000 0.78050  0.28430  0.77680  Biso   1.000  C
  C441     1.0000 0.69190  0.28800  0.78820  Biso   1.000  C
  C442     1.0000 0.65970  0.25890  0.82110  Biso   1.000  C
  H314     1.0000 0.59910  0.26150  0.82890  Biso   1.000  H
  N95      1.0000 0.91490  0.21760  0.77560  Biso   1.000  N
  H315     1.0000 0.93700  0.23170  0.75310  Biso   1.000  H
  H316     1.0000 0.94530  0.19390  0.78920  Biso   1.000  H
  C443     1.0000 0.71560  0.21480  0.83900  Biso   1.000  C
  C444     1.0000 0.80040  0.20520  0.82400  Biso   1.000  C
  H317     1.0000 0.83680  0.18000  0.83700  Biso   1.000  H
  C445     1.0000 0.83170  0.23260  0.78990  Biso   1.000  C
  C446     1.0000 0.77840  0.26950  0.77080  Biso   1.000  C
  C447     1.0000 0.69370  0.27900  0.78590  Biso   1.000  C
  C448     1.0000 0.66230  0.25170  0.82000  Biso   1.000  C
  H318     1.0000 0.60440  0.25820  0.83020  Biso   1.000  H
  N96      1.0000 0.63900  0.31400  0.76970  Biso   1.000  N
  H319     1.0000 0.65620  0.33220  0.74820  Biso   1.000  H
  H320     1.0000 0.58630  0.31820  0.78040  Biso   1.000  H
  In9      1.0000 0.87500  0.37500  0.68359  Biso   1.000  In
  In10     1.0000 0.87500  0.87500  0.18359  Biso   1.000  In
  In11     1.0000 0.37500  0.37500  0.18359  Biso   1.000  In
  In12     1.0000 0.37500  0.87500  0.68359  Biso   1.000  In
  In13     1.0000 0.12500  0.62500  0.93359  Biso   1.000  In
  In14     1.0000 0.12500  0.12500  0.43359  Biso   1.000  In
  In15     1.0000 0.62500  0.62500  0.43359  Biso   1.000  In
  In16     1.0000 0.62500  0.12500  0.93359  Biso   1.000  In
