data_image0
_cell_length_a       15.0597
_cell_length_b       26.9731
_cell_length_c       31.2339
_cell_angle_alpha    90
_cell_angle_beta     90
_cell_angle_gamma    90

_symmetry_space_group_name_H-M    "P 1"
_symmetry_int_tables_number       1

loop_
  _symmetry_equiv_pos_as_xyz
  'x, y, z'

loop_
  _atom_site_label
  _atom_site_occupancy
  _atom_site_fract_x
  _atom_site_fract_y
  _atom_site_fract_z
  _atom_site_thermal_displace_type
  _atom_site_B_iso_or_equiv
  _atom_site_type_symbol
  O1       1.0000 0.85400  0.43410  0.12120  Biso   1.000  O
  O2       1.0000 0.98950  0.41070  0.10760  Biso   1.000  O
  O3       1.0000 0.01110  0.58770  0.28510  Biso   1.000  O
  O4       1.0000 0.14750  0.56500  0.27210  Biso   1.000  O
  C1       1.0000 0.93680  0.43680  0.12810  Biso   1.000  C
  C2       1.0000 0.06530  0.56130  0.26420  Biso   1.000  C
  C3       1.0000 0.03190  0.52840  0.22960  Biso   1.000  C
  C4       1.0000 0.96880  0.46950  0.16320  Biso   1.000  C
  N1       1.0000 0.17600  0.48280  0.22670  Biso   1.000  N
  H1       1.0000 0.20780  0.45980  0.21550  Biso   1.000  H
  H2       1.0000 0.19710  0.50110  0.24670  Biso   1.000  H
  C5       1.0000 0.91140  0.50610  0.18190  Biso   1.000  C
  H3       1.0000 0.85320  0.51030  0.17260  Biso   1.000  H
  C6       1.0000 0.94670  0.53450  0.21400  Biso   1.000  C
  H4       1.0000 0.91150  0.55930  0.22590  Biso   1.000  H
  C7       1.0000 0.08630  0.49070  0.21180  Biso   1.000  C
  C8       1.0000 0.05260  0.46160  0.17980  Biso   1.000  C
  H5       1.0000 0.08690  0.43580  0.16900  Biso   1.000  H
  N2       1.0000 0.17800  0.52100  0.19800  Biso   1.000  N
  H6       1.0000 0.20010  0.53920  0.21810  Biso   1.000  H
  H7       1.0000 0.21080  0.50950  0.17830  Biso   1.000  H
  C9       1.0000 0.09000  0.51100  0.19850  Biso   1.000  C
  C10      1.0000 0.94220  0.51640  0.22750  Biso   1.000  C
  H8       1.0000 0.90340  0.52800  0.24840  Biso   1.000  H
  C11      1.0000 0.91070  0.48690  0.19430  Biso   1.000  C
  H9       1.0000 0.85070  0.47890  0.19290  Biso   1.000  H
  C12      1.0000 0.05840  0.48150  0.16520  Biso   1.000  C
  H10      1.0000 0.09730  0.46990  0.14440  Biso   1.000  H
  O5       1.0000 0.85400  0.93410  0.62120  Biso   1.000  O
  O6       1.0000 0.98950  0.91070  0.60760  Biso   1.000  O
  O7       1.0000 0.01110  0.08770  0.78510  Biso   1.000  O
  O8       1.0000 0.14750  0.06500  0.77210  Biso   1.000  O
  C13      1.0000 0.93680  0.93680  0.62810  Biso   1.000  C
  C14      1.0000 0.06530  0.06130  0.76420  Biso   1.000  C
  C15      1.0000 0.03190  0.02840  0.72960  Biso   1.000  C
  C16      1.0000 0.96880  0.96950  0.66320  Biso   1.000  C
  N3       1.0000 0.17600  0.98280  0.72670  Biso   1.000  N
  H11      1.0000 0.20780  0.95980  0.71550  Biso   1.000  H
  H12      1.0000 0.19710  0.00110  0.74670  Biso   1.000  H
  C17      1.0000 0.91140  0.00610  0.68190  Biso   1.000  C
  H13      1.0000 0.85320  0.01030  0.67260  Biso   1.000  H
  C18      1.0000 0.94670  0.03450  0.71400  Biso   1.000  C
  H14      1.0000 0.91150  0.05930  0.72590  Biso   1.000  H
  C19      1.0000 0.08630  0.99070  0.71180  Biso   1.000  C
  C20      1.0000 0.05260  0.96160  0.67980  Biso   1.000  C
  H15      1.0000 0.08690  0.93580  0.66900  Biso   1.000  H
  N4       1.0000 0.17800  0.02100  0.69800  Biso   1.000  N
  H16      1.0000 0.20010  0.03920  0.71810  Biso   1.000  H
  H17      1.0000 0.21080  0.00950  0.67830  Biso   1.000  H
  C21      1.0000 0.09000  0.01100  0.69850  Biso   1.000  C
  C22      1.0000 0.94220  0.01640  0.72750  Biso   1.000  C
  H18      1.0000 0.90340  0.02800  0.74840  Biso   1.000  H
  C23      1.0000 0.91070  0.98690  0.69430  Biso   1.000  C
  H19      1.0000 0.85070  0.97890  0.69290  Biso   1.000  H
  C24      1.0000 0.05840  0.98150  0.66520  Biso   1.000  C
  H20      1.0000 0.09730  0.96990  0.64440  Biso   1.000  H
  O9       1.0000 0.35400  0.43410  0.62120  Biso   1.000  O
  O10      1.0000 0.48950  0.41070  0.60760  Biso   1.000  O
  O11      1.0000 0.51110  0.58770  0.78510  Biso   1.000  O
  O12      1.0000 0.64750  0.56500  0.77210  Biso   1.000  O
  C25      1.0000 0.43680  0.43680  0.62810  Biso   1.000  C
  C26      1.0000 0.56530  0.56130  0.76420  Biso   1.000  C
  C27      1.0000 0.53190  0.52840  0.72960  Biso   1.000  C
  C28      1.0000 0.46880  0.46950  0.66320  Biso   1.000  C
  N5       1.0000 0.67600  0.48280  0.72670  Biso   1.000  N
  H21      1.0000 0.70780  0.45980  0.71550  Biso   1.000  H
  H22      1.0000 0.69710  0.50110  0.74670  Biso   1.000  H
  C29      1.0000 0.41140  0.50610  0.68190  Biso   1.000  C
  H23      1.0000 0.35320  0.51030  0.67260  Biso   1.000  H
  C30      1.0000 0.44670  0.53450  0.71400  Biso   1.000  C
  H24      1.0000 0.41150  0.55930  0.72590  Biso   1.000  H
  C31      1.0000 0.58630  0.49070  0.71180  Biso   1.000  C
  C32      1.0000 0.55260  0.46160  0.67980  Biso   1.000  C
  H25      1.0000 0.58690  0.43580  0.66900  Biso   1.000  H
  N6       1.0000 0.67800  0.52100  0.69800  Biso   1.000  N
  H26      1.0000 0.70010  0.53920  0.71810  Biso   1.000  H
  H27      1.0000 0.71080  0.50950  0.67830  Biso   1.000  H
  C33      1.0000 0.59000  0.51100  0.69850  Biso   1.000  C
  C34      1.0000 0.44220  0.51640  0.72750  Biso   1.000  C
  H28      1.0000 0.40340  0.52800  0.74840  Biso   1.000  H
  C35      1.0000 0.41070  0.48690  0.69430  Biso   1.000  C
  H29      1.0000 0.35070  0.47890  0.69290  Biso   1.000  H
  C36      1.0000 0.55840  0.48150  0.66520  Biso   1.000  C
  H30      1.0000 0.59730  0.46990  0.64440  Biso   1.000  H
  O13      1.0000 0.35400  0.93410  0.12120  Biso   1.000  O
  O14      1.0000 0.48950  0.91070  0.10760  Biso   1.000  O
  O15      1.0000 0.51110  0.08770  0.28510  Biso   1.000  O
  O16      1.0000 0.64750  0.06500  0.27210  Biso   1.000  O
  C37      1.0000 0.43680  0.93680  0.12810  Biso   1.000  C
  C38      1.0000 0.56530  0.06130  0.26420  Biso   1.000  C
  C39      1.0000 0.53190  0.02840  0.22960  Biso   1.000  C
  C40      1.0000 0.46880  0.96950  0.16320  Biso   1.000  C
  N7       1.0000 0.67600  0.98280  0.22670  Biso   1.000  N
  H31      1.0000 0.70780  0.95980  0.21550  Biso   1.000  H
  H32      1.0000 0.69710  0.00110  0.24670  Biso   1.000  H
  C41      1.0000 0.41140  0.00610  0.18190  Biso   1.000  C
  H33      1.0000 0.35320  0.01030  0.17260  Biso   1.000  H
  C42      1.0000 0.44670  0.03450  0.21400  Biso   1.000  C
  H34      1.0000 0.41150  0.05930  0.22590  Biso   1.000  H
  C43      1.0000 0.58630  0.99070  0.21180  Biso   1.000  C
  C44      1.0000 0.55260  0.96160  0.17980  Biso   1.000  C
  H35      1.0000 0.58690  0.93580  0.16900  Biso   1.000  H
  N8       1.0000 0.67800  0.02100  0.19800  Biso   1.000  N
  H36      1.0000 0.70010  0.03920  0.21810  Biso   1.000  H
  H37      1.0000 0.71080  0.00950  0.17830  Biso   1.000  H
  C45      1.0000 0.59000  0.01100  0.19850  Biso   1.000  C
  C46      1.0000 0.44220  0.01640  0.22750  Biso   1.000  C
  H38      1.0000 0.40340  0.02800  0.24840  Biso   1.000  H
  C47      1.0000 0.41070  0.98690  0.19430  Biso   1.000  C
  H39      1.0000 0.35070  0.97890  0.19290  Biso   1.000  H
  C48      1.0000 0.55840  0.98150  0.16520  Biso   1.000  C
  H40      1.0000 0.59730  0.96990  0.14440  Biso   1.000  H
  O17      1.0000 0.89600  0.31590  0.12120  Biso   1.000  O
  O18      1.0000 0.76050  0.33930  0.10760  Biso   1.000  O
  O19      1.0000 0.73890  0.16230  0.28510  Biso   1.000  O
  O20      1.0000 0.60250  0.18500  0.27210  Biso   1.000  O
  C49      1.0000 0.81320  0.31320  0.12810  Biso   1.000  C
  C50      1.0000 0.68470  0.18870  0.26420  Biso   1.000  C
  C51      1.0000 0.71810  0.22160  0.22960  Biso   1.000  C
  C52      1.0000 0.78120  0.28050  0.16320  Biso   1.000  C
  N9       1.0000 0.57400  0.26720  0.22670  Biso   1.000  N
  H41      1.0000 0.54220  0.29020  0.21550  Biso   1.000  H
  H42      1.0000 0.55290  0.24890  0.24670  Biso   1.000  H
  C53      1.0000 0.83860  0.24390  0.18190  Biso   1.000  C
  H43      1.0000 0.89680  0.23970  0.17260  Biso   1.000  H
  C54      1.0000 0.80330  0.21550  0.21400  Biso   1.000  C
  H44      1.0000 0.83850  0.19070  0.22590  Biso   1.000  H
  C55      1.0000 0.66370  0.25930  0.21180  Biso   1.000  C
  C56      1.0000 0.69740  0.28840  0.17980  Biso   1.000  C
  H45      1.0000 0.66310  0.31420  0.16900  Biso   1.000  H
  N10      1.0000 0.57200  0.22900  0.19800  Biso   1.000  N
  H46      1.0000 0.54990  0.21080  0.21810  Biso   1.000  H
  H47      1.0000 0.53920  0.24050  0.17830  Biso   1.000  H
  C57      1.0000 0.66000  0.23900  0.19850  Biso   1.000  C
  C58      1.0000 0.80780  0.23360  0.22750  Biso   1.000  C
  H48      1.0000 0.84660  0.22200  0.24840  Biso   1.000  H
  C59      1.0000 0.83930  0.26310  0.19430  Biso   1.000  C
  H49      1.0000 0.89930  0.27110  0.19290  Biso   1.000  H
  C60      1.0000 0.69160  0.26850  0.16520  Biso   1.000  C
  H50      1.0000 0.65270  0.28010  0.14440  Biso   1.000  H
  O21      1.0000 0.89600  0.81590  0.62120  Biso   1.000  O
  O22      1.0000 0.76050  0.83930  0.60760  Biso   1.000  O
  O23      1.0000 0.73890  0.66230  0.78510  Biso   1.000  O
  O24      1.0000 0.60250  0.68500  0.77210  Biso   1.000  O
  C61      1.0000 0.81320  0.81320  0.62810  Biso   1.000  C
  C62      1.0000 0.68470  0.68870  0.76420  Biso   1.000  C
  C63      1.0000 0.71810  0.72160  0.72960  Biso   1.000  C
  C64      1.0000 0.78120  0.78050  0.66320  Biso   1.000  C
  N11      1.0000 0.57400  0.76720  0.72670  Biso   1.000  N
  H51      1.0000 0.54220  0.79020  0.71550  Biso   1.000  H
  H52      1.0000 0.55290  0.74890  0.74670  Biso   1.000  H
  C65      1.0000 0.83860  0.74390  0.68190  Biso   1.000  C
  H53      1.0000 0.89680  0.73970  0.67260  Biso   1.000  H
  C66      1.0000 0.80330  0.71550  0.71400  Biso   1.000  C
  H54      1.0000 0.83850  0.69070  0.72590  Biso   1.000  H
  C67      1.0000 0.66370  0.75930  0.71180  Biso   1.000  C
  C68      1.0000 0.69740  0.78840  0.67980  Biso   1.000  C
  H55      1.0000 0.66310  0.81420  0.66900  Biso   1.000  H
  N12      1.0000 0.57200  0.72900  0.69800  Biso   1.000  N
  H56      1.0000 0.54990  0.71080  0.71810  Biso   1.000  H
  H57      1.0000 0.53920  0.74050  0.67830  Biso   1.000  H
  C69      1.0000 0.66000  0.73900  0.69850  Biso   1.000  C
  C70      1.0000 0.80780  0.73360  0.72750  Biso   1.000  C
  H58      1.0000 0.84660  0.72200  0.74840  Biso   1.000  H
  C71      1.0000 0.83930  0.76310  0.69430  Biso   1.000  C
  H59      1.0000 0.89930  0.77110  0.69290  Biso   1.000  H
  C72      1.0000 0.69160  0.76850  0.66520  Biso   1.000  C
  H60      1.0000 0.65270  0.78010  0.64440  Biso   1.000  H
  O25      1.0000 0.39600  0.31590  0.62120  Biso   1.000  O
  O26      1.0000 0.26050  0.33930  0.60760  Biso   1.000  O
  O27      1.0000 0.23890  0.16230  0.78510  Biso   1.000  O
  O28      1.0000 0.10250  0.18500  0.77210  Biso   1.000  O
  C73      1.0000 0.31320  0.31320  0.62810  Biso   1.000  C
  C74      1.0000 0.18470  0.18870  0.76420  Biso   1.000  C
  C75      1.0000 0.21810  0.22160  0.72960  Biso   1.000  C
  C76      1.0000 0.28120  0.28050  0.66320  Biso   1.000  C
  N13      1.0000 0.07400  0.26720  0.72670  Biso   1.000  N
  H61      1.0000 0.04220  0.29020  0.71550  Biso   1.000  H
  H62      1.0000 0.05290  0.24890  0.74670  Biso   1.000  H
  C77      1.0000 0.33860  0.24390  0.68190  Biso   1.000  C
  H63      1.0000 0.39680  0.23970  0.67260  Biso   1.000  H
  C78      1.0000 0.30330  0.21550  0.71400  Biso   1.000  C
  H64      1.0000 0.33850  0.19070  0.72590  Biso   1.000  H
  C79      1.0000 0.16370  0.25930  0.71180  Biso   1.000  C
  C80      1.0000 0.19740  0.28840  0.67980  Biso   1.000  C
  H65      1.0000 0.16310  0.31420  0.66900  Biso   1.000  H
  N14      1.0000 0.07200  0.22900  0.69800  Biso   1.000  N
  H66      1.0000 0.04990  0.21080  0.71810  Biso   1.000  H
  H67      1.0000 0.03920  0.24050  0.67830  Biso   1.000  H
  C81      1.0000 0.16000  0.23900  0.69850  Biso   1.000  C
  C82      1.0000 0.30780  0.23360  0.72750  Biso   1.000  C
  H68      1.0000 0.34660  0.22200  0.74840  Biso   1.000  H
  C83      1.0000 0.33930  0.26310  0.69430  Biso   1.000  C
  H69      1.0000 0.39930  0.27110  0.69290  Biso   1.000  H
  C84      1.0000 0.19160  0.26850  0.66520  Biso   1.000  C
  H70      1.0000 0.15270  0.28010  0.64440  Biso   1.000  H
  O29      1.0000 0.39600  0.81590  0.12120  Biso   1.000  O
  O30      1.0000 0.26050  0.83930  0.10760  Biso   1.000  O
  O31      1.0000 0.23890  0.66230  0.28510  Biso   1.000  O
  O32      1.0000 0.10250  0.68500  0.27210  Biso   1.000  O
  C85      1.0000 0.31320  0.81320  0.12810  Biso   1.000  C
  C86      1.0000 0.18470  0.68870  0.26420  Biso   1.000  C
  C87      1.0000 0.21810  0.72160  0.22960  Biso   1.000  C
  C88      1.0000 0.28120  0.78050  0.16320  Biso   1.000  C
  N15      1.0000 0.07400  0.76720  0.22670  Biso   1.000  N
  H71      1.0000 0.04220  0.79020  0.21550  Biso   1.000  H
  H72      1.0000 0.05290  0.74890  0.24670  Biso   1.000  H
  C89      1.0000 0.33860  0.74390  0.18190  Biso   1.000  C
  H73      1.0000 0.39680  0.73970  0.17260  Biso   1.000  H
  C90      1.0000 0.30330  0.71550  0.21400  Biso   1.000  C
  H74      1.0000 0.33850  0.69070  0.22590  Biso   1.000  H
  C91      1.0000 0.16370  0.75930  0.21180  Biso   1.000  C
  C92      1.0000 0.19740  0.78840  0.17980  Biso   1.000  C
  H75      1.0000 0.16310  0.81420  0.16900  Biso   1.000  H
  N16      1.0000 0.07200  0.72900  0.19800  Biso   1.000  N
  H76      1.0000 0.04990  0.71080  0.21810  Biso   1.000  H
  H77      1.0000 0.03920  0.74050  0.17830  Biso   1.000  H
  C93      1.0000 0.16000  0.73900  0.19850  Biso   1.000  C
  C94      1.0000 0.30780  0.73360  0.22750  Biso   1.000  C
  H78      1.0000 0.34660  0.72200  0.24840  Biso   1.000  H
  C95      1.0000 0.33930  0.76310  0.19430  Biso   1.000  C
  H79      1.0000 0.39930  0.77110  0.19290  Biso   1.000  H
  C96      1.0000 0.19160  0.76850  0.16520  Biso   1.000  C
  H80      1.0000 0.15270  0.78010  0.14440  Biso   1.000  H
  O33      1.0000 0.10400  0.56590  0.37120  Biso   1.000  O
  O34      1.0000 0.23950  0.58930  0.35760  Biso   1.000  O
  O35      1.0000 0.26110  0.41230  0.53510  Biso   1.000  O
  O36      1.0000 0.39750  0.43500  0.52210  Biso   1.000  O
  C97      1.0000 0.18680  0.56320  0.37810  Biso   1.000  C
  C98      1.0000 0.31530  0.43870  0.51420  Biso   1.000  C
  C99      1.0000 0.28190  0.47160  0.47960  Biso   1.000  C
  C100     1.0000 0.21880  0.53050  0.41320  Biso   1.000  C
  N17      1.0000 0.42600  0.51720  0.47670  Biso   1.000  N
  H81      1.0000 0.45780  0.54020  0.46550  Biso   1.000  H
  H82      1.0000 0.44710  0.49890  0.49670  Biso   1.000  H
  C101     1.0000 0.16140  0.49390  0.43190  Biso   1.000  C
  H83      1.0000 0.10320  0.48970  0.42260  Biso   1.000  H
  C102     1.0000 0.19670  0.46550  0.46400  Biso   1.000  C
  H84      1.0000 0.16150  0.44070  0.47590  Biso   1.000  H
  C103     1.0000 0.33630  0.50930  0.46180  Biso   1.000  C
  C104     1.0000 0.30260  0.53840  0.42980  Biso   1.000  C
  H85      1.0000 0.33690  0.56420  0.41900  Biso   1.000  H
  N18      1.0000 0.42800  0.47900  0.44800  Biso   1.000  N
  H86      1.0000 0.45010  0.46080  0.46810  Biso   1.000  H
  H87      1.0000 0.46080  0.49050  0.42830  Biso   1.000  H
  C105     1.0000 0.34000  0.48900  0.44850  Biso   1.000  C
  C106     1.0000 0.19220  0.48360  0.47750  Biso   1.000  C
  H88      1.0000 0.15340  0.47200  0.49840  Biso   1.000  H
  C107     1.0000 0.16070  0.51310  0.44430  Biso   1.000  C
  H89      1.0000 0.10070  0.52110  0.44290  Biso   1.000  H
  C108     1.0000 0.30840  0.51850  0.41520  Biso   1.000  C
  H90      1.0000 0.34730  0.53010  0.39440  Biso   1.000  H
  O37      1.0000 0.10400  0.06590  0.87120  Biso   1.000  O
  O38      1.0000 0.23950  0.08930  0.85760  Biso   1.000  O
  O39      1.0000 0.26110  0.91230  0.03510  Biso   1.000  O
  O40      1.0000 0.39750  0.93500  0.02210  Biso   1.000  O
  C109     1.0000 0.18680  0.06320  0.87810  Biso   1.000  C
  C110     1.0000 0.31530  0.93870  0.01420  Biso   1.000  C
  C111     1.0000 0.28190  0.97160  0.97960  Biso   1.000  C
  C112     1.0000 0.21880  0.03050  0.91320  Biso   1.000  C
  N19      1.0000 0.42600  0.01720  0.97670  Biso   1.000  N
  H91      1.0000 0.45780  0.04020  0.96550  Biso   1.000  H
  H92      1.0000 0.44710  0.99890  0.99670  Biso   1.000  H
  C113     1.0000 0.16140  0.99390  0.93190  Biso   1.000  C
  H93      1.0000 0.10320  0.98970  0.92260  Biso   1.000  H
  C114     1.0000 0.19670  0.96550  0.96400  Biso   1.000  C
  H94      1.0000 0.16150  0.94070  0.97590  Biso   1.000  H
  C115     1.0000 0.33630  0.00930  0.96180  Biso   1.000  C
  C116     1.0000 0.30260  0.03840  0.92980  Biso   1.000  C
  H95      1.0000 0.33690  0.06420  0.91900  Biso   1.000  H
  N20      1.0000 0.42800  0.97900  0.94800  Biso   1.000  N
  H96      1.0000 0.45010  0.96080  0.96810  Biso   1.000  H
  H97      1.0000 0.46080  0.99050  0.92830  Biso   1.000  H
  C117     1.0000 0.34000  0.98900  0.94850  Biso   1.000  C
  C118     1.0000 0.19220  0.98360  0.97750  Biso   1.000  C
  H98      1.0000 0.15340  0.97200  0.99840  Biso   1.000  H
  C119     1.0000 0.16070  0.01310  0.94430  Biso   1.000  C
  H99      1.0000 0.10070  0.02110  0.94290  Biso   1.000  H
  C120     1.0000 0.30840  0.01850  0.91520  Biso   1.000  C
  H100     1.0000 0.34730  0.03010  0.89440  Biso   1.000  H
  O41      1.0000 0.60400  0.56590  0.87120  Biso   1.000  O
  O42      1.0000 0.73950  0.58930  0.85760  Biso   1.000  O
  O43      1.0000 0.76110  0.41230  0.03510  Biso   1.000  O
  O44      1.0000 0.89750  0.43500  0.02210  Biso   1.000  O
  C121     1.0000 0.68680  0.56320  0.87810  Biso   1.000  C
  C122     1.0000 0.81530  0.43870  0.01420  Biso   1.000  C
  C123     1.0000 0.78190  0.47160  0.97960  Biso   1.000  C
  C124     1.0000 0.71880  0.53050  0.91320  Biso   1.000  C
  N21      1.0000 0.92600  0.51720  0.97670  Biso   1.000  N
  H101     1.0000 0.95780  0.54020  0.96550  Biso   1.000  H
  H102     1.0000 0.94710  0.49890  0.99670  Biso   1.000  H
  C125     1.0000 0.66140  0.49390  0.93190  Biso   1.000  C
  H103     1.0000 0.60320  0.48970  0.92260  Biso   1.000  H
  C126     1.0000 0.69670  0.46550  0.96400  Biso   1.000  C
  H104     1.0000 0.66150  0.44070  0.97590  Biso   1.000  H
  C127     1.0000 0.83630  0.50930  0.96180  Biso   1.000  C
  C128     1.0000 0.80260  0.53840  0.92980  Biso   1.000  C
  H105     1.0000 0.83690  0.56420  0.91900  Biso   1.000  H
  N22      1.0000 0.92800  0.47900  0.94800  Biso   1.000  N
  H106     1.0000 0.95010  0.46080  0.96810  Biso   1.000  H
  H107     1.0000 0.96080  0.49050  0.92830  Biso   1.000  H
  C129     1.0000 0.84000  0.48900  0.94850  Biso   1.000  C
  C130     1.0000 0.69220  0.48360  0.97750  Biso   1.000  C
  H108     1.0000 0.65340  0.47200  0.99840  Biso   1.000  H
  C131     1.0000 0.66070  0.51310  0.94430  Biso   1.000  C
  H109     1.0000 0.60070  0.52110  0.94290  Biso   1.000  H
  C132     1.0000 0.80840  0.51850  0.91520  Biso   1.000  C
  H110     1.0000 0.84730  0.53010  0.89440  Biso   1.000  H
  O45      1.0000 0.60400  0.06590  0.37120  Biso   1.000  O
  O46      1.0000 0.73950  0.08930  0.35760  Biso   1.000  O
  O47      1.0000 0.76110  0.91230  0.53510  Biso   1.000  O
  O48      1.0000 0.89750  0.93500  0.52210  Biso   1.000  O
  C133     1.0000 0.68680  0.06320  0.37810  Biso   1.000  C
  C134     1.0000 0.81530  0.93870  0.51420  Biso   1.000  C
  C135     1.0000 0.78190  0.97160  0.47960  Biso   1.000  C
  C136     1.0000 0.71880  0.03050  0.41320  Biso   1.000  C
  N23      1.0000 0.92600  0.01720  0.47670  Biso   1.000  N
  H111     1.0000 0.95780  0.04020  0.46550  Biso   1.000  H
  H112     1.0000 0.94710  0.99890  0.49670  Biso   1.000  H
  C137     1.0000 0.66140  0.99390  0.43190  Biso   1.000  C
  H113     1.0000 0.60320  0.98970  0.42260  Biso   1.000  H
  C138     1.0000 0.69670  0.96550  0.46400  Biso   1.000  C
  H114     1.0000 0.66150  0.94070  0.47590  Biso   1.000  H
  C139     1.0000 0.83630  0.00930  0.46180  Biso   1.000  C
  C140     1.0000 0.80260  0.03840  0.42980  Biso   1.000  C
  H115     1.0000 0.83690  0.06420  0.41900  Biso   1.000  H
  N24      1.0000 0.92800  0.97900  0.44800  Biso   1.000  N
  H116     1.0000 0.95010  0.96080  0.46810  Biso   1.000  H
  H117     1.0000 0.96080  0.99050  0.42830  Biso   1.000  H
  C141     1.0000 0.84000  0.98900  0.44850  Biso   1.000  C
  C142     1.0000 0.69220  0.98360  0.47750  Biso   1.000  C
  H118     1.0000 0.65340  0.97200  0.49840  Biso   1.000  H
  C143     1.0000 0.66070  0.01310  0.44430  Biso   1.000  C
  H119     1.0000 0.60070  0.02110  0.44290  Biso   1.000  H
  C144     1.0000 0.80840  0.01850  0.41520  Biso   1.000  C
  H120     1.0000 0.84730  0.03010  0.39440  Biso   1.000  H
  O49      1.0000 0.14600  0.68410  0.37120  Biso   1.000  O
  O50      1.0000 0.01050  0.66070  0.35760  Biso   1.000  O
  O51      1.0000 0.98890  0.83770  0.53510  Biso   1.000  O
  O52      1.0000 0.85250  0.81500  0.52210  Biso   1.000  O
  C145     1.0000 0.06320  0.68680  0.37810  Biso   1.000  C
  C146     1.0000 0.93470  0.81130  0.51420  Biso   1.000  C
  C147     1.0000 0.96810  0.77840  0.47960  Biso   1.000  C
  C148     1.0000 0.03120  0.71950  0.41320  Biso   1.000  C
  N25      1.0000 0.82400  0.73280  0.47670  Biso   1.000  N
  H121     1.0000 0.79220  0.70980  0.46550  Biso   1.000  H
  H122     1.0000 0.80290  0.75110  0.49670  Biso   1.000  H
  C149     1.0000 0.08860  0.75610  0.43190  Biso   1.000  C
  H123     1.0000 0.14680  0.76030  0.42260  Biso   1.000  H
  C150     1.0000 0.05330  0.78450  0.46400  Biso   1.000  C
  H124     1.0000 0.08850  0.80930  0.47590  Biso   1.000  H
  C151     1.0000 0.91370  0.74070  0.46180  Biso   1.000  C
  C152     1.0000 0.94740  0.71160  0.42980  Biso   1.000  C
  H125     1.0000 0.91310  0.68580  0.41900  Biso   1.000  H
  N26      1.0000 0.82200  0.77100  0.44800  Biso   1.000  N
  H126     1.0000 0.79990  0.78920  0.46810  Biso   1.000  H
  H127     1.0000 0.78920  0.75950  0.42830  Biso   1.000  H
  C153     1.0000 0.91000  0.76100  0.44850  Biso   1.000  C
  C154     1.0000 0.05780  0.76640  0.47750  Biso   1.000  C
  H128     1.0000 0.09660  0.77800  0.49840  Biso   1.000  H
  C155     1.0000 0.08930  0.73690  0.44430  Biso   1.000  C
  H129     1.0000 0.14930  0.72890  0.44290  Biso   1.000  H
  C156     1.0000 0.94160  0.73150  0.41520  Biso   1.000  C
  H130     1.0000 0.90270  0.71990  0.39440  Biso   1.000  H
  O53      1.0000 0.14600  0.18410  0.87120  Biso   1.000  O
  O54      1.0000 0.01050  0.16070  0.85760  Biso   1.000  O
  O55      1.0000 0.98890  0.33770  0.03510  Biso   1.000  O
  O56      1.0000 0.85250  0.31500  0.02210  Biso   1.000  O
  C157     1.0000 0.06320  0.18680  0.87810  Biso   1.000  C
  C158     1.0000 0.93470  0.31130  0.01420  Biso   1.000  C
  C159     1.0000 0.96810  0.27840  0.97960  Biso   1.000  C
  C160     1.0000 0.03120  0.21950  0.91320  Biso   1.000  C
  N27      1.0000 0.82400  0.23280  0.97670  Biso   1.000  N
  H131     1.0000 0.79220  0.20980  0.96550  Biso   1.000  H
  H132     1.0000 0.80290  0.25110  0.99670  Biso   1.000  H
  C161     1.0000 0.08860  0.25610  0.93190  Biso   1.000  C
  H133     1.0000 0.14680  0.26030  0.92260  Biso   1.000  H
  C162     1.0000 0.05330  0.28450  0.96400  Biso   1.000  C
  H134     1.0000 0.08850  0.30930  0.97590  Biso   1.000  H
  C163     1.0000 0.91370  0.24070  0.96180  Biso   1.000  C
  C164     1.0000 0.94740  0.21160  0.92980  Biso   1.000  C
  H135     1.0000 0.91310  0.18580  0.91900  Biso   1.000  H
  N28      1.0000 0.82200  0.27100  0.94800  Biso   1.000  N
  H136     1.0000 0.79990  0.28920  0.96810  Biso   1.000  H
  H137     1.0000 0.78920  0.25950  0.92830  Biso   1.000  H
  C165     1.0000 0.91000  0.26100  0.94850  Biso   1.000  C
  C166     1.0000 0.05780  0.26640  0.97750  Biso   1.000  C
  H138     1.0000 0.09660  0.27800  0.99840  Biso   1.000  H
  C167     1.0000 0.08930  0.23690  0.94430  Biso   1.000  C
  H139     1.0000 0.14930  0.22890  0.94290  Biso   1.000  H
  C168     1.0000 0.94160  0.23150  0.91520  Biso   1.000  C
  H140     1.0000 0.90270  0.21990  0.89440  Biso   1.000  H
  O57      1.0000 0.64600  0.68410  0.87120  Biso   1.000  O
  O58      1.0000 0.51050  0.66070  0.85760  Biso   1.000  O
  O59      1.0000 0.48890  0.83770  0.03510  Biso   1.000  O
  O60      1.0000 0.35250  0.81500  0.02210  Biso   1.000  O
  C169     1.0000 0.56320  0.68680  0.87810  Biso   1.000  C
  C170     1.0000 0.43470  0.81130  0.01420  Biso   1.000  C
  C171     1.0000 0.46810  0.77840  0.97960  Biso   1.000  C
  C172     1.0000 0.53120  0.71950  0.91320  Biso   1.000  C
  N29      1.0000 0.32400  0.73280  0.97670  Biso   1.000  N
  H141     1.0000 0.29220  0.70980  0.96550  Biso   1.000  H
  H142     1.0000 0.30290  0.75110  0.99670  Biso   1.000  H
  C173     1.0000 0.58860  0.75610  0.93190  Biso   1.000  C
  H143     1.0000 0.64680  0.76030  0.92260  Biso   1.000  H
  C174     1.0000 0.55330  0.78450  0.96400  Biso   1.000  C
  H144     1.0000 0.58850  0.80930  0.97590  Biso   1.000  H
  C175     1.0000 0.41370  0.74070  0.96180  Biso   1.000  C
  C176     1.0000 0.44740  0.71160  0.92980  Biso   1.000  C
  H145     1.0000 0.41310  0.68580  0.91900  Biso   1.000  H
  N30      1.0000 0.32200  0.77100  0.94800  Biso   1.000  N
  H146     1.0000 0.29990  0.78920  0.96810  Biso   1.000  H
  H147     1.0000 0.28920  0.75950  0.92830  Biso   1.000  H
  C177     1.0000 0.41000  0.76100  0.94850  Biso   1.000  C
  C178     1.0000 0.55780  0.76640  0.97750  Biso   1.000  C
  H148     1.0000 0.59660  0.77800  0.99840  Biso   1.000  H
  C179     1.0000 0.58930  0.73690  0.94430  Biso   1.000  C
  H149     1.0000 0.64930  0.72890  0.94290  Biso   1.000  H
  C180     1.0000 0.44160  0.73150  0.91520  Biso   1.000  C
  H150     1.0000 0.40270  0.71990  0.89440  Biso   1.000  H
  O61      1.0000 0.64600  0.18410  0.37120  Biso   1.000  O
  O62      1.0000 0.51050  0.16070  0.35760  Biso   1.000  O
  O63      1.0000 0.48890  0.33770  0.53510  Biso   1.000  O
  O64      1.0000 0.35250  0.31500  0.52210  Biso   1.000  O
  C181     1.0000 0.56320  0.18680  0.37810  Biso   1.000  C
  C182     1.0000 0.43470  0.31130  0.51420  Biso   1.000  C
  C183     1.0000 0.46810  0.27840  0.47960  Biso   1.000  C
  C184     1.0000 0.53120  0.21950  0.41320  Biso   1.000  C
  N31      1.0000 0.32400  0.23280  0.47670  Biso   1.000  N
  H151     1.0000 0.29220  0.20980  0.46550  Biso   1.000  H
  H152     1.0000 0.30290  0.25110  0.49670  Biso   1.000  H
  C185     1.0000 0.58860  0.25610  0.43190  Biso   1.000  C
  H153     1.0000 0.64680  0.26030  0.42260  Biso   1.000  H
  C186     1.0000 0.55330  0.28450  0.46400  Biso   1.000  C
  H154     1.0000 0.58850  0.30930  0.47590  Biso   1.000  H
  C187     1.0000 0.41370  0.24070  0.46180  Biso   1.000  C
  C188     1.0000 0.44740  0.21160  0.42980  Biso   1.000  C
  H155     1.0000 0.41310  0.18580  0.41900  Biso   1.000  H
  N32      1.0000 0.32200  0.27100  0.44800  Biso   1.000  N
  H156     1.0000 0.29990  0.28920  0.46810  Biso   1.000  H
  H157     1.0000 0.28920  0.25950  0.42830  Biso   1.000  H
  C189     1.0000 0.41000  0.26100  0.44850  Biso   1.000  C
  C190     1.0000 0.55780  0.26640  0.47750  Biso   1.000  C
  H158     1.0000 0.59660  0.27800  0.49840  Biso   1.000  H
  C191     1.0000 0.58930  0.23690  0.44430  Biso   1.000  C
  H159     1.0000 0.64930  0.22890  0.44290  Biso   1.000  H
  C192     1.0000 0.44160  0.23150  0.41520  Biso   1.000  C
  H160     1.0000 0.40270  0.21990  0.39440  Biso   1.000  H
  In1      1.0000 0.87500  0.37500  0.07050  Biso   1.000  In
  In2      1.0000 0.87500  0.87500  0.57050  Biso   1.000  In
  In3      1.0000 0.37500  0.37500  0.57050  Biso   1.000  In
  In4      1.0000 0.37500  0.87500  0.07050  Biso   1.000  In
  In5      1.0000 0.12500  0.62500  0.32050  Biso   1.000  In
  In6      1.0000 0.12500  0.12500  0.82050  Biso   1.000  In
  In7      1.0000 0.62500  0.62500  0.82050  Biso   1.000  In
  In8      1.0000 0.62500  0.12500  0.32050  Biso   1.000  In
  O65      1.0000 0.89600  0.43410  0.62880  Biso   1.000  O
  O66      1.0000 0.76050  0.41070  0.64240  Biso   1.000  O
  O67      1.0000 0.73890  0.58770  0.46490  Biso   1.000  O
  O68      1.0000 0.60250  0.56500  0.47790  Biso   1.000  O
  C193     1.0000 0.81320  0.43680  0.62190  Biso   1.000  C
  C194     1.0000 0.68470  0.56130  0.48580  Biso   1.000  C
  C195     1.0000 0.71810  0.52840  0.52040  Biso   1.000  C
  C196     1.0000 0.78120  0.46950  0.58680  Biso   1.000  C
  N33      1.0000 0.57400  0.48280  0.52330  Biso   1.000  N
  H161     1.0000 0.54220  0.45980  0.53450  Biso   1.000  H
  H162     1.0000 0.55290  0.50110  0.50330  Biso   1.000  H
  C197     1.0000 0.83860  0.50610  0.56810  Biso   1.000  C
  H163     1.0000 0.89680  0.51030  0.57740  Biso   1.000  H
  C198     1.0000 0.80330  0.53450  0.53600  Biso   1.000  C
  H164     1.0000 0.83850  0.55930  0.52410  Biso   1.000  H
  C199     1.0000 0.66370  0.49070  0.53820  Biso   1.000  C
  C200     1.0000 0.69740  0.46160  0.57020  Biso   1.000  C
  H165     1.0000 0.66310  0.43580  0.58100  Biso   1.000  H
  N34      1.0000 0.57200  0.52100  0.55200  Biso   1.000  N
  H166     1.0000 0.54990  0.53920  0.53190  Biso   1.000  H
  H167     1.0000 0.53920  0.50950  0.57170  Biso   1.000  H
  C201     1.0000 0.66000  0.51100  0.55150  Biso   1.000  C
  C202     1.0000 0.80780  0.51640  0.52250  Biso   1.000  C
  H168     1.0000 0.84660  0.52800  0.50160  Biso   1.000  H
  C203     1.0000 0.83930  0.48690  0.55570  Biso   1.000  C
  H169     1.0000 0.89930  0.47890  0.55710  Biso   1.000  H
  C204     1.0000 0.69160  0.48150  0.58480  Biso   1.000  C
  H170     1.0000 0.65270  0.46990  0.60560  Biso   1.000  H
  O69      1.0000 0.89600  0.93410  0.12880  Biso   1.000  O
  O70      1.0000 0.76050  0.91070  0.14240  Biso   1.000  O
  O71      1.0000 0.73890  0.08770  0.96490  Biso   1.000  O
  O72      1.0000 0.60250  0.06500  0.97790  Biso   1.000  O
  C205     1.0000 0.81320  0.93680  0.12190  Biso   1.000  C
  C206     1.0000 0.68470  0.06130  0.98580  Biso   1.000  C
  C207     1.0000 0.71810  0.02840  0.02040  Biso   1.000  C
  C208     1.0000 0.78120  0.96950  0.08680  Biso   1.000  C
  N35      1.0000 0.57400  0.98280  0.02330  Biso   1.000  N
  H171     1.0000 0.54220  0.95980  0.03450  Biso   1.000  H
  H172     1.0000 0.55290  0.00110  0.00330  Biso   1.000  H
  C209     1.0000 0.83860  0.00610  0.06810  Biso   1.000  C
  H173     1.0000 0.89680  0.01030  0.07740  Biso   1.000  H
  C210     1.0000 0.80330  0.03450  0.03600  Biso   1.000  C
  H174     1.0000 0.83850  0.05930  0.02410  Biso   1.000  H
  C211     1.0000 0.66370  0.99070  0.03820  Biso   1.000  C
  C212     1.0000 0.69740  0.96160  0.07020  Biso   1.000  C
  H175     1.0000 0.66310  0.93580  0.08100  Biso   1.000  H
  N36      1.0000 0.57200  0.02100  0.05200  Biso   1.000  N
  H176     1.0000 0.54990  0.03920  0.03190  Biso   1.000  H
  H177     1.0000 0.53920  0.00950  0.07170  Biso   1.000  H
  C213     1.0000 0.66000  0.01100  0.05150  Biso   1.000  C
  C214     1.0000 0.80780  0.01640  0.02250  Biso   1.000  C
  H178     1.0000 0.84660  0.02800  0.00160  Biso   1.000  H
  C215     1.0000 0.83930  0.98690  0.05570  Biso   1.000  C
  H179     1.0000 0.89930  0.97890  0.05710  Biso   1.000  H
  C216     1.0000 0.69160  0.98150  0.08480  Biso   1.000  C
  H180     1.0000 0.65270  0.96990  0.10560  Biso   1.000  H
  O73      1.0000 0.39600  0.43410  0.12880  Biso   1.000  O
  O74      1.0000 0.26050  0.41070  0.14240  Biso   1.000  O
  O75      1.0000 0.23890  0.58770  0.96490  Biso   1.000  O
  O76      1.0000 0.10250  0.56500  0.97790  Biso   1.000  O
  C217     1.0000 0.31320  0.43680  0.12190  Biso   1.000  C
  C218     1.0000 0.18470  0.56130  0.98580  Biso   1.000  C
  C219     1.0000 0.21810  0.52840  0.02040  Biso   1.000  C
  C220     1.0000 0.28120  0.46950  0.08680  Biso   1.000  C
  N37      1.0000 0.07400  0.48280  0.02330  Biso   1.000  N
  H181     1.0000 0.04220  0.45980  0.03450  Biso   1.000  H
  H182     1.0000 0.05290  0.50110  0.00330  Biso   1.000  H
  C221     1.0000 0.33860  0.50610  0.06810  Biso   1.000  C
  H183     1.0000 0.39680  0.51030  0.07740  Biso   1.000  H
  C222     1.0000 0.30330  0.53450  0.03600  Biso   1.000  C
  H184     1.0000 0.33850  0.55930  0.02410  Biso   1.000  H
  C223     1.0000 0.16370  0.49070  0.03820  Biso   1.000  C
  C224     1.0000 0.19740  0.46160  0.07020  Biso   1.000  C
  H185     1.0000 0.16310  0.43580  0.08100  Biso   1.000  H
  N38      1.0000 0.07200  0.52100  0.05200  Biso   1.000  N
  H186     1.0000 0.04990  0.53920  0.03190  Biso   1.000  H
  H187     1.0000 0.03920  0.50950  0.07170  Biso   1.000  H
  C225     1.0000 0.16000  0.51100  0.05150  Biso   1.000  C
  C226     1.0000 0.30780  0.51640  0.02250  Biso   1.000  C
  H188     1.0000 0.34660  0.52800  0.00160  Biso   1.000  H
  C227     1.0000 0.33930  0.48690  0.05570  Biso   1.000  C
  H189     1.0000 0.39930  0.47890  0.05710  Biso   1.000  H
  C228     1.0000 0.19160  0.48150  0.08480  Biso   1.000  C
  H190     1.0000 0.15270  0.46990  0.10560  Biso   1.000  H
  O77      1.0000 0.39600  0.93410  0.62880  Biso   1.000  O
  O78      1.0000 0.26050  0.91070  0.64240  Biso   1.000  O
  O79      1.0000 0.23890  0.08770  0.46490  Biso   1.000  O
  O80      1.0000 0.10250  0.06500  0.47790  Biso   1.000  O
  C229     1.0000 0.31320  0.93680  0.62190  Biso   1.000  C
  C230     1.0000 0.18470  0.06130  0.48580  Biso   1.000  C
  C231     1.0000 0.21810  0.02840  0.52040  Biso   1.000  C
  C232     1.0000 0.28120  0.96950  0.58680  Biso   1.000  C
  N39      1.0000 0.07400  0.98280  0.52330  Biso   1.000  N
  H191     1.0000 0.04220  0.95980  0.53450  Biso   1.000  H
  H192     1.0000 0.05290  0.00110  0.50330  Biso   1.000  H
  C233     1.0000 0.33860  0.00610  0.56810  Biso   1.000  C
  H193     1.0000 0.39680  0.01030  0.57740  Biso   1.000  H
  C234     1.0000 0.30330  0.03450  0.53600  Biso   1.000  C
  H194     1.0000 0.33850  0.05930  0.52410  Biso   1.000  H
  C235     1.0000 0.16370  0.99070  0.53820  Biso   1.000  C
  C236     1.0000 0.19740  0.96160  0.57020  Biso   1.000  C
  H195     1.0000 0.16310  0.93580  0.58100  Biso   1.000  H
  N40      1.0000 0.07200  0.02100  0.55200  Biso   1.000  N
  H196     1.0000 0.04990  0.03920  0.53190  Biso   1.000  H
  H197     1.0000 0.03920  0.00950  0.57170  Biso   1.000  H
  C237     1.0000 0.16000  0.01100  0.55150  Biso   1.000  C
  C238     1.0000 0.30780  0.01640  0.52250  Biso   1.000  C
  H198     1.0000 0.34660  0.02800  0.50160  Biso   1.000  H
  C239     1.0000 0.33930  0.98690  0.55570  Biso   1.000  C
  H199     1.0000 0.39930  0.97890  0.55710  Biso   1.000  H
  C240     1.0000 0.19160  0.98150  0.58480  Biso   1.000  C
  H200     1.0000 0.15270  0.96990  0.60560  Biso   1.000  H
  O81      1.0000 0.85400  0.31590  0.62880  Biso   1.000  O
  O82      1.0000 0.98950  0.33930  0.64240  Biso   1.000  O
  O83      1.0000 0.01110  0.16230  0.46490  Biso   1.000  O
  O84      1.0000 0.14750  0.18500  0.47790  Biso   1.000  O
  C241     1.0000 0.93680  0.31320  0.62190  Biso   1.000  C
  C242     1.0000 0.06530  0.18870  0.48580  Biso   1.000  C
  C243     1.0000 0.03190  0.22160  0.52040  Biso   1.000  C
  C244     1.0000 0.96880  0.28050  0.58680  Biso   1.000  C
  N41      1.0000 0.17600  0.26720  0.52330  Biso   1.000  N
  H201     1.0000 0.20780  0.29020  0.53450  Biso   1.000  H
  H202     1.0000 0.19710  0.24890  0.50330  Biso   1.000  H
  C245     1.0000 0.91140  0.24390  0.56810  Biso   1.000  C
  H203     1.0000 0.85320  0.23970  0.57740  Biso   1.000  H
  C246     1.0000 0.94670  0.21550  0.53600  Biso   1.000  C
  H204     1.0000 0.91150  0.19070  0.52410  Biso   1.000  H
  C247     1.0000 0.08630  0.25930  0.53820  Biso   1.000  C
  C248     1.0000 0.05260  0.28840  0.57020  Biso   1.000  C
  H205     1.0000 0.08690  0.31420  0.58100  Biso   1.000  H
  N42      1.0000 0.17800  0.22900  0.55200  Biso   1.000  N
  H206     1.0000 0.20010  0.21080  0.53190  Biso   1.000  H
  H207     1.0000 0.21080  0.24050  0.57170  Biso   1.000  H
  C249     1.0000 0.09000  0.23900  0.55150  Biso   1.000  C
  C250     1.0000 0.94220  0.23360  0.52250  Biso   1.000  C
  H208     1.0000 0.90340  0.22200  0.50160  Biso   1.000  H
  C251     1.0000 0.91070  0.26310  0.55570  Biso   1.000  C
  H209     1.0000 0.85070  0.27110  0.55710  Biso   1.000  H
  C252     1.0000 0.05840  0.26850  0.58480  Biso   1.000  C
  H210     1.0000 0.09730  0.28010  0.60560  Biso   1.000  H
  O85      1.0000 0.85400  0.81590  0.12880  Biso   1.000  O
  O86      1.0000 0.98950  0.83930  0.14240  Biso   1.000  O
  O87      1.0000 0.01110  0.66230  0.96490  Biso   1.000  O
  O88      1.0000 0.14750  0.68500  0.97790  Biso   1.000  O
  C253     1.0000 0.93680  0.81320  0.12190  Biso   1.000  C
  C254     1.0000 0.06530  0.68870  0.98580  Biso   1.000  C
  C255     1.0000 0.03190  0.72160  0.02040  Biso   1.000  C
  C256     1.0000 0.96880  0.78050  0.08680  Biso   1.000  C
  N43      1.0000 0.17600  0.76720  0.02330  Biso   1.000  N
  H211     1.0000 0.20780  0.79020  0.03450  Biso   1.000  H
  H212     1.0000 0.19710  0.74890  0.00330  Biso   1.000  H
  C257     1.0000 0.91140  0.74390  0.06810  Biso   1.000  C
  H213     1.0000 0.85320  0.73970  0.07740  Biso   1.000  H
  C258     1.0000 0.94670  0.71550  0.03600  Biso   1.000  C
  H214     1.0000 0.91150  0.69070  0.02410  Biso   1.000  H
  C259     1.0000 0.08630  0.75930  0.03820  Biso   1.000  C
  C260     1.0000 0.05260  0.78840  0.07020  Biso   1.000  C
  H215     1.0000 0.08690  0.81420  0.08100  Biso   1.000  H
  N44      1.0000 0.17800  0.72900  0.05200  Biso   1.000  N
  H216     1.0000 0.20010  0.71080  0.03190  Biso   1.000  H
  H217     1.0000 0.21080  0.74050  0.07170  Biso   1.000  H
  C261     1.0000 0.09000  0.73900  0.05150  Biso   1.000  C
  C262     1.0000 0.94220  0.73360  0.02250  Biso   1.000  C
  H218     1.0000 0.90340  0.72200  0.00160  Biso   1.000  H
  C263     1.0000 0.91070  0.76310  0.05570  Biso   1.000  C
  H219     1.0000 0.85070  0.77110  0.05710  Biso   1.000  H
  C264     1.0000 0.05840  0.76850  0.08480  Biso   1.000  C
  H220     1.0000 0.09730  0.78010  0.10560  Biso   1.000  H
  O89      1.0000 0.35400  0.31590  0.12880  Biso   1.000  O
  O90      1.0000 0.48950  0.33930  0.14240  Biso   1.000  O
  O91      1.0000 0.51110  0.16230  0.96490  Biso   1.000  O
  O92      1.0000 0.64750  0.18500  0.97790  Biso   1.000  O
  C265     1.0000 0.43680  0.31320  0.12190  Biso   1.000  C
  C266     1.0000 0.56530  0.18870  0.98580  Biso   1.000  C
  C267     1.0000 0.53190  0.22160  0.02040  Biso   1.000  C
  C268     1.0000 0.46880  0.28050  0.08680  Biso   1.000  C
  N45      1.0000 0.67600  0.26720  0.02330  Biso   1.000  N
  H221     1.0000 0.70780  0.29020  0.03450  Biso   1.000  H
  H222     1.0000 0.69710  0.24890  0.00330  Biso   1.000  H
  C269     1.0000 0.41140  0.24390  0.06810  Biso   1.000  C
  H223     1.0000 0.35320  0.23970  0.07740  Biso   1.000  H
  C270     1.0000 0.44670  0.21550  0.03600  Biso   1.000  C
  H224     1.0000 0.41150  0.19070  0.02410  Biso   1.000  H
  C271     1.0000 0.58630  0.25930  0.03820  Biso   1.000  C
  C272     1.0000 0.55260  0.28840  0.07020  Biso   1.000  C
  H225     1.0000 0.58690  0.31420  0.08100  Biso   1.000  H
  N46      1.0000 0.67800  0.22900  0.05200  Biso   1.000  N
  H226     1.0000 0.70010  0.21080  0.03190  Biso   1.000  H
  H227     1.0000 0.71080  0.24050  0.07170  Biso   1.000  H
  C273     1.0000 0.59000  0.23900  0.05150  Biso   1.000  C
  C274     1.0000 0.44220  0.23360  0.02250  Biso   1.000  C
  H228     1.0000 0.40340  0.22200  0.00160  Biso   1.000  H
  C275     1.0000 0.41070  0.26310  0.05570  Biso   1.000  C
  H229     1.0000 0.35070  0.27110  0.05710  Biso   1.000  H
  C276     1.0000 0.55840  0.26850  0.08480  Biso   1.000  C
  H230     1.0000 0.59730  0.28010  0.10560  Biso   1.000  H
  O93      1.0000 0.35400  0.81590  0.62880  Biso   1.000  O
  O94      1.0000 0.48950  0.83930  0.64240  Biso   1.000  O
  O95      1.0000 0.51110  0.66230  0.46490  Biso   1.000  O
  O96      1.0000 0.64750  0.68500  0.47790  Biso   1.000  O
  C277     1.0000 0.43680  0.81320  0.62190  Biso   1.000  C
  C278     1.0000 0.56530  0.68870  0.48580  Biso   1.000  C
  C279     1.0000 0.53190  0.72160  0.52040  Biso   1.000  C
  C280     1.0000 0.46880  0.78050  0.58680  Biso   1.000  C
  N47      1.0000 0.67600  0.76720  0.52330  Biso   1.000  N
  H231     1.0000 0.70780  0.79020  0.53450  Biso   1.000  H
  H232     1.0000 0.69710  0.74890  0.50330  Biso   1.000  H
  C281     1.0000 0.41140  0.74390  0.56810  Biso   1.000  C
  H233     1.0000 0.35320  0.73970  0.57740  Biso   1.000  H
  C282     1.0000 0.44670  0.71550  0.53600  Biso   1.000  C
  H234     1.0000 0.41150  0.69070  0.52410  Biso   1.000  H
  C283     1.0000 0.58630  0.75930  0.53820  Biso   1.000  C
  C284     1.0000 0.55260  0.78840  0.57020  Biso   1.000  C
  H235     1.0000 0.58690  0.81420  0.58100  Biso   1.000  H
  N48      1.0000 0.67800  0.72900  0.55200  Biso   1.000  N
  H236     1.0000 0.70010  0.71080  0.53190  Biso   1.000  H
  H237     1.0000 0.71080  0.74050  0.57170  Biso   1.000  H
  C285     1.0000 0.59000  0.73900  0.55150  Biso   1.000  C
  C286     1.0000 0.44220  0.73360  0.52250  Biso   1.000  C
  H238     1.0000 0.40340  0.72200  0.50160  Biso   1.000  H
  C287     1.0000 0.41070  0.76310  0.55570  Biso   1.000  C
  H239     1.0000 0.35070  0.77110  0.55710  Biso   1.000  H
  C288     1.0000 0.55840  0.76850  0.58480  Biso   1.000  C
  H240     1.0000 0.59730  0.78010  0.60560  Biso   1.000  H
  O97      1.0000 0.14600  0.56590  0.87880  Biso   1.000  O
  O98      1.0000 0.01050  0.58930  0.89240  Biso   1.000  O
  O99      1.0000 0.98890  0.41230  0.71490  Biso   1.000  O
  O100     1.0000 0.85250  0.43500  0.72790  Biso   1.000  O
  C289     1.0000 0.06320  0.56320  0.87190  Biso   1.000  C
  C290     1.0000 0.93470  0.43870  0.73580  Biso   1.000  C
  C291     1.0000 0.96810  0.47160  0.77040  Biso   1.000  C
  C292     1.0000 0.03120  0.53050  0.83680  Biso   1.000  C
  N49      1.0000 0.82400  0.51720  0.77330  Biso   1.000  N
  H241     1.0000 0.79220  0.54020  0.78450  Biso   1.000  H
  H242     1.0000 0.80290  0.49890  0.75330  Biso   1.000  H
  C293     1.0000 0.08860  0.49390  0.81810  Biso   1.000  C
  H243     1.0000 0.14680  0.48970  0.82740  Biso   1.000  H
  C294     1.0000 0.05330  0.46550  0.78600  Biso   1.000  C
  H244     1.0000 0.08850  0.44070  0.77410  Biso   1.000  H
  C295     1.0000 0.91370  0.50930  0.78820  Biso   1.000  C
  C296     1.0000 0.94740  0.53840  0.82020  Biso   1.000  C
  H245     1.0000 0.91310  0.56420  0.83100  Biso   1.000  H
  N50      1.0000 0.82200  0.47900  0.80200  Biso   1.000  N
  H246     1.0000 0.79990  0.46080  0.78190  Biso   1.000  H
  H247     1.0000 0.78920  0.49050  0.82170  Biso   1.000  H
  C297     1.0000 0.91000  0.48900  0.80150  Biso   1.000  C
  C298     1.0000 0.05780  0.48360  0.77250  Biso   1.000  C
  H248     1.0000 0.09660  0.47200  0.75160  Biso   1.000  H
  C299     1.0000 0.08930  0.51310  0.80570  Biso   1.000  C
  H249     1.0000 0.14930  0.52110  0.80710  Biso   1.000  H
  C300     1.0000 0.94160  0.51850  0.83480  Biso   1.000  C
  H250     1.0000 0.90270  0.53010  0.85560  Biso   1.000  H
  O101     1.0000 0.14600  0.06590  0.37880  Biso   1.000  O
  O102     1.0000 0.01050  0.08930  0.39240  Biso   1.000  O
  O103     1.0000 0.98890  0.91230  0.21490  Biso   1.000  O
  O104     1.0000 0.85250  0.93500  0.22790  Biso   1.000  O
  C301     1.0000 0.06320  0.06320  0.37190  Biso   1.000  C
  C302     1.0000 0.93470  0.93870  0.23580  Biso   1.000  C
  C303     1.0000 0.96810  0.97160  0.27040  Biso   1.000  C
  C304     1.0000 0.03120  0.03050  0.33680  Biso   1.000  C
  N51      1.0000 0.82400  0.01720  0.27330  Biso   1.000  N
  H251     1.0000 0.79220  0.04020  0.28450  Biso   1.000  H
  H252     1.0000 0.80290  0.99890  0.25330  Biso   1.000  H
  C305     1.0000 0.08860  0.99390  0.31810  Biso   1.000  C
  H253     1.0000 0.14680  0.98970  0.32740  Biso   1.000  H
  C306     1.0000 0.05330  0.96550  0.28600  Biso   1.000  C
  H254     1.0000 0.08850  0.94070  0.27410  Biso   1.000  H
  C307     1.0000 0.91370  0.00930  0.28820  Biso   1.000  C
  C308     1.0000 0.94740  0.03840  0.32020  Biso   1.000  C
  H255     1.0000 0.91310  0.06420  0.33100  Biso   1.000  H
  N52      1.0000 0.82200  0.97900  0.30200  Biso   1.000  N
  H256     1.0000 0.79990  0.96080  0.28190  Biso   1.000  H
  H257     1.0000 0.78920  0.99050  0.32170  Biso   1.000  H
  C309     1.0000 0.91000  0.98900  0.30150  Biso   1.000  C
  C310     1.0000 0.05780  0.98360  0.27250  Biso   1.000  C
  H258     1.0000 0.09660  0.97200  0.25160  Biso   1.000  H
  C311     1.0000 0.08930  0.01310  0.30570  Biso   1.000  C
  H259     1.0000 0.14930  0.02110  0.30710  Biso   1.000  H
  C312     1.0000 0.94160  0.01850  0.33480  Biso   1.000  C
  H260     1.0000 0.90270  0.03010  0.35560  Biso   1.000  H
  O105     1.0000 0.64600  0.56590  0.37880  Biso   1.000  O
  O106     1.0000 0.51050  0.58930  0.39240  Biso   1.000  O
  O107     1.0000 0.48890  0.41230  0.21490  Biso   1.000  O
  O108     1.0000 0.35250  0.43500  0.22790  Biso   1.000  O
  C313     1.0000 0.56320  0.56320  0.37190  Biso   1.000  C
  C314     1.0000 0.43470  0.43870  0.23580  Biso   1.000  C
  C315     1.0000 0.46810  0.47160  0.27040  Biso   1.000  C
  C316     1.0000 0.53120  0.53050  0.33680  Biso   1.000  C
  N53      1.0000 0.32400  0.51720  0.27330  Biso   1.000  N
  H261     1.0000 0.29220  0.54020  0.28450  Biso   1.000  H
  H262     1.0000 0.30290  0.49890  0.25330  Biso   1.000  H
  C317     1.0000 0.58860  0.49390  0.31810  Biso   1.000  C
  H263     1.0000 0.64680  0.48970  0.32740  Biso   1.000  H
  C318     1.0000 0.55330  0.46550  0.28600  Biso   1.000  C
  H264     1.0000 0.58850  0.44070  0.27410  Biso   1.000  H
  C319     1.0000 0.41370  0.50930  0.28820  Biso   1.000  C
  C320     1.0000 0.44740  0.53840  0.32020  Biso   1.000  C
  H265     1.0000 0.41310  0.56420  0.33100  Biso   1.000  H
  N54      1.0000 0.32200  0.47900  0.30200  Biso   1.000  N
  H266     1.0000 0.29990  0.46080  0.28190  Biso   1.000  H
  H267     1.0000 0.28920  0.49050  0.32170  Biso   1.000  H
  C321     1.0000 0.41000  0.48900  0.30150  Biso   1.000  C
  C322     1.0000 0.55780  0.48360  0.27250  Biso   1.000  C
  H268     1.0000 0.59660  0.47200  0.25160  Biso   1.000  H
  C323     1.0000 0.58930  0.51310  0.30570  Biso   1.000  C
  H269     1.0000 0.64930  0.52110  0.30710  Biso   1.000  H
  C324     1.0000 0.44160  0.51850  0.33480  Biso   1.000  C
  H270     1.0000 0.40270  0.53010  0.35560  Biso   1.000  H
  O109     1.0000 0.64600  0.06590  0.87880  Biso   1.000  O
  O110     1.0000 0.51050  0.08930  0.89240  Biso   1.000  O
  O111     1.0000 0.48890  0.91230  0.71490  Biso   1.000  O
  O112     1.0000 0.35250  0.93500  0.72790  Biso   1.000  O
  C325     1.0000 0.56320  0.06320  0.87190  Biso   1.000  C
  C326     1.0000 0.43470  0.93870  0.73580  Biso   1.000  C
  C327     1.0000 0.46810  0.97160  0.77040  Biso   1.000  C
  C328     1.0000 0.53120  0.03050  0.83680  Biso   1.000  C
  N55      1.0000 0.32400  0.01720  0.77330  Biso   1.000  N
  H271     1.0000 0.29220  0.04020  0.78450  Biso   1.000  H
  H272     1.0000 0.30290  0.99890  0.75330  Biso   1.000  H
  C329     1.0000 0.58860  0.99390  0.81810  Biso   1.000  C
  H273     1.0000 0.64680  0.98970  0.82740  Biso   1.000  H
  C330     1.0000 0.55330  0.96550  0.78600  Biso   1.000  C
  H274     1.0000 0.58850  0.94070  0.77410  Biso   1.000  H
  C331     1.0000 0.41370  0.00930  0.78820  Biso   1.000  C
  C332     1.0000 0.44740  0.03840  0.82020  Biso   1.000  C
  H275     1.0000 0.41310  0.06420  0.83100  Biso   1.000  H
  N56      1.0000 0.32200  0.97900  0.80200  Biso   1.000  N
  H276     1.0000 0.29990  0.96080  0.78190  Biso   1.000  H
  H277     1.0000 0.28920  0.99050  0.82170  Biso   1.000  H
  C333     1.0000 0.41000  0.98900  0.80150  Biso   1.000  C
  C334     1.0000 0.55780  0.98360  0.77250  Biso   1.000  C
  H278     1.0000 0.59660  0.97200  0.75160  Biso   1.000  H
  C335     1.0000 0.58930  0.01310  0.80570  Biso   1.000  C
  H279     1.0000 0.64930  0.02110  0.80710  Biso   1.000  H
  C336     1.0000 0.44160  0.01850  0.83480  Biso   1.000  C
  H280     1.0000 0.40270  0.03010  0.85560  Biso   1.000  H
  O113     1.0000 0.10400  0.68410  0.87880  Biso   1.000  O
  O114     1.0000 0.23950  0.66070  0.89240  Biso   1.000  O
  O115     1.0000 0.26110  0.83770  0.71490  Biso   1.000  O
  O116     1.0000 0.39750  0.81500  0.72790  Biso   1.000  O
  C337     1.0000 0.18680  0.68680  0.87190  Biso   1.000  C
  C338     1.0000 0.31530  0.81130  0.73580  Biso   1.000  C
  C339     1.0000 0.28190  0.77840  0.77040  Biso   1.000  C
  C340     1.0000 0.21880  0.71950  0.83680  Biso   1.000  C
  N57      1.0000 0.42600  0.73280  0.77330  Biso   1.000  N
  H281     1.0000 0.45780  0.70980  0.78450  Biso   1.000  H
  H282     1.0000 0.44710  0.75110  0.75330  Biso   1.000  H
  C341     1.0000 0.16140  0.75610  0.81810  Biso   1.000  C
  H283     1.0000 0.10320  0.76030  0.82740  Biso   1.000  H
  C342     1.0000 0.19670  0.78450  0.78600  Biso   1.000  C
  H284     1.0000 0.16150  0.80930  0.77410  Biso   1.000  H
  C343     1.0000 0.33630  0.74070  0.78820  Biso   1.000  C
  C344     1.0000 0.30260  0.71160  0.82020  Biso   1.000  C
  H285     1.0000 0.33690  0.68580  0.83100  Biso   1.000  H
  N58      1.0000 0.42800  0.77100  0.80200  Biso   1.000  N
  H286     1.0000 0.45010  0.78920  0.78190  Biso   1.000  H
  H287     1.0000 0.46080  0.75950  0.82170  Biso   1.000  H
  C345     1.0000 0.34000  0.76100  0.80150  Biso   1.000  C
  C346     1.0000 0.19220  0.76640  0.77250  Biso   1.000  C
  H288     1.0000 0.15340  0.77800  0.75160  Biso   1.000  H
  C347     1.0000 0.16070  0.73690  0.80570  Biso   1.000  C
  H289     1.0000 0.10070  0.72890  0.80710  Biso   1.000  H
  C348     1.0000 0.30840  0.73150  0.83480  Biso   1.000  C
  H290     1.0000 0.34730  0.71990  0.85560  Biso   1.000  H
  O117     1.0000 0.10400  0.18410  0.37880  Biso   1.000  O
  O118     1.0000 0.23950  0.16070  0.39240  Biso   1.000  O
  O119     1.0000 0.26110  0.33770  0.21490  Biso   1.000  O
  O120     1.0000 0.39750  0.31500  0.22790  Biso   1.000  O
  C349     1.0000 0.18680  0.18680  0.37190  Biso   1.000  C
  C350     1.0000 0.31530  0.31130  0.23580  Biso   1.000  C
  C351     1.0000 0.28190  0.27840  0.27040  Biso   1.000  C
  C352     1.0000 0.21880  0.21950  0.33680  Biso   1.000  C
  N59      1.0000 0.42600  0.23280  0.27330  Biso   1.000  N
  H291     1.0000 0.45780  0.20980  0.28450  Biso   1.000  H
  H292     1.0000 0.44710  0.25110  0.25330  Biso   1.000  H
  C353     1.0000 0.16140  0.25610  0.31810  Biso   1.000  C
  H293     1.0000 0.10320  0.26030  0.32740  Biso   1.000  H
  C354     1.0000 0.19670  0.28450  0.28600  Biso   1.000  C
  H294     1.0000 0.16150  0.30930  0.27410  Biso   1.000  H
  C355     1.0000 0.33630  0.24070  0.28820  Biso   1.000  C
  C356     1.0000 0.30260  0.21160  0.32020  Biso   1.000  C
  H295     1.0000 0.33690  0.18580  0.33100  Biso   1.000  H
  N60      1.0000 0.42800  0.27100  0.30200  Biso   1.000  N
  H296     1.0000 0.45010  0.28920  0.28190  Biso   1.000  H
  H297     1.0000 0.46080  0.25950  0.32170  Biso   1.000  H
  C357     1.0000 0.34000  0.26100  0.30150  Biso   1.000  C
  C358     1.0000 0.19220  0.26640  0.27250  Biso   1.000  C
  H298     1.0000 0.15340  0.27800  0.25160  Biso   1.000  H
  C359     1.0000 0.16070  0.23690  0.30570  Biso   1.000  C
  H299     1.0000 0.10070  0.22890  0.30710  Biso   1.000  H
  C360     1.0000 0.30840  0.23150  0.33480  Biso   1.000  C
  H300     1.0000 0.34730  0.21990  0.35560  Biso   1.000  H
  O121     1.0000 0.60400  0.68410  0.37880  Biso   1.000  O
  O122     1.0000 0.73950  0.66070  0.39240  Biso   1.000  O
  O123     1.0000 0.76110  0.83770  0.21490  Biso   1.000  O
  O124     1.0000 0.89750  0.81500  0.22790  Biso   1.000  O
  C361     1.0000 0.68680  0.68680  0.37190  Biso   1.000  C
  C362     1.0000 0.81530  0.81130  0.23580  Biso   1.000  C
  C363     1.0000 0.78190  0.77840  0.27040  Biso   1.000  C
  C364     1.0000 0.71880  0.71950  0.33680  Biso   1.000  C
  N61      1.0000 0.92600  0.73280  0.27330  Biso   1.000  N
  H301     1.0000 0.95780  0.70980  0.28450  Biso   1.000  H
  H302     1.0000 0.94710  0.75110  0.25330  Biso   1.000  H
  C365     1.0000 0.66140  0.75610  0.31810  Biso   1.000  C
  H303     1.0000 0.60320  0.76030  0.32740  Biso   1.000  H
  C366     1.0000 0.69670  0.78450  0.28600  Biso   1.000  C
  H304     1.0000 0.66150  0.80930  0.27410  Biso   1.000  H
  C367     1.0000 0.83630  0.74070  0.28820  Biso   1.000  C
  C368     1.0000 0.80260  0.71160  0.32020  Biso   1.000  C
  H305     1.0000 0.83690  0.68580  0.33100  Biso   1.000  H
  N62      1.0000 0.92800  0.77100  0.30200  Biso   1.000  N
  H306     1.0000 0.95010  0.78920  0.28190  Biso   1.000  H
  H307     1.0000 0.96080  0.75950  0.32170  Biso   1.000  H
  C369     1.0000 0.84000  0.76100  0.30150  Biso   1.000  C
  C370     1.0000 0.69220  0.76640  0.27250  Biso   1.000  C
  H308     1.0000 0.65340  0.77800  0.25160  Biso   1.000  H
  C371     1.0000 0.66070  0.73690  0.30570  Biso   1.000  C
  H309     1.0000 0.60070  0.72890  0.30710  Biso   1.000  H
  C372     1.0000 0.80840  0.73150  0.33480  Biso   1.000  C
  H310     1.0000 0.84730  0.71990  0.35560  Biso   1.000  H
  O125     1.0000 0.60400  0.18410  0.87880  Biso   1.000  O
  O126     1.0000 0.73950  0.16070  0.89240  Biso   1.000  O
  O127     1.0000 0.76110  0.33770  0.71490  Biso   1.000  O
  O128     1.0000 0.89750  0.31500  0.72790  Biso   1.000  O
  C373     1.0000 0.68680  0.18680  0.87190  Biso   1.000  C
  C374     1.0000 0.81530  0.31130  0.73580  Biso   1.000  C
  C375     1.0000 0.78190  0.27840  0.77040  Biso   1.000  C
  C376     1.0000 0.71880  0.21950  0.83680  Biso   1.000  C
  N63      1.0000 0.92600  0.23280  0.77330  Biso   1.000  N
  H311     1.0000 0.95780  0.20980  0.78450  Biso   1.000  H
  H312     1.0000 0.94710  0.25110  0.75330  Biso   1.000  H
  C377     1.0000 0.66140  0.25610  0.81810  Biso   1.000  C
  H313     1.0000 0.60320  0.26030  0.82740  Biso   1.000  H
  C378     1.0000 0.69670  0.28450  0.78600  Biso   1.000  C
  H314     1.0000 0.66150  0.30930  0.77410  Biso   1.000  H
  C379     1.0000 0.83630  0.24070  0.78820  Biso   1.000  C
  C380     1.0000 0.80260  0.21160  0.82020  Biso   1.000  C
  H315     1.0000 0.83690  0.18580  0.83100  Biso   1.000  H
  N64      1.0000 0.92800  0.27100  0.80200  Biso   1.000  N
  H316     1.0000 0.95010  0.28920  0.78190  Biso   1.000  H
  H317     1.0000 0.96080  0.25950  0.82170  Biso   1.000  H
  C381     1.0000 0.84000  0.26100  0.80150  Biso   1.000  C
  C382     1.0000 0.69220  0.26640  0.77250  Biso   1.000  C
  H318     1.0000 0.65340  0.27800  0.75160  Biso   1.000  H
  C383     1.0000 0.66070  0.23690  0.80570  Biso   1.000  C
  H319     1.0000 0.60070  0.22890  0.80710  Biso   1.000  H
  C384     1.0000 0.80840  0.23150  0.83480  Biso   1.000  C
  H320     1.0000 0.84730  0.21990  0.85560  Biso   1.000  H
  In9      1.0000 0.87500  0.37500  0.67950  Biso   1.000  In
  In10     1.0000 0.87500  0.87500  0.17950  Biso   1.000  In
  In11     1.0000 0.37500  0.37500  0.17950  Biso   1.000  In
  In12     1.0000 0.37500  0.87500  0.67950  Biso   1.000  In
  In13     1.0000 0.12500  0.62500  0.92950  Biso   1.000  In
  In14     1.0000 0.12500  0.12500  0.42950  Biso   1.000  In
  In15     1.0000 0.62500  0.62500  0.42950  Biso   1.000  In
  In16     1.0000 0.62500  0.12500  0.92950  Biso   1.000  In
