data_image0
_cell_length_a       15.0441
_cell_length_b       26.821
_cell_length_c       31.4116
_cell_angle_alpha    90
_cell_angle_beta     90
_cell_angle_gamma    90

_symmetry_space_group_name_H-M    "P 1"
_symmetry_int_tables_number       1

loop_
  _symmetry_equiv_pos_as_xyz
  'x, y, z'

loop_
  _atom_site_label
  _atom_site_occupancy
  _atom_site_fract_x
  _atom_site_fract_y
  _atom_site_fract_z
  _atom_site_thermal_displace_type
  _atom_site_B_iso_or_equiv
  _atom_site_type_symbol
  O1       1.0000 0.60470  0.56560  0.37140  Biso   1.000  O
  O2       1.0000 0.74000  0.58940  0.35750  Biso   1.000  O
  O3       1.0000 0.89600  0.43530  0.52270  Biso   1.000  O
  O4       1.0000 0.76030  0.41270  0.53540  Biso   1.000  O
  C1       1.0000 0.68620  0.56330  0.37840  Biso   1.000  C
  C2       1.0000 0.81500  0.43870  0.51430  Biso   1.000  C
  N1       1.0000 0.92300  0.52120  0.47860  Biso   1.000  N
  H1       1.0000 0.94570  0.50360  0.49870  Biso   1.000  H
  H2       1.0000 0.95250  0.54530  0.46750  Biso   1.000  H
  C3       1.0000 0.80200  0.53970  0.43060  Biso   1.000  C
  H3       1.0000 0.83660  0.56540  0.41960  Biso   1.000  H
  C4       1.0000 0.83460  0.51020  0.46350  Biso   1.000  C
  C5       1.0000 0.78280  0.47190  0.48000  Biso   1.000  C
  C6       1.0000 0.69850  0.46290  0.46350  Biso   1.000  C
  H4       1.0000 0.66390  0.43730  0.47450  Biso   1.000  H
  C7       1.0000 0.66600  0.49240  0.43060  Biso   1.000  C
  H5       1.0000 0.60960  0.48640  0.41960  Biso   1.000  H
  C8       1.0000 0.71780  0.53070  0.41410  Biso   1.000  C
  N2       1.0000 0.93400  0.48770  0.45550  Biso   1.000  N
  H6       1.0000 0.95760  0.47150  0.47630  Biso   1.000  H
  H7       1.0000 0.96790  0.50130  0.43660  Biso   1.000  H
  C9       1.0000 0.80600  0.52150  0.41770  Biso   1.000  C
  H8       1.0000 0.84520  0.53440  0.39770  Biso   1.000  H
  C10      1.0000 0.83900  0.49190  0.45210  Biso   1.000  C
  C11      1.0000 0.69200  0.47800  0.47250  Biso   1.000  C
  H9       1.0000 0.65230  0.46210  0.49070  Biso   1.000  H
  C12      1.0000 0.65790  0.50610  0.43980  Biso   1.000  C
  H10      1.0000 0.59700  0.50830  0.43520  Biso   1.000  H
  O5       1.0000 0.60470  0.06560  0.87140  Biso   1.000  O
  O6       1.0000 0.74000  0.08940  0.85750  Biso   1.000  O
  O7       1.0000 0.89600  0.93530  0.02270  Biso   1.000  O
  O8       1.0000 0.76030  0.91270  0.03540  Biso   1.000  O
  C13      1.0000 0.68620  0.06330  0.87840  Biso   1.000  C
  C14      1.0000 0.81500  0.93870  0.01430  Biso   1.000  C
  N3       1.0000 0.92300  0.02120  0.97860  Biso   1.000  N
  H11      1.0000 0.94570  0.00360  0.99870  Biso   1.000  H
  H12      1.0000 0.95250  0.04530  0.96750  Biso   1.000  H
  C15      1.0000 0.80200  0.03970  0.93060  Biso   1.000  C
  H13      1.0000 0.83660  0.06540  0.91960  Biso   1.000  H
  C16      1.0000 0.83460  0.01020  0.96350  Biso   1.000  C
  C17      1.0000 0.78280  0.97190  0.98000  Biso   1.000  C
  C18      1.0000 0.69850  0.96290  0.96350  Biso   1.000  C
  H14      1.0000 0.66390  0.93730  0.97450  Biso   1.000  H
  C19      1.0000 0.66600  0.99240  0.93060  Biso   1.000  C
  H15      1.0000 0.60960  0.98640  0.91960  Biso   1.000  H
  C20      1.0000 0.71780  0.03070  0.91410  Biso   1.000  C
  N4       1.0000 0.93400  0.98770  0.95550  Biso   1.000  N
  H16      1.0000 0.95760  0.97150  0.97630  Biso   1.000  H
  H17      1.0000 0.96790  0.00130  0.93660  Biso   1.000  H
  C21      1.0000 0.80600  0.02150  0.91770  Biso   1.000  C
  H18      1.0000 0.84520  0.03440  0.89770  Biso   1.000  H
  C22      1.0000 0.83900  0.99190  0.95210  Biso   1.000  C
  C23      1.0000 0.69200  0.97800  0.97250  Biso   1.000  C
  H19      1.0000 0.65230  0.96210  0.99070  Biso   1.000  H
  C24      1.0000 0.65790  0.00610  0.93980  Biso   1.000  C
  H20      1.0000 0.59700  0.00830  0.93520  Biso   1.000  H
  O9       1.0000 0.10470  0.56560  0.87140  Biso   1.000  O
  O10      1.0000 0.24000  0.58940  0.85750  Biso   1.000  O
  O11      1.0000 0.39600  0.43530  0.02270  Biso   1.000  O
  O12      1.0000 0.26030  0.41270  0.03540  Biso   1.000  O
  C25      1.0000 0.18620  0.56330  0.87840  Biso   1.000  C
  C26      1.0000 0.31500  0.43870  0.01430  Biso   1.000  C
  N5       1.0000 0.42300  0.52120  0.97860  Biso   1.000  N
  H21      1.0000 0.44570  0.50360  0.99870  Biso   1.000  H
  H22      1.0000 0.45250  0.54530  0.96750  Biso   1.000  H
  C27      1.0000 0.30200  0.53970  0.93060  Biso   1.000  C
  H23      1.0000 0.33660  0.56540  0.91960  Biso   1.000  H
  C28      1.0000 0.33460  0.51020  0.96350  Biso   1.000  C
  C29      1.0000 0.28280  0.47190  0.98000  Biso   1.000  C
  C30      1.0000 0.19850  0.46290  0.96350  Biso   1.000  C
  H24      1.0000 0.16390  0.43730  0.97450  Biso   1.000  H
  C31      1.0000 0.16600  0.49240  0.93060  Biso   1.000  C
  H25      1.0000 0.10960  0.48640  0.91960  Biso   1.000  H
  C32      1.0000 0.21780  0.53070  0.91410  Biso   1.000  C
  N6       1.0000 0.43400  0.48770  0.95550  Biso   1.000  N
  H26      1.0000 0.45760  0.47150  0.97630  Biso   1.000  H
  H27      1.0000 0.46790  0.50130  0.93660  Biso   1.000  H
  C33      1.0000 0.30600  0.52150  0.91770  Biso   1.000  C
  H28      1.0000 0.34520  0.53440  0.89770  Biso   1.000  H
  C34      1.0000 0.33900  0.49190  0.95210  Biso   1.000  C
  C35      1.0000 0.19200  0.47800  0.97250  Biso   1.000  C
  H29      1.0000 0.15230  0.46210  0.99070  Biso   1.000  H
  C36      1.0000 0.15790  0.50610  0.93980  Biso   1.000  C
  H30      1.0000 0.09700  0.50830  0.93520  Biso   1.000  H
  O13      1.0000 0.10470  0.06560  0.37140  Biso   1.000  O
  O14      1.0000 0.24000  0.08940  0.35750  Biso   1.000  O
  O15      1.0000 0.39600  0.93530  0.52270  Biso   1.000  O
  O16      1.0000 0.26030  0.91270  0.53540  Biso   1.000  O
  C37      1.0000 0.18620  0.06330  0.37840  Biso   1.000  C
  C38      1.0000 0.31500  0.93870  0.51430  Biso   1.000  C
  N7       1.0000 0.42300  0.02120  0.47860  Biso   1.000  N
  H31      1.0000 0.44570  0.00360  0.49870  Biso   1.000  H
  H32      1.0000 0.45250  0.04530  0.46750  Biso   1.000  H
  C39      1.0000 0.30200  0.03970  0.43060  Biso   1.000  C
  H33      1.0000 0.33660  0.06540  0.41960  Biso   1.000  H
  C40      1.0000 0.33460  0.01020  0.46350  Biso   1.000  C
  C41      1.0000 0.28280  0.97190  0.48000  Biso   1.000  C
  C42      1.0000 0.19850  0.96290  0.46350  Biso   1.000  C
  H34      1.0000 0.16390  0.93730  0.47450  Biso   1.000  H
  C43      1.0000 0.16600  0.99240  0.43060  Biso   1.000  C
  H35      1.0000 0.10960  0.98640  0.41960  Biso   1.000  H
  C44      1.0000 0.21780  0.03070  0.41410  Biso   1.000  C
  N8       1.0000 0.43400  0.98770  0.45550  Biso   1.000  N
  H36      1.0000 0.45760  0.97150  0.47630  Biso   1.000  H
  H37      1.0000 0.46790  0.00130  0.43660  Biso   1.000  H
  C45      1.0000 0.30600  0.02150  0.41770  Biso   1.000  C
  H38      1.0000 0.34520  0.03440  0.39770  Biso   1.000  H
  C46      1.0000 0.33900  0.99190  0.45210  Biso   1.000  C
  C47      1.0000 0.19200  0.97800  0.47250  Biso   1.000  C
  H39      1.0000 0.15230  0.96210  0.49070  Biso   1.000  H
  C48      1.0000 0.15790  0.00610  0.43980  Biso   1.000  C
  H40      1.0000 0.09700  0.00830  0.43520  Biso   1.000  H
  O17      1.0000 0.14530  0.18440  0.37140  Biso   1.000  O
  O18      1.0000 0.01000  0.16060  0.35750  Biso   1.000  O
  O19      1.0000 0.85400  0.31470  0.52270  Biso   1.000  O
  O20      1.0000 0.98970  0.33730  0.53540  Biso   1.000  O
  C49      1.0000 0.06380  0.18670  0.37840  Biso   1.000  C
  C50      1.0000 0.93500  0.31130  0.51430  Biso   1.000  C
  N9       1.0000 0.82700  0.22880  0.47860  Biso   1.000  N
  H41      1.0000 0.80430  0.24640  0.49870  Biso   1.000  H
  H42      1.0000 0.79750  0.20470  0.46750  Biso   1.000  H
  C51      1.0000 0.94800  0.21030  0.43060  Biso   1.000  C
  H43      1.0000 0.91340  0.18460  0.41960  Biso   1.000  H
  C52      1.0000 0.91540  0.23980  0.46350  Biso   1.000  C
  C53      1.0000 0.96720  0.27810  0.48000  Biso   1.000  C
  C54      1.0000 0.05150  0.28710  0.46350  Biso   1.000  C
  H44      1.0000 0.08610  0.31270  0.47450  Biso   1.000  H
  C55      1.0000 0.08400  0.25760  0.43060  Biso   1.000  C
  H45      1.0000 0.14040  0.26360  0.41960  Biso   1.000  H
  C56      1.0000 0.03220  0.21930  0.41410  Biso   1.000  C
  N10      1.0000 0.81600  0.26230  0.45550  Biso   1.000  N
  H46      1.0000 0.79240  0.27850  0.47630  Biso   1.000  H
  H47      1.0000 0.78210  0.24870  0.43660  Biso   1.000  H
  C57      1.0000 0.94400  0.22850  0.41770  Biso   1.000  C
  H48      1.0000 0.90480  0.21560  0.39770  Biso   1.000  H
  C58      1.0000 0.91100  0.25810  0.45210  Biso   1.000  C
  C59      1.0000 0.05800  0.27200  0.47250  Biso   1.000  C
  H49      1.0000 0.09770  0.28790  0.49070  Biso   1.000  H
  C60      1.0000 0.09210  0.24390  0.43980  Biso   1.000  C
  H50      1.0000 0.15300  0.24170  0.43520  Biso   1.000  H
  O21      1.0000 0.14530  0.68440  0.87140  Biso   1.000  O
  O22      1.0000 0.01000  0.66060  0.85750  Biso   1.000  O
  O23      1.0000 0.85400  0.81470  0.02270  Biso   1.000  O
  O24      1.0000 0.98970  0.83730  0.03540  Biso   1.000  O
  C61      1.0000 0.06380  0.68670  0.87840  Biso   1.000  C
  C62      1.0000 0.93500  0.81130  0.01430  Biso   1.000  C
  N11      1.0000 0.82700  0.72880  0.97860  Biso   1.000  N
  H51      1.0000 0.80430  0.74640  0.99870  Biso   1.000  H
  H52      1.0000 0.79750  0.70470  0.96750  Biso   1.000  H
  C63      1.0000 0.94800  0.71030  0.93060  Biso   1.000  C
  H53      1.0000 0.91340  0.68460  0.91960  Biso   1.000  H
  C64      1.0000 0.91540  0.73980  0.96350  Biso   1.000  C
  C65      1.0000 0.96720  0.77810  0.98000  Biso   1.000  C
  C66      1.0000 0.05150  0.78710  0.96350  Biso   1.000  C
  H54      1.0000 0.08610  0.81270  0.97450  Biso   1.000  H
  C67      1.0000 0.08400  0.75760  0.93060  Biso   1.000  C
  H55      1.0000 0.14040  0.76360  0.91960  Biso   1.000  H
  C68      1.0000 0.03220  0.71930  0.91410  Biso   1.000  C
  N12      1.0000 0.81600  0.76230  0.95550  Biso   1.000  N
  H56      1.0000 0.79240  0.77850  0.97630  Biso   1.000  H
  H57      1.0000 0.78210  0.74870  0.93660  Biso   1.000  H
  C69      1.0000 0.94400  0.72850  0.91770  Biso   1.000  C
  H58      1.0000 0.90480  0.71560  0.89770  Biso   1.000  H
  C70      1.0000 0.91100  0.75810  0.95210  Biso   1.000  C
  C71      1.0000 0.05800  0.77200  0.97250  Biso   1.000  C
  H59      1.0000 0.09770  0.78790  0.99070  Biso   1.000  H
  C72      1.0000 0.09210  0.74390  0.93980  Biso   1.000  C
  H60      1.0000 0.15300  0.74170  0.93520  Biso   1.000  H
  O25      1.0000 0.64530  0.18440  0.87140  Biso   1.000  O
  O26      1.0000 0.51000  0.16060  0.85750  Biso   1.000  O
  O27      1.0000 0.35400  0.31470  0.02270  Biso   1.000  O
  O28      1.0000 0.48970  0.33730  0.03540  Biso   1.000  O
  C73      1.0000 0.56380  0.18670  0.87840  Biso   1.000  C
  C74      1.0000 0.43500  0.31130  0.01430  Biso   1.000  C
  N13      1.0000 0.32700  0.22880  0.97860  Biso   1.000  N
  H61      1.0000 0.30430  0.24640  0.99870  Biso   1.000  H
  H62      1.0000 0.29750  0.20470  0.96750  Biso   1.000  H
  C75      1.0000 0.44800  0.21030  0.93060  Biso   1.000  C
  H63      1.0000 0.41340  0.18460  0.91960  Biso   1.000  H
  C76      1.0000 0.41540  0.23980  0.96350  Biso   1.000  C
  C77      1.0000 0.46720  0.27810  0.98000  Biso   1.000  C
  C78      1.0000 0.55150  0.28710  0.96350  Biso   1.000  C
  H64      1.0000 0.58610  0.31270  0.97450  Biso   1.000  H
  C79      1.0000 0.58400  0.25760  0.93060  Biso   1.000  C
  H65      1.0000 0.64040  0.26360  0.91960  Biso   1.000  H
  C80      1.0000 0.53220  0.21930  0.91410  Biso   1.000  C
  N14      1.0000 0.31600  0.26230  0.95550  Biso   1.000  N
  H66      1.0000 0.29240  0.27850  0.97630  Biso   1.000  H
  H67      1.0000 0.28210  0.24870  0.93660  Biso   1.000  H
  C81      1.0000 0.44400  0.22850  0.91770  Biso   1.000  C
  H68      1.0000 0.40480  0.21560  0.89770  Biso   1.000  H
  C82      1.0000 0.41100  0.25810  0.95210  Biso   1.000  C
  C83      1.0000 0.55800  0.27200  0.97250  Biso   1.000  C
  H69      1.0000 0.59770  0.28790  0.99070  Biso   1.000  H
  C84      1.0000 0.59210  0.24390  0.93980  Biso   1.000  C
  H70      1.0000 0.65300  0.24170  0.93520  Biso   1.000  H
  O29      1.0000 0.64530  0.68440  0.37140  Biso   1.000  O
  O30      1.0000 0.51000  0.66060  0.35750  Biso   1.000  O
  O31      1.0000 0.35400  0.81470  0.52270  Biso   1.000  O
  O32      1.0000 0.48970  0.83730  0.53540  Biso   1.000  O
  C85      1.0000 0.56380  0.68670  0.37840  Biso   1.000  C
  C86      1.0000 0.43500  0.81130  0.51430  Biso   1.000  C
  N15      1.0000 0.32700  0.72880  0.47860  Biso   1.000  N
  H71      1.0000 0.30430  0.74640  0.49870  Biso   1.000  H
  H72      1.0000 0.29750  0.70470  0.46750  Biso   1.000  H
  C87      1.0000 0.44800  0.71030  0.43060  Biso   1.000  C
  H73      1.0000 0.41340  0.68460  0.41960  Biso   1.000  H
  C88      1.0000 0.41540  0.73980  0.46350  Biso   1.000  C
  C89      1.0000 0.46720  0.77810  0.48000  Biso   1.000  C
  C90      1.0000 0.55150  0.78710  0.46350  Biso   1.000  C
  H74      1.0000 0.58610  0.81270  0.47450  Biso   1.000  H
  C91      1.0000 0.58400  0.75760  0.43060  Biso   1.000  C
  H75      1.0000 0.64040  0.76360  0.41960  Biso   1.000  H
  C92      1.0000 0.53220  0.71930  0.41410  Biso   1.000  C
  N16      1.0000 0.31600  0.76230  0.45550  Biso   1.000  N
  H76      1.0000 0.29240  0.77850  0.47630  Biso   1.000  H
  H77      1.0000 0.28210  0.74870  0.43660  Biso   1.000  H
  C93      1.0000 0.44400  0.72850  0.41770  Biso   1.000  C
  H78      1.0000 0.40480  0.71560  0.39770  Biso   1.000  H
  C94      1.0000 0.41100  0.75810  0.45210  Biso   1.000  C
  C95      1.0000 0.55800  0.77200  0.47250  Biso   1.000  C
  H79      1.0000 0.59770  0.78790  0.49070  Biso   1.000  H
  C96      1.0000 0.59210  0.74390  0.43980  Biso   1.000  C
  H80      1.0000 0.65300  0.74170  0.43520  Biso   1.000  H
  O33      1.0000 0.85470  0.43440  0.62140  Biso   1.000  O
  O34      1.0000 0.99000  0.41060  0.60750  Biso   1.000  O
  O35      1.0000 0.14600  0.56470  0.77270  Biso   1.000  O
  O36      1.0000 0.01030  0.58730  0.78540  Biso   1.000  O
  C97      1.0000 0.93620  0.43670  0.62840  Biso   1.000  C
  C98      1.0000 0.06500  0.56130  0.76430  Biso   1.000  C
  N17      1.0000 0.17300  0.47880  0.72860  Biso   1.000  N
  H81      1.0000 0.19570  0.49640  0.74870  Biso   1.000  H
  H82      1.0000 0.20250  0.45470  0.71750  Biso   1.000  H
  C99      1.0000 0.05200  0.46030  0.68060  Biso   1.000  C
  H83      1.0000 0.08660  0.43460  0.66960  Biso   1.000  H
  C100     1.0000 0.08460  0.48980  0.71350  Biso   1.000  C
  C101     1.0000 0.03280  0.52810  0.73000  Biso   1.000  C
  C102     1.0000 0.94850  0.53710  0.71350  Biso   1.000  C
  H84      1.0000 0.91390  0.56270  0.72450  Biso   1.000  H
  C103     1.0000 0.91600  0.50760  0.68060  Biso   1.000  C
  H85      1.0000 0.85960  0.51360  0.66960  Biso   1.000  H
  C104     1.0000 0.96780  0.46930  0.66410  Biso   1.000  C
  N18      1.0000 0.18400  0.51230  0.70550  Biso   1.000  N
  H86      1.0000 0.20760  0.52850  0.72630  Biso   1.000  H
  H87      1.0000 0.21790  0.49870  0.68660  Biso   1.000  H
  C105     1.0000 0.05600  0.47850  0.66770  Biso   1.000  C
  H88      1.0000 0.09520  0.46560  0.64770  Biso   1.000  H
  C106     1.0000 0.08900  0.50810  0.70210  Biso   1.000  C
  C107     1.0000 0.94200  0.52200  0.72250  Biso   1.000  C
  H89      1.0000 0.90230  0.53790  0.74070  Biso   1.000  H
  C108     1.0000 0.90790  0.49390  0.68980  Biso   1.000  C
  H90      1.0000 0.84700  0.49170  0.68520  Biso   1.000  H
  O37      1.0000 0.85470  0.93440  0.12140  Biso   1.000  O
  O38      1.0000 0.99000  0.91060  0.10750  Biso   1.000  O
  O39      1.0000 0.14600  0.06470  0.27270  Biso   1.000  O
  O40      1.0000 0.01030  0.08730  0.28540  Biso   1.000  O
  C109     1.0000 0.93620  0.93670  0.12840  Biso   1.000  C
  C110     1.0000 0.06500  0.06130  0.26430  Biso   1.000  C
  N19      1.0000 0.17300  0.97880  0.22860  Biso   1.000  N
  H91      1.0000 0.19570  0.99640  0.24870  Biso   1.000  H
  H92      1.0000 0.20250  0.95470  0.21750  Biso   1.000  H
  C111     1.0000 0.05200  0.96030  0.18060  Biso   1.000  C
  H93      1.0000 0.08660  0.93460  0.16960  Biso   1.000  H
  C112     1.0000 0.08460  0.98980  0.21350  Biso   1.000  C
  C113     1.0000 0.03280  0.02810  0.23000  Biso   1.000  C
  C114     1.0000 0.94850  0.03710  0.21350  Biso   1.000  C
  H94      1.0000 0.91390  0.06270  0.22450  Biso   1.000  H
  C115     1.0000 0.91600  0.00760  0.18060  Biso   1.000  C
  H95      1.0000 0.85960  0.01360  0.16960  Biso   1.000  H
  C116     1.0000 0.96780  0.96930  0.16410  Biso   1.000  C
  N20      1.0000 0.18400  0.01230  0.20550  Biso   1.000  N
  H96      1.0000 0.20760  0.02850  0.22630  Biso   1.000  H
  H97      1.0000 0.21790  0.99870  0.18660  Biso   1.000  H
  C117     1.0000 0.05600  0.97850  0.16770  Biso   1.000  C
  H98      1.0000 0.09520  0.96560  0.14770  Biso   1.000  H
  C118     1.0000 0.08900  0.00810  0.20210  Biso   1.000  C
  C119     1.0000 0.94200  0.02200  0.22250  Biso   1.000  C
  H99      1.0000 0.90230  0.03790  0.24070  Biso   1.000  H
  C120     1.0000 0.90790  0.99390  0.18980  Biso   1.000  C
  H100     1.0000 0.84700  0.99170  0.18520  Biso   1.000  H
  O41      1.0000 0.35470  0.43440  0.12140  Biso   1.000  O
  O42      1.0000 0.49000  0.41060  0.10750  Biso   1.000  O
  O43      1.0000 0.64600  0.56470  0.27270  Biso   1.000  O
  O44      1.0000 0.51030  0.58730  0.28540  Biso   1.000  O
  C121     1.0000 0.43620  0.43670  0.12840  Biso   1.000  C
  C122     1.0000 0.56500  0.56130  0.26430  Biso   1.000  C
  N21      1.0000 0.67300  0.47880  0.22860  Biso   1.000  N
  H101     1.0000 0.69570  0.49640  0.24870  Biso   1.000  H
  H102     1.0000 0.70250  0.45470  0.21750  Biso   1.000  H
  C123     1.0000 0.55200  0.46030  0.18060  Biso   1.000  C
  H103     1.0000 0.58660  0.43460  0.16960  Biso   1.000  H
  C124     1.0000 0.58460  0.48980  0.21350  Biso   1.000  C
  C125     1.0000 0.53280  0.52810  0.23000  Biso   1.000  C
  C126     1.0000 0.44850  0.53710  0.21350  Biso   1.000  C
  H104     1.0000 0.41390  0.56270  0.22450  Biso   1.000  H
  C127     1.0000 0.41600  0.50760  0.18060  Biso   1.000  C
  H105     1.0000 0.35960  0.51360  0.16960  Biso   1.000  H
  C128     1.0000 0.46780  0.46930  0.16410  Biso   1.000  C
  N22      1.0000 0.68400  0.51230  0.20550  Biso   1.000  N
  H106     1.0000 0.70760  0.52850  0.22630  Biso   1.000  H
  H107     1.0000 0.71790  0.49870  0.18660  Biso   1.000  H
  C129     1.0000 0.55600  0.47850  0.16770  Biso   1.000  C
  H108     1.0000 0.59520  0.46560  0.14770  Biso   1.000  H
  C130     1.0000 0.58900  0.50810  0.20210  Biso   1.000  C
  C131     1.0000 0.44200  0.52200  0.22250  Biso   1.000  C
  H109     1.0000 0.40230  0.53790  0.24070  Biso   1.000  H
  C132     1.0000 0.40790  0.49390  0.18980  Biso   1.000  C
  H110     1.0000 0.34700  0.49170  0.18520  Biso   1.000  H
  O45      1.0000 0.35470  0.93440  0.62140  Biso   1.000  O
  O46      1.0000 0.49000  0.91060  0.60750  Biso   1.000  O
  O47      1.0000 0.64600  0.06470  0.77270  Biso   1.000  O
  O48      1.0000 0.51030  0.08730  0.78540  Biso   1.000  O
  C133     1.0000 0.43620  0.93670  0.62840  Biso   1.000  C
  C134     1.0000 0.56500  0.06130  0.76430  Biso   1.000  C
  N23      1.0000 0.67300  0.97880  0.72860  Biso   1.000  N
  H111     1.0000 0.69570  0.99640  0.74870  Biso   1.000  H
  H112     1.0000 0.70250  0.95470  0.71750  Biso   1.000  H
  C135     1.0000 0.55200  0.96030  0.68060  Biso   1.000  C
  H113     1.0000 0.58660  0.93460  0.66960  Biso   1.000  H
  C136     1.0000 0.58460  0.98980  0.71350  Biso   1.000  C
  C137     1.0000 0.53280  0.02810  0.73000  Biso   1.000  C
  C138     1.0000 0.44850  0.03710  0.71350  Biso   1.000  C
  H114     1.0000 0.41390  0.06270  0.72450  Biso   1.000  H
  C139     1.0000 0.41600  0.00760  0.68060  Biso   1.000  C
  H115     1.0000 0.35960  0.01360  0.66960  Biso   1.000  H
  C140     1.0000 0.46780  0.96930  0.66410  Biso   1.000  C
  N24      1.0000 0.68400  0.01230  0.70550  Biso   1.000  N
  H116     1.0000 0.70760  0.02850  0.72630  Biso   1.000  H
  H117     1.0000 0.71790  0.99870  0.68660  Biso   1.000  H
  C141     1.0000 0.55600  0.97850  0.66770  Biso   1.000  C
  H118     1.0000 0.59520  0.96560  0.64770  Biso   1.000  H
  C142     1.0000 0.58900  0.00810  0.70210  Biso   1.000  C
  C143     1.0000 0.44200  0.02200  0.72250  Biso   1.000  C
  H119     1.0000 0.40230  0.03790  0.74070  Biso   1.000  H
  C144     1.0000 0.40790  0.99390  0.68980  Biso   1.000  C
  H120     1.0000 0.34700  0.99170  0.68520  Biso   1.000  H
  O49      1.0000 0.39530  0.81560  0.62140  Biso   1.000  O
  O50      1.0000 0.26000  0.83940  0.60750  Biso   1.000  O
  O51      1.0000 0.10400  0.68530  0.77270  Biso   1.000  O
  O52      1.0000 0.23970  0.66270  0.78540  Biso   1.000  O
  C145     1.0000 0.31380  0.81330  0.62840  Biso   1.000  C
  C146     1.0000 0.18500  0.68870  0.76430  Biso   1.000  C
  N25      1.0000 0.07700  0.77120  0.72860  Biso   1.000  N
  H121     1.0000 0.05430  0.75360  0.74870  Biso   1.000  H
  H122     1.0000 0.04750  0.79530  0.71750  Biso   1.000  H
  C147     1.0000 0.19800  0.78970  0.68060  Biso   1.000  C
  H123     1.0000 0.16340  0.81540  0.66960  Biso   1.000  H
  C148     1.0000 0.16540  0.76020  0.71350  Biso   1.000  C
  C149     1.0000 0.21720  0.72190  0.73000  Biso   1.000  C
  C150     1.0000 0.30150  0.71290  0.71350  Biso   1.000  C
  H124     1.0000 0.33610  0.68730  0.72450  Biso   1.000  H
  C151     1.0000 0.33400  0.74240  0.68060  Biso   1.000  C
  H125     1.0000 0.39040  0.73640  0.66960  Biso   1.000  H
  C152     1.0000 0.28220  0.78070  0.66410  Biso   1.000  C
  N26      1.0000 0.06600  0.73770  0.70550  Biso   1.000  N
  H126     1.0000 0.04240  0.72150  0.72630  Biso   1.000  H
  H127     1.0000 0.03210  0.75130  0.68660  Biso   1.000  H
  C153     1.0000 0.19400  0.77150  0.66770  Biso   1.000  C
  H128     1.0000 0.15480  0.78440  0.64770  Biso   1.000  H
  C154     1.0000 0.16100  0.74190  0.70210  Biso   1.000  C
  C155     1.0000 0.30800  0.72800  0.72250  Biso   1.000  C
  H129     1.0000 0.34770  0.71210  0.74070  Biso   1.000  H
  C156     1.0000 0.34210  0.75610  0.68980  Biso   1.000  C
  H130     1.0000 0.40300  0.75830  0.68520  Biso   1.000  H
  O53      1.0000 0.39530  0.31560  0.12140  Biso   1.000  O
  O54      1.0000 0.26000  0.33940  0.10750  Biso   1.000  O
  O55      1.0000 0.10400  0.18530  0.27270  Biso   1.000  O
  O56      1.0000 0.23970  0.16270  0.28540  Biso   1.000  O
  C157     1.0000 0.31380  0.31330  0.12840  Biso   1.000  C
  C158     1.0000 0.18500  0.18870  0.26430  Biso   1.000  C
  N27      1.0000 0.07700  0.27120  0.22860  Biso   1.000  N
  H131     1.0000 0.05430  0.25360  0.24870  Biso   1.000  H
  H132     1.0000 0.04750  0.29530  0.21750  Biso   1.000  H
  C159     1.0000 0.19800  0.28970  0.18060  Biso   1.000  C
  H133     1.0000 0.16340  0.31540  0.16960  Biso   1.000  H
  C160     1.0000 0.16540  0.26020  0.21350  Biso   1.000  C
  C161     1.0000 0.21720  0.22190  0.23000  Biso   1.000  C
  C162     1.0000 0.30150  0.21290  0.21350  Biso   1.000  C
  H134     1.0000 0.33610  0.18730  0.22450  Biso   1.000  H
  C163     1.0000 0.33400  0.24240  0.18060  Biso   1.000  C
  H135     1.0000 0.39040  0.23640  0.16960  Biso   1.000  H
  C164     1.0000 0.28220  0.28070  0.16410  Biso   1.000  C
  N28      1.0000 0.06600  0.23770  0.20550  Biso   1.000  N
  H136     1.0000 0.04240  0.22150  0.22630  Biso   1.000  H
  H137     1.0000 0.03210  0.25130  0.18660  Biso   1.000  H
  C165     1.0000 0.19400  0.27150  0.16770  Biso   1.000  C
  H138     1.0000 0.15480  0.28440  0.14770  Biso   1.000  H
  C166     1.0000 0.16100  0.24190  0.20210  Biso   1.000  C
  C167     1.0000 0.30800  0.22800  0.22250  Biso   1.000  C
  H139     1.0000 0.34770  0.21210  0.24070  Biso   1.000  H
  C168     1.0000 0.34210  0.25610  0.18980  Biso   1.000  C
  H140     1.0000 0.40300  0.25830  0.18520  Biso   1.000  H
  O57      1.0000 0.89530  0.81560  0.12140  Biso   1.000  O
  O58      1.0000 0.76000  0.83940  0.10750  Biso   1.000  O
  O59      1.0000 0.60400  0.68530  0.27270  Biso   1.000  O
  O60      1.0000 0.73970  0.66270  0.28540  Biso   1.000  O
  C169     1.0000 0.81380  0.81330  0.12840  Biso   1.000  C
  C170     1.0000 0.68500  0.68870  0.26430  Biso   1.000  C
  N29      1.0000 0.57700  0.77120  0.22860  Biso   1.000  N
  H141     1.0000 0.55430  0.75360  0.24870  Biso   1.000  H
  H142     1.0000 0.54750  0.79530  0.21750  Biso   1.000  H
  C171     1.0000 0.69800  0.78970  0.18060  Biso   1.000  C
  H143     1.0000 0.66340  0.81540  0.16960  Biso   1.000  H
  C172     1.0000 0.66540  0.76020  0.21350  Biso   1.000  C
  C173     1.0000 0.71720  0.72190  0.23000  Biso   1.000  C
  C174     1.0000 0.80150  0.71290  0.21350  Biso   1.000  C
  H144     1.0000 0.83610  0.68730  0.22450  Biso   1.000  H
  C175     1.0000 0.83400  0.74240  0.18060  Biso   1.000  C
  H145     1.0000 0.89040  0.73640  0.16960  Biso   1.000  H
  C176     1.0000 0.78220  0.78070  0.16410  Biso   1.000  C
  N30      1.0000 0.56600  0.73770  0.20550  Biso   1.000  N
  H146     1.0000 0.54240  0.72150  0.22630  Biso   1.000  H
  H147     1.0000 0.53210  0.75130  0.18660  Biso   1.000  H
  C177     1.0000 0.69400  0.77150  0.16770  Biso   1.000  C
  H148     1.0000 0.65480  0.78440  0.14770  Biso   1.000  H
  C178     1.0000 0.66100  0.74190  0.20210  Biso   1.000  C
  C179     1.0000 0.80800  0.72800  0.22250  Biso   1.000  C
  H149     1.0000 0.84770  0.71210  0.24070  Biso   1.000  H
  C180     1.0000 0.84210  0.75610  0.18980  Biso   1.000  C
  H150     1.0000 0.90300  0.75830  0.18520  Biso   1.000  H
  O61      1.0000 0.89530  0.31560  0.62140  Biso   1.000  O
  O62      1.0000 0.76000  0.33940  0.60750  Biso   1.000  O
  O63      1.0000 0.60400  0.18530  0.77270  Biso   1.000  O
  O64      1.0000 0.73970  0.16270  0.78540  Biso   1.000  O
  C181     1.0000 0.81380  0.31330  0.62840  Biso   1.000  C
  C182     1.0000 0.68500  0.18870  0.76430  Biso   1.000  C
  N31      1.0000 0.57700  0.27120  0.72860  Biso   1.000  N
  H151     1.0000 0.55430  0.25360  0.74870  Biso   1.000  H
  H152     1.0000 0.54750  0.29530  0.71750  Biso   1.000  H
  C183     1.0000 0.69800  0.28970  0.68060  Biso   1.000  C
  H153     1.0000 0.66340  0.31540  0.66960  Biso   1.000  H
  C184     1.0000 0.66540  0.26020  0.71350  Biso   1.000  C
  C185     1.0000 0.71720  0.22190  0.73000  Biso   1.000  C
  C186     1.0000 0.80150  0.21290  0.71350  Biso   1.000  C
  H154     1.0000 0.83610  0.18730  0.72450  Biso   1.000  H
  C187     1.0000 0.83400  0.24240  0.68060  Biso   1.000  C
  H155     1.0000 0.89040  0.23640  0.66960  Biso   1.000  H
  C188     1.0000 0.78220  0.28070  0.66410  Biso   1.000  C
  N32      1.0000 0.56600  0.23770  0.70550  Biso   1.000  N
  H156     1.0000 0.54240  0.22150  0.72630  Biso   1.000  H
  H157     1.0000 0.53210  0.25130  0.68660  Biso   1.000  H
  C189     1.0000 0.69400  0.27150  0.66770  Biso   1.000  C
  H158     1.0000 0.65480  0.28440  0.64770  Biso   1.000  H
  C190     1.0000 0.66100  0.24190  0.70210  Biso   1.000  C
  C191     1.0000 0.80800  0.22800  0.72250  Biso   1.000  C
  H159     1.0000 0.84770  0.21210  0.74070  Biso   1.000  H
  C192     1.0000 0.84210  0.25610  0.68980  Biso   1.000  C
  H160     1.0000 0.90300  0.25830  0.68520  Biso   1.000  H
  In1      1.0000 0.62500  0.62500  0.32068  Biso   1.000  In
  In2      1.0000 0.62500  0.12500  0.82068  Biso   1.000  In
  In3      1.0000 0.12500  0.12500  0.32068  Biso   1.000  In
  In4      1.0000 0.12500  0.62500  0.82068  Biso   1.000  In
  In5      1.0000 0.87500  0.37500  0.57068  Biso   1.000  In
  In6      1.0000 0.87500  0.87500  0.07068  Biso   1.000  In
  In7      1.0000 0.37500  0.87500  0.57068  Biso   1.000  In
  In8      1.0000 0.37500  0.37500  0.07068  Biso   1.000  In
  O65      1.0000 0.14530  0.56560  0.37860  Biso   1.000  O
  O66      1.0000 0.01000  0.58940  0.39250  Biso   1.000  O
  O67      1.0000 0.85400  0.43530  0.22730  Biso   1.000  O
  O68      1.0000 0.98970  0.41270  0.21460  Biso   1.000  O
  C193     1.0000 0.06380  0.56330  0.37160  Biso   1.000  C
  C194     1.0000 0.93500  0.43870  0.23570  Biso   1.000  C
  N33      1.0000 0.82700  0.52120  0.27140  Biso   1.000  N
  H161     1.0000 0.80430  0.50360  0.25130  Biso   1.000  H
  H162     1.0000 0.79750  0.54530  0.28250  Biso   1.000  H
  C195     1.0000 0.94800  0.53970  0.31940  Biso   1.000  C
  H163     1.0000 0.91340  0.56540  0.33040  Biso   1.000  H
  C196     1.0000 0.91540  0.51020  0.28650  Biso   1.000  C
  C197     1.0000 0.96720  0.47190  0.27000  Biso   1.000  C
  C198     1.0000 0.05150  0.46290  0.28650  Biso   1.000  C
  H164     1.0000 0.08610  0.43730  0.27550  Biso   1.000  H
  C199     1.0000 0.08400  0.49240  0.31940  Biso   1.000  C
  H165     1.0000 0.14040  0.48640  0.33040  Biso   1.000  H
  C200     1.0000 0.03220  0.53070  0.33590  Biso   1.000  C
  N34      1.0000 0.81600  0.48770  0.29450  Biso   1.000  N
  H166     1.0000 0.79240  0.47150  0.27370  Biso   1.000  H
  H167     1.0000 0.78210  0.50130  0.31340  Biso   1.000  H
  C201     1.0000 0.94400  0.52150  0.33230  Biso   1.000  C
  H168     1.0000 0.90480  0.53440  0.35230  Biso   1.000  H
  C202     1.0000 0.91100  0.49190  0.29790  Biso   1.000  C
  C203     1.0000 0.05800  0.47800  0.27750  Biso   1.000  C
  H169     1.0000 0.09770  0.46210  0.25930  Biso   1.000  H
  C204     1.0000 0.09210  0.50610  0.31020  Biso   1.000  C
  H170     1.0000 0.15300  0.50830  0.31480  Biso   1.000  H
  O69      1.0000 0.14530  0.06560  0.87860  Biso   1.000  O
  O70      1.0000 0.01000  0.08940  0.89250  Biso   1.000  O
  O71      1.0000 0.85400  0.93530  0.72730  Biso   1.000  O
  O72      1.0000 0.98970  0.91270  0.71460  Biso   1.000  O
  C205     1.0000 0.06380  0.06330  0.87160  Biso   1.000  C
  C206     1.0000 0.93500  0.93870  0.73570  Biso   1.000  C
  N35      1.0000 0.82700  0.02120  0.77140  Biso   1.000  N
  H171     1.0000 0.80430  0.00360  0.75130  Biso   1.000  H
  H172     1.0000 0.79750  0.04530  0.78250  Biso   1.000  H
  C207     1.0000 0.94800  0.03970  0.81940  Biso   1.000  C
  H173     1.0000 0.91340  0.06540  0.83040  Biso   1.000  H
  C208     1.0000 0.91540  0.01020  0.78650  Biso   1.000  C
  C209     1.0000 0.96720  0.97190  0.77000  Biso   1.000  C
  C210     1.0000 0.05150  0.96290  0.78650  Biso   1.000  C
  H174     1.0000 0.08610  0.93730  0.77550  Biso   1.000  H
  C211     1.0000 0.08400  0.99240  0.81940  Biso   1.000  C
  H175     1.0000 0.14040  0.98640  0.83040  Biso   1.000  H
  C212     1.0000 0.03220  0.03070  0.83590  Biso   1.000  C
  N36      1.0000 0.81600  0.98770  0.79450  Biso   1.000  N
  H176     1.0000 0.79240  0.97150  0.77370  Biso   1.000  H
  H177     1.0000 0.78210  0.00130  0.81340  Biso   1.000  H
  C213     1.0000 0.94400  0.02150  0.83230  Biso   1.000  C
  H178     1.0000 0.90480  0.03440  0.85230  Biso   1.000  H
  C214     1.0000 0.91100  0.99190  0.79790  Biso   1.000  C
  C215     1.0000 0.05800  0.97800  0.77750  Biso   1.000  C
  H179     1.0000 0.09770  0.96210  0.75930  Biso   1.000  H
  C216     1.0000 0.09210  0.00610  0.81020  Biso   1.000  C
  H180     1.0000 0.15300  0.00830  0.81480  Biso   1.000  H
  O73      1.0000 0.64530  0.56560  0.87860  Biso   1.000  O
  O74      1.0000 0.51000  0.58940  0.89250  Biso   1.000  O
  O75      1.0000 0.35400  0.43530  0.72730  Biso   1.000  O
  O76      1.0000 0.48970  0.41270  0.71460  Biso   1.000  O
  C217     1.0000 0.56380  0.56330  0.87160  Biso   1.000  C
  C218     1.0000 0.43500  0.43870  0.73570  Biso   1.000  C
  N37      1.0000 0.32700  0.52120  0.77140  Biso   1.000  N
  H181     1.0000 0.30430  0.50360  0.75130  Biso   1.000  H
  H182     1.0000 0.29750  0.54530  0.78250  Biso   1.000  H
  C219     1.0000 0.44800  0.53970  0.81940  Biso   1.000  C
  H183     1.0000 0.41340  0.56540  0.83040  Biso   1.000  H
  C220     1.0000 0.41540  0.51020  0.78650  Biso   1.000  C
  C221     1.0000 0.46720  0.47190  0.77000  Biso   1.000  C
  C222     1.0000 0.55150  0.46290  0.78650  Biso   1.000  C
  H184     1.0000 0.58610  0.43730  0.77550  Biso   1.000  H
  C223     1.0000 0.58400  0.49240  0.81940  Biso   1.000  C
  H185     1.0000 0.64040  0.48640  0.83040  Biso   1.000  H
  C224     1.0000 0.53220  0.53070  0.83590  Biso   1.000  C
  N38      1.0000 0.31600  0.48770  0.79450  Biso   1.000  N
  H186     1.0000 0.29240  0.47150  0.77370  Biso   1.000  H
  H187     1.0000 0.28210  0.50130  0.81340  Biso   1.000  H
  C225     1.0000 0.44400  0.52150  0.83230  Biso   1.000  C
  H188     1.0000 0.40480  0.53440  0.85230  Biso   1.000  H
  C226     1.0000 0.41100  0.49190  0.79790  Biso   1.000  C
  C227     1.0000 0.55800  0.47800  0.77750  Biso   1.000  C
  H189     1.0000 0.59770  0.46210  0.75930  Biso   1.000  H
  C228     1.0000 0.59210  0.50610  0.81020  Biso   1.000  C
  H190     1.0000 0.65300  0.50830  0.81480  Biso   1.000  H
  O77      1.0000 0.64530  0.06560  0.37860  Biso   1.000  O
  O78      1.0000 0.51000  0.08940  0.39250  Biso   1.000  O
  O79      1.0000 0.35400  0.93530  0.22730  Biso   1.000  O
  O80      1.0000 0.48970  0.91270  0.21460  Biso   1.000  O
  C229     1.0000 0.56380  0.06330  0.37160  Biso   1.000  C
  C230     1.0000 0.43500  0.93870  0.23570  Biso   1.000  C
  N39      1.0000 0.32700  0.02120  0.27140  Biso   1.000  N
  H191     1.0000 0.30430  0.00360  0.25130  Biso   1.000  H
  H192     1.0000 0.29750  0.04530  0.28250  Biso   1.000  H
  C231     1.0000 0.44800  0.03970  0.31940  Biso   1.000  C
  H193     1.0000 0.41340  0.06540  0.33040  Biso   1.000  H
  C232     1.0000 0.41540  0.01020  0.28650  Biso   1.000  C
  C233     1.0000 0.46720  0.97190  0.27000  Biso   1.000  C
  C234     1.0000 0.55150  0.96290  0.28650  Biso   1.000  C
  H194     1.0000 0.58610  0.93730  0.27550  Biso   1.000  H
  C235     1.0000 0.58400  0.99240  0.31940  Biso   1.000  C
  H195     1.0000 0.64040  0.98640  0.33040  Biso   1.000  H
  C236     1.0000 0.53220  0.03070  0.33590  Biso   1.000  C
  N40      1.0000 0.31600  0.98770  0.29450  Biso   1.000  N
  H196     1.0000 0.29240  0.97150  0.27370  Biso   1.000  H
  H197     1.0000 0.28210  0.00130  0.31340  Biso   1.000  H
  C237     1.0000 0.44400  0.02150  0.33230  Biso   1.000  C
  H198     1.0000 0.40480  0.03440  0.35230  Biso   1.000  H
  C238     1.0000 0.41100  0.99190  0.29790  Biso   1.000  C
  C239     1.0000 0.55800  0.97800  0.27750  Biso   1.000  C
  H199     1.0000 0.59770  0.96210  0.25930  Biso   1.000  H
  C240     1.0000 0.59210  0.00610  0.31020  Biso   1.000  C
  H200     1.0000 0.65300  0.00830  0.31480  Biso   1.000  H
  O81      1.0000 0.60470  0.18440  0.37860  Biso   1.000  O
  O82      1.0000 0.74000  0.16060  0.39250  Biso   1.000  O
  O83      1.0000 0.89600  0.31470  0.22730  Biso   1.000  O
  O84      1.0000 0.76030  0.33730  0.21460  Biso   1.000  O
  C241     1.0000 0.68620  0.18670  0.37160  Biso   1.000  C
  C242     1.0000 0.81500  0.31130  0.23570  Biso   1.000  C
  N41      1.0000 0.92300  0.22880  0.27140  Biso   1.000  N
  H201     1.0000 0.94570  0.24640  0.25130  Biso   1.000  H
  H202     1.0000 0.95250  0.20470  0.28250  Biso   1.000  H
  C243     1.0000 0.80200  0.21030  0.31940  Biso   1.000  C
  H203     1.0000 0.83660  0.18460  0.33040  Biso   1.000  H
  C244     1.0000 0.83460  0.23980  0.28650  Biso   1.000  C
  C245     1.0000 0.78280  0.27810  0.27000  Biso   1.000  C
  C246     1.0000 0.69850  0.28710  0.28650  Biso   1.000  C
  H204     1.0000 0.66390  0.31270  0.27550  Biso   1.000  H
  C247     1.0000 0.66600  0.25760  0.31940  Biso   1.000  C
  H205     1.0000 0.60960  0.26360  0.33040  Biso   1.000  H
  C248     1.0000 0.71780  0.21930  0.33590  Biso   1.000  C
  N42      1.0000 0.93400  0.26230  0.29450  Biso   1.000  N
  H206     1.0000 0.95760  0.27850  0.27370  Biso   1.000  H
  H207     1.0000 0.96790  0.24870  0.31340  Biso   1.000  H
  C249     1.0000 0.80600  0.22850  0.33230  Biso   1.000  C
  H208     1.0000 0.84520  0.21560  0.35230  Biso   1.000  H
  C250     1.0000 0.83900  0.25810  0.29790  Biso   1.000  C
  C251     1.0000 0.69200  0.27200  0.27750  Biso   1.000  C
  H209     1.0000 0.65230  0.28790  0.25930  Biso   1.000  H
  C252     1.0000 0.65790  0.24390  0.31020  Biso   1.000  C
  H210     1.0000 0.59700  0.24170  0.31480  Biso   1.000  H
  O85      1.0000 0.60470  0.68440  0.87860  Biso   1.000  O
  O86      1.0000 0.74000  0.66060  0.89250  Biso   1.000  O
  O87      1.0000 0.89600  0.81470  0.72730  Biso   1.000  O
  O88      1.0000 0.76030  0.83730  0.71460  Biso   1.000  O
  C253     1.0000 0.68620  0.68670  0.87160  Biso   1.000  C
  C254     1.0000 0.81500  0.81130  0.73570  Biso   1.000  C
  N43      1.0000 0.92300  0.72880  0.77140  Biso   1.000  N
  H211     1.0000 0.94570  0.74640  0.75130  Biso   1.000  H
  H212     1.0000 0.95250  0.70470  0.78250  Biso   1.000  H
  C255     1.0000 0.80200  0.71030  0.81940  Biso   1.000  C
  H213     1.0000 0.83660  0.68460  0.83040  Biso   1.000  H
  C256     1.0000 0.83460  0.73980  0.78650  Biso   1.000  C
  C257     1.0000 0.78280  0.77810  0.77000  Biso   1.000  C
  C258     1.0000 0.69850  0.78710  0.78650  Biso   1.000  C
  H214     1.0000 0.66390  0.81270  0.77550  Biso   1.000  H
  C259     1.0000 0.66600  0.75760  0.81940  Biso   1.000  C
  H215     1.0000 0.60960  0.76360  0.83040  Biso   1.000  H
  C260     1.0000 0.71780  0.71930  0.83590  Biso   1.000  C
  N44      1.0000 0.93400  0.76230  0.79450  Biso   1.000  N
  H216     1.0000 0.95760  0.77850  0.77370  Biso   1.000  H
  H217     1.0000 0.96790  0.74870  0.81340  Biso   1.000  H
  C261     1.0000 0.80600  0.72850  0.83230  Biso   1.000  C
  H218     1.0000 0.84520  0.71560  0.85230  Biso   1.000  H
  C262     1.0000 0.83900  0.75810  0.79790  Biso   1.000  C
  C263     1.0000 0.69200  0.77200  0.77750  Biso   1.000  C
  H219     1.0000 0.65230  0.78790  0.75930  Biso   1.000  H
  C264     1.0000 0.65790  0.74390  0.81020  Biso   1.000  C
  H220     1.0000 0.59700  0.74170  0.81480  Biso   1.000  H
  O89      1.0000 0.10470  0.18440  0.87860  Biso   1.000  O
  O90      1.0000 0.24000  0.16060  0.89250  Biso   1.000  O
  O91      1.0000 0.39600  0.31470  0.72730  Biso   1.000  O
  O92      1.0000 0.26030  0.33730  0.71460  Biso   1.000  O
  C265     1.0000 0.18620  0.18670  0.87160  Biso   1.000  C
  C266     1.0000 0.31500  0.31130  0.73570  Biso   1.000  C
  N45      1.0000 0.42300  0.22880  0.77140  Biso   1.000  N
  H221     1.0000 0.44570  0.24640  0.75130  Biso   1.000  H
  H222     1.0000 0.45250  0.20470  0.78250  Biso   1.000  H
  C267     1.0000 0.30200  0.21030  0.81940  Biso   1.000  C
  H223     1.0000 0.33660  0.18460  0.83040  Biso   1.000  H
  C268     1.0000 0.33460  0.23980  0.78650  Biso   1.000  C
  C269     1.0000 0.28280  0.27810  0.77000  Biso   1.000  C
  C270     1.0000 0.19850  0.28710  0.78650  Biso   1.000  C
  H224     1.0000 0.16390  0.31270  0.77550  Biso   1.000  H
  C271     1.0000 0.16600  0.25760  0.81940  Biso   1.000  C
  H225     1.0000 0.10960  0.26360  0.83040  Biso   1.000  H
  C272     1.0000 0.21780  0.21930  0.83590  Biso   1.000  C
  N46      1.0000 0.43400  0.26230  0.79450  Biso   1.000  N
  H226     1.0000 0.45760  0.27850  0.77370  Biso   1.000  H
  H227     1.0000 0.46790  0.24870  0.81340  Biso   1.000  H
  C273     1.0000 0.30600  0.22850  0.83230  Biso   1.000  C
  H228     1.0000 0.34520  0.21560  0.85230  Biso   1.000  H
  C274     1.0000 0.33900  0.25810  0.79790  Biso   1.000  C
  C275     1.0000 0.19200  0.27200  0.77750  Biso   1.000  C
  H229     1.0000 0.15230  0.28790  0.75930  Biso   1.000  H
  C276     1.0000 0.15790  0.24390  0.81020  Biso   1.000  C
  H230     1.0000 0.09700  0.24170  0.81480  Biso   1.000  H
  O93      1.0000 0.10470  0.68440  0.37860  Biso   1.000  O
  O94      1.0000 0.24000  0.66060  0.39250  Biso   1.000  O
  O95      1.0000 0.39600  0.81470  0.22730  Biso   1.000  O
  O96      1.0000 0.26030  0.83730  0.21460  Biso   1.000  O
  C277     1.0000 0.18620  0.68670  0.37160  Biso   1.000  C
  C278     1.0000 0.31500  0.81130  0.23570  Biso   1.000  C
  N47      1.0000 0.42300  0.72880  0.27140  Biso   1.000  N
  H231     1.0000 0.44570  0.74640  0.25130  Biso   1.000  H
  H232     1.0000 0.45250  0.70470  0.28250  Biso   1.000  H
  C279     1.0000 0.30200  0.71030  0.31940  Biso   1.000  C
  H233     1.0000 0.33660  0.68460  0.33040  Biso   1.000  H
  C280     1.0000 0.33460  0.73980  0.28650  Biso   1.000  C
  C281     1.0000 0.28280  0.77810  0.27000  Biso   1.000  C
  C282     1.0000 0.19850  0.78710  0.28650  Biso   1.000  C
  H234     1.0000 0.16390  0.81270  0.27550  Biso   1.000  H
  C283     1.0000 0.16600  0.75760  0.31940  Biso   1.000  C
  H235     1.0000 0.10960  0.76360  0.33040  Biso   1.000  H
  C284     1.0000 0.21780  0.71930  0.33590  Biso   1.000  C
  N48      1.0000 0.43400  0.76230  0.29450  Biso   1.000  N
  H236     1.0000 0.45760  0.77850  0.27370  Biso   1.000  H
  H237     1.0000 0.46790  0.74870  0.31340  Biso   1.000  H
  C285     1.0000 0.30600  0.72850  0.33230  Biso   1.000  C
  H238     1.0000 0.34520  0.71560  0.35230  Biso   1.000  H
  C286     1.0000 0.33900  0.75810  0.29790  Biso   1.000  C
  C287     1.0000 0.19200  0.77200  0.27750  Biso   1.000  C
  H239     1.0000 0.15230  0.78790  0.25930  Biso   1.000  H
  C288     1.0000 0.15790  0.74390  0.31020  Biso   1.000  C
  H240     1.0000 0.09700  0.74170  0.31480  Biso   1.000  H
  O97      1.0000 0.39530  0.43440  0.62860  Biso   1.000  O
  O98      1.0000 0.26000  0.41060  0.64250  Biso   1.000  O
  O99      1.0000 0.10400  0.56470  0.47730  Biso   1.000  O
  O100     1.0000 0.23970  0.58730  0.46460  Biso   1.000  O
  C289     1.0000 0.31380  0.43670  0.62160  Biso   1.000  C
  C290     1.0000 0.18500  0.56130  0.48570  Biso   1.000  C
  N49      1.0000 0.07700  0.47880  0.52140  Biso   1.000  N
  H241     1.0000 0.05430  0.49640  0.50130  Biso   1.000  H
  H242     1.0000 0.04750  0.45470  0.53250  Biso   1.000  H
  C291     1.0000 0.19800  0.46030  0.56940  Biso   1.000  C
  H243     1.0000 0.16340  0.43460  0.58040  Biso   1.000  H
  C292     1.0000 0.16540  0.48980  0.53650  Biso   1.000  C
  C293     1.0000 0.21720  0.52810  0.52000  Biso   1.000  C
  C294     1.0000 0.30150  0.53710  0.53650  Biso   1.000  C
  H244     1.0000 0.33610  0.56270  0.52550  Biso   1.000  H
  C295     1.0000 0.33400  0.50760  0.56940  Biso   1.000  C
  H245     1.0000 0.39040  0.51360  0.58040  Biso   1.000  H
  C296     1.0000 0.28220  0.46930  0.58590  Biso   1.000  C
  N50      1.0000 0.06600  0.51230  0.54450  Biso   1.000  N
  H246     1.0000 0.04240  0.52850  0.52370  Biso   1.000  H
  H247     1.0000 0.03210  0.49870  0.56340  Biso   1.000  H
  C297     1.0000 0.19400  0.47850  0.58230  Biso   1.000  C
  H248     1.0000 0.15480  0.46560  0.60230  Biso   1.000  H
  C298     1.0000 0.16100  0.50810  0.54790  Biso   1.000  C
  C299     1.0000 0.30800  0.52200  0.52750  Biso   1.000  C
  H249     1.0000 0.34770  0.53790  0.50930  Biso   1.000  H
  C300     1.0000 0.34210  0.49390  0.56020  Biso   1.000  C
  H250     1.0000 0.40300  0.49170  0.56480  Biso   1.000  H
  O101     1.0000 0.39530  0.93440  0.12860  Biso   1.000  O
  O102     1.0000 0.26000  0.91060  0.14250  Biso   1.000  O
  O103     1.0000 0.10400  0.06470  0.97730  Biso   1.000  O
  O104     1.0000 0.23970  0.08730  0.96460  Biso   1.000  O
  C301     1.0000 0.31380  0.93670  0.12160  Biso   1.000  C
  C302     1.0000 0.18500  0.06130  0.98570  Biso   1.000  C
  N51      1.0000 0.07700  0.97880  0.02140  Biso   1.000  N
  H251     1.0000 0.05430  0.99640  0.00130  Biso   1.000  H
  H252     1.0000 0.04750  0.95470  0.03250  Biso   1.000  H
  C303     1.0000 0.19800  0.96030  0.06940  Biso   1.000  C
  H253     1.0000 0.16340  0.93460  0.08040  Biso   1.000  H
  C304     1.0000 0.16540  0.98980  0.03650  Biso   1.000  C
  C305     1.0000 0.21720  0.02810  0.02000  Biso   1.000  C
  C306     1.0000 0.30150  0.03710  0.03650  Biso   1.000  C
  H254     1.0000 0.33610  0.06270  0.02550  Biso   1.000  H
  C307     1.0000 0.33400  0.00760  0.06940  Biso   1.000  C
  H255     1.0000 0.39040  0.01360  0.08040  Biso   1.000  H
  C308     1.0000 0.28220  0.96930  0.08590  Biso   1.000  C
  N52      1.0000 0.06600  0.01230  0.04450  Biso   1.000  N
  H256     1.0000 0.04240  0.02850  0.02370  Biso   1.000  H
  H257     1.0000 0.03210  0.99870  0.06340  Biso   1.000  H
  C309     1.0000 0.19400  0.97850  0.08230  Biso   1.000  C
  H258     1.0000 0.15480  0.96560  0.10230  Biso   1.000  H
  C310     1.0000 0.16100  0.00810  0.04790  Biso   1.000  C
  C311     1.0000 0.30800  0.02200  0.02750  Biso   1.000  C
  H259     1.0000 0.34770  0.03790  0.00930  Biso   1.000  H
  C312     1.0000 0.34210  0.99390  0.06020  Biso   1.000  C
  H260     1.0000 0.40300  0.99170  0.06480  Biso   1.000  H
  O105     1.0000 0.89530  0.43440  0.12860  Biso   1.000  O
  O106     1.0000 0.76000  0.41060  0.14250  Biso   1.000  O
  O107     1.0000 0.60400  0.56470  0.97730  Biso   1.000  O
  O108     1.0000 0.73970  0.58730  0.96460  Biso   1.000  O
  C313     1.0000 0.81380  0.43670  0.12160  Biso   1.000  C
  C314     1.0000 0.68500  0.56130  0.98570  Biso   1.000  C
  N53      1.0000 0.57700  0.47880  0.02140  Biso   1.000  N
  H261     1.0000 0.55430  0.49640  0.00130  Biso   1.000  H
  H262     1.0000 0.54750  0.45470  0.03250  Biso   1.000  H
  C315     1.0000 0.69800  0.46030  0.06940  Biso   1.000  C
  H263     1.0000 0.66340  0.43460  0.08040  Biso   1.000  H
  C316     1.0000 0.66540  0.48980  0.03650  Biso   1.000  C
  C317     1.0000 0.71720  0.52810  0.02000  Biso   1.000  C
  C318     1.0000 0.80150  0.53710  0.03650  Biso   1.000  C
  H264     1.0000 0.83610  0.56270  0.02550  Biso   1.000  H
  C319     1.0000 0.83400  0.50760  0.06940  Biso   1.000  C
  H265     1.0000 0.89040  0.51360  0.08040  Biso   1.000  H
  C320     1.0000 0.78220  0.46930  0.08590  Biso   1.000  C
  N54      1.0000 0.56600  0.51230  0.04450  Biso   1.000  N
  H266     1.0000 0.54240  0.52850  0.02370  Biso   1.000  H
  H267     1.0000 0.53210  0.49870  0.06340  Biso   1.000  H
  C321     1.0000 0.69400  0.47850  0.08230  Biso   1.000  C
  H268     1.0000 0.65480  0.46560  0.10230  Biso   1.000  H
  C322     1.0000 0.66100  0.50810  0.04790  Biso   1.000  C
  C323     1.0000 0.80800  0.52200  0.02750  Biso   1.000  C
  H269     1.0000 0.84770  0.53790  0.00930  Biso   1.000  H
  C324     1.0000 0.84210  0.49390  0.06020  Biso   1.000  C
  H270     1.0000 0.90300  0.49170  0.06480  Biso   1.000  H
  O109     1.0000 0.89530  0.93440  0.62860  Biso   1.000  O
  O110     1.0000 0.76000  0.91060  0.64250  Biso   1.000  O
  O111     1.0000 0.60400  0.06470  0.47730  Biso   1.000  O
  O112     1.0000 0.73970  0.08730  0.46460  Biso   1.000  O
  C325     1.0000 0.81380  0.93670  0.62160  Biso   1.000  C
  C326     1.0000 0.68500  0.06130  0.48570  Biso   1.000  C
  N55      1.0000 0.57700  0.97880  0.52140  Biso   1.000  N
  H271     1.0000 0.55430  0.99640  0.50130  Biso   1.000  H
  H272     1.0000 0.54750  0.95470  0.53250  Biso   1.000  H
  C327     1.0000 0.69800  0.96030  0.56940  Biso   1.000  C
  H273     1.0000 0.66340  0.93460  0.58040  Biso   1.000  H
  C328     1.0000 0.66540  0.98980  0.53650  Biso   1.000  C
  C329     1.0000 0.71720  0.02810  0.52000  Biso   1.000  C
  C330     1.0000 0.80150  0.03710  0.53650  Biso   1.000  C
  H274     1.0000 0.83610  0.06270  0.52550  Biso   1.000  H
  C331     1.0000 0.83400  0.00760  0.56940  Biso   1.000  C
  H275     1.0000 0.89040  0.01360  0.58040  Biso   1.000  H
  C332     1.0000 0.78220  0.96930  0.58590  Biso   1.000  C
  N56      1.0000 0.56600  0.01230  0.54450  Biso   1.000  N
  H276     1.0000 0.54240  0.02850  0.52370  Biso   1.000  H
  H277     1.0000 0.53210  0.99870  0.56340  Biso   1.000  H
  C333     1.0000 0.69400  0.97850  0.58230  Biso   1.000  C
  H278     1.0000 0.65480  0.96560  0.60230  Biso   1.000  H
  C334     1.0000 0.66100  0.00810  0.54790  Biso   1.000  C
  C335     1.0000 0.80800  0.02200  0.52750  Biso   1.000  C
  H279     1.0000 0.84770  0.03790  0.50930  Biso   1.000  H
  C336     1.0000 0.84210  0.99390  0.56020  Biso   1.000  C
  H280     1.0000 0.90300  0.99170  0.56480  Biso   1.000  H
  O113     1.0000 0.85470  0.81560  0.62860  Biso   1.000  O
  O114     1.0000 0.99000  0.83940  0.64250  Biso   1.000  O
  O115     1.0000 0.14600  0.68530  0.47730  Biso   1.000  O
  O116     1.0000 0.01030  0.66270  0.46460  Biso   1.000  O
  C337     1.0000 0.93620  0.81330  0.62160  Biso   1.000  C
  C338     1.0000 0.06500  0.68870  0.48570  Biso   1.000  C
  N57      1.0000 0.17300  0.77120  0.52140  Biso   1.000  N
  H281     1.0000 0.19570  0.75360  0.50130  Biso   1.000  H
  H282     1.0000 0.20250  0.79530  0.53250  Biso   1.000  H
  C339     1.0000 0.05200  0.78970  0.56940  Biso   1.000  C
  H283     1.0000 0.08660  0.81540  0.58040  Biso   1.000  H
  C340     1.0000 0.08460  0.76020  0.53650  Biso   1.000  C
  C341     1.0000 0.03280  0.72190  0.52000  Biso   1.000  C
  C342     1.0000 0.94850  0.71290  0.53650  Biso   1.000  C
  H284     1.0000 0.91390  0.68730  0.52550  Biso   1.000  H
  C343     1.0000 0.91600  0.74240  0.56940  Biso   1.000  C
  H285     1.0000 0.85960  0.73640  0.58040  Biso   1.000  H
  C344     1.0000 0.96780  0.78070  0.58590  Biso   1.000  C
  N58      1.0000 0.18400  0.73770  0.54450  Biso   1.000  N
  H286     1.0000 0.20760  0.72150  0.52370  Biso   1.000  H
  H287     1.0000 0.21790  0.75130  0.56340  Biso   1.000  H
  C345     1.0000 0.05600  0.77150  0.58230  Biso   1.000  C
  H288     1.0000 0.09520  0.78440  0.60230  Biso   1.000  H
  C346     1.0000 0.08900  0.74190  0.54790  Biso   1.000  C
  C347     1.0000 0.94200  0.72800  0.52750  Biso   1.000  C
  H289     1.0000 0.90230  0.71210  0.50930  Biso   1.000  H
  C348     1.0000 0.90790  0.75610  0.56020  Biso   1.000  C
  H290     1.0000 0.84700  0.75830  0.56480  Biso   1.000  H
  O117     1.0000 0.85470  0.31560  0.12860  Biso   1.000  O
  O118     1.0000 0.99000  0.33940  0.14250  Biso   1.000  O
  O119     1.0000 0.14600  0.18530  0.97730  Biso   1.000  O
  O120     1.0000 0.01030  0.16270  0.96460  Biso   1.000  O
  C349     1.0000 0.93620  0.31330  0.12160  Biso   1.000  C
  C350     1.0000 0.06500  0.18870  0.98570  Biso   1.000  C
  N59      1.0000 0.17300  0.27120  0.02140  Biso   1.000  N
  H291     1.0000 0.19570  0.25360  0.00130  Biso   1.000  H
  H292     1.0000 0.20250  0.29530  0.03250  Biso   1.000  H
  C351     1.0000 0.05200  0.28970  0.06940  Biso   1.000  C
  H293     1.0000 0.08660  0.31540  0.08040  Biso   1.000  H
  C352     1.0000 0.08460  0.26020  0.03650  Biso   1.000  C
  C353     1.0000 0.03280  0.22190  0.02000  Biso   1.000  C
  C354     1.0000 0.94850  0.21290  0.03650  Biso   1.000  C
  H294     1.0000 0.91390  0.18730  0.02550  Biso   1.000  H
  C355     1.0000 0.91600  0.24240  0.06940  Biso   1.000  C
  H295     1.0000 0.85960  0.23640  0.08040  Biso   1.000  H
  C356     1.0000 0.96780  0.28070  0.08590  Biso   1.000  C
  N60      1.0000 0.18400  0.23770  0.04450  Biso   1.000  N
  H296     1.0000 0.20760  0.22150  0.02370  Biso   1.000  H
  H297     1.0000 0.21790  0.25130  0.06340  Biso   1.000  H
  C357     1.0000 0.05600  0.27150  0.08230  Biso   1.000  C
  H298     1.0000 0.09520  0.28440  0.10230  Biso   1.000  H
  C358     1.0000 0.08900  0.24190  0.04790  Biso   1.000  C
  C359     1.0000 0.94200  0.22800  0.02750  Biso   1.000  C
  H299     1.0000 0.90230  0.21210  0.00930  Biso   1.000  H
  C360     1.0000 0.90790  0.25610  0.06020  Biso   1.000  C
  H300     1.0000 0.84700  0.25830  0.06480  Biso   1.000  H
  O121     1.0000 0.35470  0.81560  0.12860  Biso   1.000  O
  O122     1.0000 0.49000  0.83940  0.14250  Biso   1.000  O
  O123     1.0000 0.64600  0.68530  0.97730  Biso   1.000  O
  O124     1.0000 0.51030  0.66270  0.96460  Biso   1.000  O
  C361     1.0000 0.43620  0.81330  0.12160  Biso   1.000  C
  C362     1.0000 0.56500  0.68870  0.98570  Biso   1.000  C
  N61      1.0000 0.67300  0.77120  0.02140  Biso   1.000  N
  H301     1.0000 0.69570  0.75360  0.00130  Biso   1.000  H
  H302     1.0000 0.70250  0.79530  0.03250  Biso   1.000  H
  C363     1.0000 0.55200  0.78970  0.06940  Biso   1.000  C
  H303     1.0000 0.58660  0.81540  0.08040  Biso   1.000  H
  C364     1.0000 0.58460  0.76020  0.03650  Biso   1.000  C
  C365     1.0000 0.53280  0.72190  0.02000  Biso   1.000  C
  C366     1.0000 0.44850  0.71290  0.03650  Biso   1.000  C
  H304     1.0000 0.41390  0.68730  0.02550  Biso   1.000  H
  C367     1.0000 0.41600  0.74240  0.06940  Biso   1.000  C
  H305     1.0000 0.35960  0.73640  0.08040  Biso   1.000  H
  C368     1.0000 0.46780  0.78070  0.08590  Biso   1.000  C
  N62      1.0000 0.68400  0.73770  0.04450  Biso   1.000  N
  H306     1.0000 0.70760  0.72150  0.02370  Biso   1.000  H
  H307     1.0000 0.71790  0.75130  0.06340  Biso   1.000  H
  C369     1.0000 0.55600  0.77150  0.08230  Biso   1.000  C
  H308     1.0000 0.59520  0.78440  0.10230  Biso   1.000  H
  C370     1.0000 0.58900  0.74190  0.04790  Biso   1.000  C
  C371     1.0000 0.44200  0.72800  0.02750  Biso   1.000  C
  H309     1.0000 0.40230  0.71210  0.00930  Biso   1.000  H
  C372     1.0000 0.40790  0.75610  0.06020  Biso   1.000  C
  H310     1.0000 0.34700  0.75830  0.06480  Biso   1.000  H
  O125     1.0000 0.35470  0.31560  0.62860  Biso   1.000  O
  O126     1.0000 0.49000  0.33940  0.64250  Biso   1.000  O
  O127     1.0000 0.64600  0.18530  0.47730  Biso   1.000  O
  O128     1.0000 0.51030  0.16270  0.46460  Biso   1.000  O
  C373     1.0000 0.43620  0.31330  0.62160  Biso   1.000  C
  C374     1.0000 0.56500  0.18870  0.48570  Biso   1.000  C
  N63      1.0000 0.67300  0.27120  0.52140  Biso   1.000  N
  H311     1.0000 0.69570  0.25360  0.50130  Biso   1.000  H
  H312     1.0000 0.70250  0.29530  0.53250  Biso   1.000  H
  C375     1.0000 0.55200  0.28970  0.56940  Biso   1.000  C
  H313     1.0000 0.58660  0.31540  0.58040  Biso   1.000  H
  C376     1.0000 0.58460  0.26020  0.53650  Biso   1.000  C
  C377     1.0000 0.53280  0.22190  0.52000  Biso   1.000  C
  C378     1.0000 0.44850  0.21290  0.53650  Biso   1.000  C
  H314     1.0000 0.41390  0.18730  0.52550  Biso   1.000  H
  C379     1.0000 0.41600  0.24240  0.56940  Biso   1.000  C
  H315     1.0000 0.35960  0.23640  0.58040  Biso   1.000  H
  C380     1.0000 0.46780  0.28070  0.58590  Biso   1.000  C
  N64      1.0000 0.68400  0.23770  0.54450  Biso   1.000  N
  H316     1.0000 0.70760  0.22150  0.52370  Biso   1.000  H
  H317     1.0000 0.71790  0.25130  0.56340  Biso   1.000  H
  C381     1.0000 0.55600  0.27150  0.58230  Biso   1.000  C
  H318     1.0000 0.59520  0.28440  0.60230  Biso   1.000  H
  C382     1.0000 0.58900  0.24190  0.54790  Biso   1.000  C
  C383     1.0000 0.44200  0.22800  0.52750  Biso   1.000  C
  H319     1.0000 0.40230  0.21210  0.50930  Biso   1.000  H
  C384     1.0000 0.40790  0.25610  0.56020  Biso   1.000  C
  H320     1.0000 0.34700  0.25830  0.56480  Biso   1.000  H
  In9      1.0000 0.12500  0.62500  0.42932  Biso   1.000  In
  In10     1.0000 0.12500  0.12500  0.92932  Biso   1.000  In
  In11     1.0000 0.62500  0.62500  0.92932  Biso   1.000  In
  In12     1.0000 0.62500  0.12500  0.42932  Biso   1.000  In
  In13     1.0000 0.37500  0.37500  0.67932  Biso   1.000  In
  In14     1.0000 0.37500  0.87500  0.17932  Biso   1.000  In
  In15     1.0000 0.87500  0.87500  0.67932  Biso   1.000  In
  In16     1.0000 0.87500  0.37500  0.17932  Biso   1.000  In
