data_image0
_cell_length_a       15.4336
_cell_length_b       27.6137
_cell_length_c       30.674
_cell_angle_alpha    90
_cell_angle_beta     90
_cell_angle_gamma    90

_symmetry_space_group_name_H-M    "P 1"
_symmetry_int_tables_number       1

loop_
  _symmetry_equiv_pos_as_xyz
  'x, y, z'

loop_
  _atom_site_label
  _atom_site_occupancy
  _atom_site_fract_x
  _atom_site_fract_y
  _atom_site_fract_z
  _atom_site_thermal_displace_type
  _atom_site_B_iso_or_equiv
  _atom_site_type_symbol
  O1       1.0000 0.85920  0.43130  0.12660  Biso   1.000  O
  O2       1.0000 0.99170  0.41020  0.11050  Biso   1.000  O
  O3       1.0000 0.01490  0.58540  0.29010  Biso   1.000  O
  O4       1.0000 0.14860  0.56770  0.27400  Biso   1.000  O
  C1       1.0000 0.93890  0.43460  0.13340  Biso   1.000  C
  C2       1.0000 0.97250  0.46660  0.16880  Biso   1.000  C
  C3       1.0000 0.05760  0.46160  0.18280  Biso   1.000  C
  H1       1.0000 0.09280  0.43770  0.17080  Biso   1.000  H
  C4       1.0000 0.09020  0.49230  0.21480  Biso   1.000  C
  C5       1.0000 0.03770  0.52800  0.23270  Biso   1.000  C
  C6       1.0000 0.95250  0.53300  0.21870  Biso   1.000  C
  H2       1.0000 0.91730  0.55690  0.23060  Biso   1.000  H
  C7       1.0000 0.91990  0.50230  0.18670  Biso   1.000  C
  H3       1.0000 0.86290  0.50560  0.17730  Biso   1.000  H
  C8       1.0000 0.06850  0.56160  0.26750  Biso   1.000  C
  N1       1.0000 0.17900  0.48640  0.22800  Biso   1.000  N
  H4       1.0000 0.21090  0.46430  0.21610  Biso   1.000  H
  H5       1.0000 0.20110  0.50490  0.24770  Biso   1.000  H
  N2       1.0000 0.18420  0.50630  0.20870  Biso   1.000  N
  H6       1.0000 0.21670  0.49060  0.19090  Biso   1.000  H
  H7       1.0000 0.20700  0.52380  0.22890  Biso   1.000  H
  C9       1.0000 0.05920  0.47520  0.17250  Biso   1.000  C
  H8       1.0000 0.09570  0.46130  0.15190  Biso   1.000  H
  C10      1.0000 0.09660  0.50350  0.20510  Biso   1.000  C
  C11      1.0000 0.94910  0.52050  0.22770  Biso   1.000  C
  H9       1.0000 0.91170  0.53640  0.24670  Biso   1.000  H
  C12      1.0000 0.91340  0.49090  0.19630  Biso   1.000  C
  H10      1.0000 0.85380  0.48720  0.19340  Biso   1.000  H
  O5       1.0000 0.85920  0.93130  0.62660  Biso   1.000  O
  O6       1.0000 0.99170  0.91020  0.61050  Biso   1.000  O
  O7       1.0000 0.01490  0.08540  0.79010  Biso   1.000  O
  O8       1.0000 0.14860  0.06770  0.77400  Biso   1.000  O
  C13      1.0000 0.93890  0.93460  0.63340  Biso   1.000  C
  C14      1.0000 0.97250  0.96660  0.66880  Biso   1.000  C
  C15      1.0000 0.05760  0.96160  0.68280  Biso   1.000  C
  H11      1.0000 0.09280  0.93770  0.67080  Biso   1.000  H
  C16      1.0000 0.09020  0.99230  0.71480  Biso   1.000  C
  C17      1.0000 0.03770  0.02800  0.73270  Biso   1.000  C
  C18      1.0000 0.95250  0.03300  0.71870  Biso   1.000  C
  H12      1.0000 0.91730  0.05690  0.73060  Biso   1.000  H
  C19      1.0000 0.91990  0.00230  0.68670  Biso   1.000  C
  H13      1.0000 0.86290  0.00560  0.67730  Biso   1.000  H
  C20      1.0000 0.06850  0.06160  0.76750  Biso   1.000  C
  N3       1.0000 0.17900  0.98640  0.72800  Biso   1.000  N
  H14      1.0000 0.21090  0.96430  0.71610  Biso   1.000  H
  H15      1.0000 0.20110  0.00490  0.74770  Biso   1.000  H
  N4       1.0000 0.18420  0.00630  0.70870  Biso   1.000  N
  H16      1.0000 0.21670  0.99060  0.69090  Biso   1.000  H
  H17      1.0000 0.20700  0.02380  0.72890  Biso   1.000  H
  C21      1.0000 0.05920  0.97520  0.67250  Biso   1.000  C
  H18      1.0000 0.09570  0.96130  0.65190  Biso   1.000  H
  C22      1.0000 0.09660  0.00350  0.70510  Biso   1.000  C
  C23      1.0000 0.94910  0.02050  0.72770  Biso   1.000  C
  H19      1.0000 0.91170  0.03640  0.74670  Biso   1.000  H
  C24      1.0000 0.91340  0.99090  0.69630  Biso   1.000  C
  H20      1.0000 0.85380  0.98720  0.69340  Biso   1.000  H
  O9       1.0000 0.35920  0.43130  0.62660  Biso   1.000  O
  O10      1.0000 0.49170  0.41020  0.61050  Biso   1.000  O
  O11      1.0000 0.51490  0.58540  0.79010  Biso   1.000  O
  O12      1.0000 0.64860  0.56770  0.77400  Biso   1.000  O
  C25      1.0000 0.43890  0.43460  0.63340  Biso   1.000  C
  C26      1.0000 0.47250  0.46660  0.66880  Biso   1.000  C
  C27      1.0000 0.55760  0.46160  0.68280  Biso   1.000  C
  H21      1.0000 0.59280  0.43770  0.67080  Biso   1.000  H
  C28      1.0000 0.59020  0.49230  0.71480  Biso   1.000  C
  C29      1.0000 0.53770  0.52800  0.73270  Biso   1.000  C
  C30      1.0000 0.45250  0.53300  0.71870  Biso   1.000  C
  H22      1.0000 0.41730  0.55690  0.73060  Biso   1.000  H
  C31      1.0000 0.41990  0.50230  0.68670  Biso   1.000  C
  H23      1.0000 0.36290  0.50560  0.67730  Biso   1.000  H
  C32      1.0000 0.56850  0.56160  0.76750  Biso   1.000  C
  N5       1.0000 0.67900  0.48640  0.72800  Biso   1.000  N
  H24      1.0000 0.71090  0.46430  0.71610  Biso   1.000  H
  H25      1.0000 0.70110  0.50490  0.74770  Biso   1.000  H
  N6       1.0000 0.68420  0.50630  0.70870  Biso   1.000  N
  H26      1.0000 0.71670  0.49060  0.69090  Biso   1.000  H
  H27      1.0000 0.70700  0.52380  0.72890  Biso   1.000  H
  C33      1.0000 0.55920  0.47520  0.67250  Biso   1.000  C
  H28      1.0000 0.59570  0.46130  0.65190  Biso   1.000  H
  C34      1.0000 0.59660  0.50350  0.70510  Biso   1.000  C
  C35      1.0000 0.44910  0.52050  0.72770  Biso   1.000  C
  H29      1.0000 0.41170  0.53640  0.74670  Biso   1.000  H
  C36      1.0000 0.41340  0.49090  0.69630  Biso   1.000  C
  H30      1.0000 0.35380  0.48720  0.69340  Biso   1.000  H
  O13      1.0000 0.35920  0.93130  0.12660  Biso   1.000  O
  O14      1.0000 0.49170  0.91020  0.11050  Biso   1.000  O
  O15      1.0000 0.51490  0.08540  0.29010  Biso   1.000  O
  O16      1.0000 0.64860  0.06770  0.27400  Biso   1.000  O
  C37      1.0000 0.43890  0.93460  0.13340  Biso   1.000  C
  C38      1.0000 0.47250  0.96660  0.16880  Biso   1.000  C
  C39      1.0000 0.55760  0.96160  0.18280  Biso   1.000  C
  H31      1.0000 0.59280  0.93770  0.17080  Biso   1.000  H
  C40      1.0000 0.59020  0.99230  0.21480  Biso   1.000  C
  C41      1.0000 0.53770  0.02800  0.23270  Biso   1.000  C
  C42      1.0000 0.45250  0.03300  0.21870  Biso   1.000  C
  H32      1.0000 0.41730  0.05690  0.23060  Biso   1.000  H
  C43      1.0000 0.41990  0.00230  0.18670  Biso   1.000  C
  H33      1.0000 0.36290  0.00560  0.17730  Biso   1.000  H
  C44      1.0000 0.56850  0.06160  0.26750  Biso   1.000  C
  N7       1.0000 0.67900  0.98640  0.22800  Biso   1.000  N
  H34      1.0000 0.71090  0.96430  0.21610  Biso   1.000  H
  H35      1.0000 0.70110  0.00490  0.24770  Biso   1.000  H
  N8       1.0000 0.68420  0.00630  0.20870  Biso   1.000  N
  H36      1.0000 0.71670  0.99060  0.19090  Biso   1.000  H
  H37      1.0000 0.70700  0.02380  0.22890  Biso   1.000  H
  C45      1.0000 0.55920  0.97520  0.17250  Biso   1.000  C
  H38      1.0000 0.59570  0.96130  0.15190  Biso   1.000  H
  C46      1.0000 0.59660  0.00350  0.20510  Biso   1.000  C
  C47      1.0000 0.44910  0.02050  0.22770  Biso   1.000  C
  H39      1.0000 0.41170  0.03640  0.24670  Biso   1.000  H
  C48      1.0000 0.41340  0.99090  0.19630  Biso   1.000  C
  H40      1.0000 0.35380  0.98720  0.19340  Biso   1.000  H
  O17      1.0000 0.89080  0.31870  0.12660  Biso   1.000  O
  O18      1.0000 0.75830  0.33980  0.11050  Biso   1.000  O
  O19      1.0000 0.73510  0.16460  0.29010  Biso   1.000  O
  O20      1.0000 0.60140  0.18230  0.27400  Biso   1.000  O
  C49      1.0000 0.81110  0.31540  0.13340  Biso   1.000  C
  C50      1.0000 0.77750  0.28340  0.16880  Biso   1.000  C
  C51      1.0000 0.69240  0.28840  0.18280  Biso   1.000  C
  H41      1.0000 0.65720  0.31230  0.17080  Biso   1.000  H
  C52      1.0000 0.65980  0.25770  0.21480  Biso   1.000  C
  C53      1.0000 0.71230  0.22200  0.23270  Biso   1.000  C
  C54      1.0000 0.79750  0.21700  0.21870  Biso   1.000  C
  H42      1.0000 0.83270  0.19310  0.23060  Biso   1.000  H
  C55      1.0000 0.83010  0.24770  0.18670  Biso   1.000  C
  H43      1.0000 0.88710  0.24440  0.17730  Biso   1.000  H
  C56      1.0000 0.68150  0.18840  0.26750  Biso   1.000  C
  N9       1.0000 0.57100  0.26360  0.22800  Biso   1.000  N
  H44      1.0000 0.53910  0.28570  0.21610  Biso   1.000  H
  H45      1.0000 0.54890  0.24510  0.24770  Biso   1.000  H
  N10      1.0000 0.56580  0.24370  0.20870  Biso   1.000  N
  H46      1.0000 0.53330  0.25940  0.19090  Biso   1.000  H
  H47      1.0000 0.54300  0.22620  0.22890  Biso   1.000  H
  C57      1.0000 0.69080  0.27480  0.17250  Biso   1.000  C
  H48      1.0000 0.65430  0.28870  0.15190  Biso   1.000  H
  C58      1.0000 0.65340  0.24650  0.20510  Biso   1.000  C
  C59      1.0000 0.80090  0.22950  0.22770  Biso   1.000  C
  H49      1.0000 0.83830  0.21360  0.24670  Biso   1.000  H
  C60      1.0000 0.83660  0.25910  0.19630  Biso   1.000  C
  H50      1.0000 0.89620  0.26280  0.19340  Biso   1.000  H
  O21      1.0000 0.89080  0.81870  0.62660  Biso   1.000  O
  O22      1.0000 0.75830  0.83980  0.61050  Biso   1.000  O
  O23      1.0000 0.73510  0.66460  0.79010  Biso   1.000  O
  O24      1.0000 0.60140  0.68230  0.77400  Biso   1.000  O
  C61      1.0000 0.81110  0.81540  0.63340  Biso   1.000  C
  C62      1.0000 0.77750  0.78340  0.66880  Biso   1.000  C
  C63      1.0000 0.69240  0.78840  0.68280  Biso   1.000  C
  H51      1.0000 0.65720  0.81230  0.67080  Biso   1.000  H
  C64      1.0000 0.65980  0.75770  0.71480  Biso   1.000  C
  C65      1.0000 0.71230  0.72200  0.73270  Biso   1.000  C
  C66      1.0000 0.79750  0.71700  0.71870  Biso   1.000  C
  H52      1.0000 0.83270  0.69310  0.73060  Biso   1.000  H
  C67      1.0000 0.83010  0.74770  0.68670  Biso   1.000  C
  H53      1.0000 0.88710  0.74440  0.67730  Biso   1.000  H
  C68      1.0000 0.68150  0.68840  0.76750  Biso   1.000  C
  N11      1.0000 0.57100  0.76360  0.72800  Biso   1.000  N
  H54      1.0000 0.53910  0.78570  0.71610  Biso   1.000  H
  H55      1.0000 0.54890  0.74510  0.74770  Biso   1.000  H
  N12      1.0000 0.56580  0.74370  0.70870  Biso   1.000  N
  H56      1.0000 0.53330  0.75940  0.69090  Biso   1.000  H
  H57      1.0000 0.54300  0.72620  0.72890  Biso   1.000  H
  C69      1.0000 0.69080  0.77480  0.67250  Biso   1.000  C
  H58      1.0000 0.65430  0.78870  0.65190  Biso   1.000  H
  C70      1.0000 0.65340  0.74650  0.70510  Biso   1.000  C
  C71      1.0000 0.80090  0.72950  0.72770  Biso   1.000  C
  H59      1.0000 0.83830  0.71360  0.74670  Biso   1.000  H
  C72      1.0000 0.83660  0.75910  0.69630  Biso   1.000  C
  H60      1.0000 0.89620  0.76280  0.69340  Biso   1.000  H
  O25      1.0000 0.39080  0.31870  0.62660  Biso   1.000  O
  O26      1.0000 0.25830  0.33980  0.61050  Biso   1.000  O
  O27      1.0000 0.23510  0.16460  0.79010  Biso   1.000  O
  O28      1.0000 0.10140  0.18230  0.77400  Biso   1.000  O
  C73      1.0000 0.31110  0.31540  0.63340  Biso   1.000  C
  C74      1.0000 0.27750  0.28340  0.66880  Biso   1.000  C
  C75      1.0000 0.19240  0.28840  0.68280  Biso   1.000  C
  H61      1.0000 0.15720  0.31230  0.67080  Biso   1.000  H
  C76      1.0000 0.15980  0.25770  0.71480  Biso   1.000  C
  C77      1.0000 0.21230  0.22200  0.73270  Biso   1.000  C
  C78      1.0000 0.29750  0.21700  0.71870  Biso   1.000  C
  H62      1.0000 0.33270  0.19310  0.73060  Biso   1.000  H
  C79      1.0000 0.33010  0.24770  0.68670  Biso   1.000  C
  H63      1.0000 0.38710  0.24440  0.67730  Biso   1.000  H
  C80      1.0000 0.18150  0.18840  0.76750  Biso   1.000  C
  N13      1.0000 0.07100  0.26360  0.72800  Biso   1.000  N
  H64      1.0000 0.03910  0.28570  0.71610  Biso   1.000  H
  H65      1.0000 0.04890  0.24510  0.74770  Biso   1.000  H
  N14      1.0000 0.06580  0.24370  0.70870  Biso   1.000  N
  H66      1.0000 0.03330  0.25940  0.69090  Biso   1.000  H
  H67      1.0000 0.04300  0.22620  0.72890  Biso   1.000  H
  C81      1.0000 0.19080  0.27480  0.67250  Biso   1.000  C
  H68      1.0000 0.15430  0.28870  0.65190  Biso   1.000  H
  C82      1.0000 0.15340  0.24650  0.70510  Biso   1.000  C
  C83      1.0000 0.30090  0.22950  0.72770  Biso   1.000  C
  H69      1.0000 0.33830  0.21360  0.74670  Biso   1.000  H
  C84      1.0000 0.33660  0.25910  0.69630  Biso   1.000  C
  H70      1.0000 0.39620  0.26280  0.69340  Biso   1.000  H
  O29      1.0000 0.39080  0.81870  0.12660  Biso   1.000  O
  O30      1.0000 0.25830  0.83980  0.11050  Biso   1.000  O
  O31      1.0000 0.23510  0.66460  0.29010  Biso   1.000  O
  O32      1.0000 0.10140  0.68230  0.27400  Biso   1.000  O
  C85      1.0000 0.31110  0.81540  0.13340  Biso   1.000  C
  C86      1.0000 0.27750  0.78340  0.16880  Biso   1.000  C
  C87      1.0000 0.19240  0.78840  0.18280  Biso   1.000  C
  H71      1.0000 0.15720  0.81230  0.17080  Biso   1.000  H
  C88      1.0000 0.15980  0.75770  0.21480  Biso   1.000  C
  C89      1.0000 0.21230  0.72200  0.23270  Biso   1.000  C
  C90      1.0000 0.29750  0.71700  0.21870  Biso   1.000  C
  H72      1.0000 0.33270  0.69310  0.23060  Biso   1.000  H
  C91      1.0000 0.33010  0.74770  0.18670  Biso   1.000  C
  H73      1.0000 0.38710  0.74440  0.17730  Biso   1.000  H
  C92      1.0000 0.18150  0.68840  0.26750  Biso   1.000  C
  N15      1.0000 0.07100  0.76360  0.22800  Biso   1.000  N
  H74      1.0000 0.03910  0.78570  0.21610  Biso   1.000  H
  H75      1.0000 0.04890  0.74510  0.24770  Biso   1.000  H
  N16      1.0000 0.06580  0.74370  0.20870  Biso   1.000  N
  H76      1.0000 0.03330  0.75940  0.19090  Biso   1.000  H
  H77      1.0000 0.04300  0.72620  0.22890  Biso   1.000  H
  C93      1.0000 0.19080  0.77480  0.17250  Biso   1.000  C
  H78      1.0000 0.15430  0.78870  0.15190  Biso   1.000  H
  C94      1.0000 0.15340  0.74650  0.20510  Biso   1.000  C
  C95      1.0000 0.30090  0.72950  0.22770  Biso   1.000  C
  H79      1.0000 0.33830  0.71360  0.24670  Biso   1.000  H
  C96      1.0000 0.33660  0.75910  0.19630  Biso   1.000  C
  H80      1.0000 0.39620  0.76280  0.19340  Biso   1.000  H
  O33      1.0000 0.10920  0.56870  0.37660  Biso   1.000  O
  O34      1.0000 0.24170  0.58980  0.36050  Biso   1.000  O
  O35      1.0000 0.26490  0.41460  0.54010  Biso   1.000  O
  O36      1.0000 0.39860  0.43230  0.52400  Biso   1.000  O
  C97      1.0000 0.18890  0.56540  0.38340  Biso   1.000  C
  C98      1.0000 0.22250  0.53340  0.41880  Biso   1.000  C
  C99      1.0000 0.30760  0.53840  0.43280  Biso   1.000  C
  H81      1.0000 0.34280  0.56230  0.42080  Biso   1.000  H
  C100     1.0000 0.34020  0.50770  0.46480  Biso   1.000  C
  C101     1.0000 0.28770  0.47200  0.48270  Biso   1.000  C
  C102     1.0000 0.20250  0.46700  0.46870  Biso   1.000  C
  H82      1.0000 0.16730  0.44310  0.48060  Biso   1.000  H
  C103     1.0000 0.16990  0.49770  0.43670  Biso   1.000  C
  H83      1.0000 0.11290  0.49440  0.42730  Biso   1.000  H
  C104     1.0000 0.31850  0.43840  0.51750  Biso   1.000  C
  N17      1.0000 0.42900  0.51360  0.47800  Biso   1.000  N
  H84      1.0000 0.46090  0.53570  0.46610  Biso   1.000  H
  H85      1.0000 0.45110  0.49510  0.49770  Biso   1.000  H
  N18      1.0000 0.43420  0.49370  0.45870  Biso   1.000  N
  H86      1.0000 0.46670  0.50940  0.44090  Biso   1.000  H
  H87      1.0000 0.45700  0.47620  0.47890  Biso   1.000  H
  C105     1.0000 0.30920  0.52480  0.42250  Biso   1.000  C
  H88      1.0000 0.34570  0.53870  0.40190  Biso   1.000  H
  C106     1.0000 0.34660  0.49650  0.45510  Biso   1.000  C
  C107     1.0000 0.19910  0.47950  0.47770  Biso   1.000  C
  H89      1.0000 0.16170  0.46360  0.49670  Biso   1.000  H
  C108     1.0000 0.16340  0.50910  0.44630  Biso   1.000  C
  H90      1.0000 0.10380  0.51280  0.44340  Biso   1.000  H
  O37      1.0000 0.10920  0.06870  0.87660  Biso   1.000  O
  O38      1.0000 0.24170  0.08980  0.86050  Biso   1.000  O
  O39      1.0000 0.26490  0.91460  0.04010  Biso   1.000  O
  O40      1.0000 0.39860  0.93230  0.02400  Biso   1.000  O
  C109     1.0000 0.18890  0.06540  0.88340  Biso   1.000  C
  C110     1.0000 0.22250  0.03340  0.91880  Biso   1.000  C
  C111     1.0000 0.30760  0.03840  0.93280  Biso   1.000  C
  H91      1.0000 0.34280  0.06230  0.92080  Biso   1.000  H
  C112     1.0000 0.34020  0.00770  0.96480  Biso   1.000  C
  C113     1.0000 0.28770  0.97200  0.98270  Biso   1.000  C
  C114     1.0000 0.20250  0.96700  0.96870  Biso   1.000  C
  H92      1.0000 0.16730  0.94310  0.98060  Biso   1.000  H
  C115     1.0000 0.16990  0.99770  0.93670  Biso   1.000  C
  H93      1.0000 0.11290  0.99440  0.92730  Biso   1.000  H
  C116     1.0000 0.31850  0.93840  0.01750  Biso   1.000  C
  N19      1.0000 0.42900  0.01360  0.97800  Biso   1.000  N
  H94      1.0000 0.46090  0.03570  0.96610  Biso   1.000  H
  H95      1.0000 0.45110  0.99510  0.99770  Biso   1.000  H
  N20      1.0000 0.43420  0.99370  0.95870  Biso   1.000  N
  H96      1.0000 0.46670  0.00940  0.94090  Biso   1.000  H
  H97      1.0000 0.45700  0.97620  0.97890  Biso   1.000  H
  C117     1.0000 0.30920  0.02480  0.92250  Biso   1.000  C
  H98      1.0000 0.34570  0.03870  0.90190  Biso   1.000  H
  C118     1.0000 0.34660  0.99650  0.95510  Biso   1.000  C
  C119     1.0000 0.19910  0.97950  0.97770  Biso   1.000  C
  H99      1.0000 0.16170  0.96360  0.99670  Biso   1.000  H
  C120     1.0000 0.16340  0.00910  0.94630  Biso   1.000  C
  H100     1.0000 0.10380  0.01280  0.94340  Biso   1.000  H
  O41      1.0000 0.60920  0.56870  0.87660  Biso   1.000  O
  O42      1.0000 0.74170  0.58980  0.86050  Biso   1.000  O
  O43      1.0000 0.76490  0.41460  0.04010  Biso   1.000  O
  O44      1.0000 0.89860  0.43230  0.02400  Biso   1.000  O
  C121     1.0000 0.68890  0.56540  0.88340  Biso   1.000  C
  C122     1.0000 0.72250  0.53340  0.91880  Biso   1.000  C
  C123     1.0000 0.80760  0.53840  0.93280  Biso   1.000  C
  H101     1.0000 0.84280  0.56230  0.92080  Biso   1.000  H
  C124     1.0000 0.84020  0.50770  0.96480  Biso   1.000  C
  C125     1.0000 0.78770  0.47200  0.98270  Biso   1.000  C
  C126     1.0000 0.70250  0.46700  0.96870  Biso   1.000  C
  H102     1.0000 0.66730  0.44310  0.98060  Biso   1.000  H
  C127     1.0000 0.66990  0.49770  0.93670  Biso   1.000  C
  H103     1.0000 0.61290  0.49440  0.92730  Biso   1.000  H
  C128     1.0000 0.81850  0.43840  0.01750  Biso   1.000  C
  N21      1.0000 0.92900  0.51360  0.97800  Biso   1.000  N
  H104     1.0000 0.96090  0.53570  0.96610  Biso   1.000  H
  H105     1.0000 0.95110  0.49510  0.99770  Biso   1.000  H
  N22      1.0000 0.93420  0.49370  0.95870  Biso   1.000  N
  H106     1.0000 0.96670  0.50940  0.94090  Biso   1.000  H
  H107     1.0000 0.95700  0.47620  0.97890  Biso   1.000  H
  C129     1.0000 0.80920  0.52480  0.92250  Biso   1.000  C
  H108     1.0000 0.84570  0.53870  0.90190  Biso   1.000  H
  C130     1.0000 0.84660  0.49650  0.95510  Biso   1.000  C
  C131     1.0000 0.69910  0.47950  0.97770  Biso   1.000  C
  H109     1.0000 0.66170  0.46360  0.99670  Biso   1.000  H
  C132     1.0000 0.66340  0.50910  0.94630  Biso   1.000  C
  H110     1.0000 0.60380  0.51280  0.94340  Biso   1.000  H
  O45      1.0000 0.60920  0.06870  0.37660  Biso   1.000  O
  O46      1.0000 0.74170  0.08980  0.36050  Biso   1.000  O
  O47      1.0000 0.76490  0.91460  0.54010  Biso   1.000  O
  O48      1.0000 0.89860  0.93230  0.52400  Biso   1.000  O
  C133     1.0000 0.68890  0.06540  0.38340  Biso   1.000  C
  C134     1.0000 0.72250  0.03340  0.41880  Biso   1.000  C
  C135     1.0000 0.80760  0.03840  0.43280  Biso   1.000  C
  H111     1.0000 0.84280  0.06230  0.42080  Biso   1.000  H
  C136     1.0000 0.84020  0.00770  0.46480  Biso   1.000  C
  C137     1.0000 0.78770  0.97200  0.48270  Biso   1.000  C
  C138     1.0000 0.70250  0.96700  0.46870  Biso   1.000  C
  H112     1.0000 0.66730  0.94310  0.48060  Biso   1.000  H
  C139     1.0000 0.66990  0.99770  0.43670  Biso   1.000  C
  H113     1.0000 0.61290  0.99440  0.42730  Biso   1.000  H
  C140     1.0000 0.81850  0.93840  0.51750  Biso   1.000  C
  N23      1.0000 0.92900  0.01360  0.47800  Biso   1.000  N
  H114     1.0000 0.96090  0.03570  0.46610  Biso   1.000  H
  H115     1.0000 0.95110  0.99510  0.49770  Biso   1.000  H
  N24      1.0000 0.93420  0.99370  0.45870  Biso   1.000  N
  H116     1.0000 0.96670  0.00940  0.44090  Biso   1.000  H
  H117     1.0000 0.95700  0.97620  0.47890  Biso   1.000  H
  C141     1.0000 0.80920  0.02480  0.42250  Biso   1.000  C
  H118     1.0000 0.84570  0.03870  0.40190  Biso   1.000  H
  C142     1.0000 0.84660  0.99650  0.45510  Biso   1.000  C
  C143     1.0000 0.69910  0.97950  0.47770  Biso   1.000  C
  H119     1.0000 0.66170  0.96360  0.49670  Biso   1.000  H
  C144     1.0000 0.66340  0.00910  0.44630  Biso   1.000  C
  H120     1.0000 0.60380  0.01280  0.44340  Biso   1.000  H
  O49      1.0000 0.14080  0.68130  0.37660  Biso   1.000  O
  O50      1.0000 0.00830  0.66020  0.36050  Biso   1.000  O
  O51      1.0000 0.98510  0.83540  0.54010  Biso   1.000  O
  O52      1.0000 0.85140  0.81770  0.52400  Biso   1.000  O
  C145     1.0000 0.06110  0.68460  0.38340  Biso   1.000  C
  C146     1.0000 0.02750  0.71660  0.41880  Biso   1.000  C
  C147     1.0000 0.94240  0.71160  0.43280  Biso   1.000  C
  H121     1.0000 0.90720  0.68770  0.42080  Biso   1.000  H
  C148     1.0000 0.90980  0.74230  0.46480  Biso   1.000  C
  C149     1.0000 0.96230  0.77800  0.48270  Biso   1.000  C
  C150     1.0000 0.04750  0.78300  0.46870  Biso   1.000  C
  H122     1.0000 0.08270  0.80690  0.48060  Biso   1.000  H
  C151     1.0000 0.08010  0.75230  0.43670  Biso   1.000  C
  H123     1.0000 0.13710  0.75560  0.42730  Biso   1.000  H
  C152     1.0000 0.93150  0.81160  0.51750  Biso   1.000  C
  N25      1.0000 0.82100  0.73640  0.47800  Biso   1.000  N
  H124     1.0000 0.78910  0.71430  0.46610  Biso   1.000  H
  H125     1.0000 0.79890  0.75490  0.49770  Biso   1.000  H
  N26      1.0000 0.81580  0.75630  0.45870  Biso   1.000  N
  H126     1.0000 0.78330  0.74060  0.44090  Biso   1.000  H
  H127     1.0000 0.79300  0.77380  0.47890  Biso   1.000  H
  C153     1.0000 0.94080  0.72520  0.42250  Biso   1.000  C
  H128     1.0000 0.90430  0.71130  0.40190  Biso   1.000  H
  C154     1.0000 0.90340  0.75350  0.45510  Biso   1.000  C
  C155     1.0000 0.05090  0.77050  0.47770  Biso   1.000  C
  H129     1.0000 0.08830  0.78640  0.49670  Biso   1.000  H
  C156     1.0000 0.08660  0.74090  0.44630  Biso   1.000  C
  H130     1.0000 0.14620  0.73720  0.44340  Biso   1.000  H
  O53      1.0000 0.14080  0.18130  0.87660  Biso   1.000  O
  O54      1.0000 0.00830  0.16020  0.86050  Biso   1.000  O
  O55      1.0000 0.98510  0.33540  0.04010  Biso   1.000  O
  O56      1.0000 0.85140  0.31770  0.02400  Biso   1.000  O
  C157     1.0000 0.06110  0.18460  0.88340  Biso   1.000  C
  C158     1.0000 0.02750  0.21660  0.91880  Biso   1.000  C
  C159     1.0000 0.94240  0.21160  0.93280  Biso   1.000  C
  H131     1.0000 0.90720  0.18770  0.92080  Biso   1.000  H
  C160     1.0000 0.90980  0.24230  0.96480  Biso   1.000  C
  C161     1.0000 0.96230  0.27800  0.98270  Biso   1.000  C
  C162     1.0000 0.04750  0.28300  0.96870  Biso   1.000  C
  H132     1.0000 0.08270  0.30690  0.98060  Biso   1.000  H
  C163     1.0000 0.08010  0.25230  0.93670  Biso   1.000  C
  H133     1.0000 0.13710  0.25560  0.92730  Biso   1.000  H
  C164     1.0000 0.93150  0.31160  0.01750  Biso   1.000  C
  N27      1.0000 0.82100  0.23640  0.97800  Biso   1.000  N
  H134     1.0000 0.78910  0.21430  0.96610  Biso   1.000  H
  H135     1.0000 0.79890  0.25490  0.99770  Biso   1.000  H
  N28      1.0000 0.81580  0.25630  0.95870  Biso   1.000  N
  H136     1.0000 0.78330  0.24060  0.94090  Biso   1.000  H
  H137     1.0000 0.79300  0.27380  0.97890  Biso   1.000  H
  C165     1.0000 0.94080  0.22520  0.92250  Biso   1.000  C
  H138     1.0000 0.90430  0.21130  0.90190  Biso   1.000  H
  C166     1.0000 0.90340  0.25350  0.95510  Biso   1.000  C
  C167     1.0000 0.05090  0.27050  0.97770  Biso   1.000  C
  H139     1.0000 0.08830  0.28640  0.99670  Biso   1.000  H
  C168     1.0000 0.08660  0.24090  0.94630  Biso   1.000  C
  H140     1.0000 0.14620  0.23720  0.94340  Biso   1.000  H
  O57      1.0000 0.64080  0.68130  0.87660  Biso   1.000  O
  O58      1.0000 0.50830  0.66020  0.86050  Biso   1.000  O
  O59      1.0000 0.48510  0.83540  0.04010  Biso   1.000  O
  O60      1.0000 0.35140  0.81770  0.02400  Biso   1.000  O
  C169     1.0000 0.56110  0.68460  0.88340  Biso   1.000  C
  C170     1.0000 0.52750  0.71660  0.91880  Biso   1.000  C
  C171     1.0000 0.44240  0.71160  0.93280  Biso   1.000  C
  H141     1.0000 0.40720  0.68770  0.92080  Biso   1.000  H
  C172     1.0000 0.40980  0.74230  0.96480  Biso   1.000  C
  C173     1.0000 0.46230  0.77800  0.98270  Biso   1.000  C
  C174     1.0000 0.54750  0.78300  0.96870  Biso   1.000  C
  H142     1.0000 0.58270  0.80690  0.98060  Biso   1.000  H
  C175     1.0000 0.58010  0.75230  0.93670  Biso   1.000  C
  H143     1.0000 0.63710  0.75560  0.92730  Biso   1.000  H
  C176     1.0000 0.43150  0.81160  0.01750  Biso   1.000  C
  N29      1.0000 0.32100  0.73640  0.97800  Biso   1.000  N
  H144     1.0000 0.28910  0.71430  0.96610  Biso   1.000  H
  H145     1.0000 0.29890  0.75490  0.99770  Biso   1.000  H
  N30      1.0000 0.31580  0.75630  0.95870  Biso   1.000  N
  H146     1.0000 0.28330  0.74060  0.94090  Biso   1.000  H
  H147     1.0000 0.29300  0.77380  0.97890  Biso   1.000  H
  C177     1.0000 0.44080  0.72520  0.92250  Biso   1.000  C
  H148     1.0000 0.40430  0.71130  0.90190  Biso   1.000  H
  C178     1.0000 0.40340  0.75350  0.95510  Biso   1.000  C
  C179     1.0000 0.55090  0.77050  0.97770  Biso   1.000  C
  H149     1.0000 0.58830  0.78640  0.99670  Biso   1.000  H
  C180     1.0000 0.58660  0.74090  0.94630  Biso   1.000  C
  H150     1.0000 0.64620  0.73720  0.94340  Biso   1.000  H
  O61      1.0000 0.64080  0.18130  0.37660  Biso   1.000  O
  O62      1.0000 0.50830  0.16020  0.36050  Biso   1.000  O
  O63      1.0000 0.48510  0.33540  0.54010  Biso   1.000  O
  O64      1.0000 0.35140  0.31770  0.52400  Biso   1.000  O
  C181     1.0000 0.56110  0.18460  0.38340  Biso   1.000  C
  C182     1.0000 0.52750  0.21660  0.41880  Biso   1.000  C
  C183     1.0000 0.44240  0.21160  0.43280  Biso   1.000  C
  H151     1.0000 0.40720  0.18770  0.42080  Biso   1.000  H
  C184     1.0000 0.40980  0.24230  0.46480  Biso   1.000  C
  C185     1.0000 0.46230  0.27800  0.48270  Biso   1.000  C
  C186     1.0000 0.54750  0.28300  0.46870  Biso   1.000  C
  H152     1.0000 0.58270  0.30690  0.48060  Biso   1.000  H
  C187     1.0000 0.58010  0.25230  0.43670  Biso   1.000  C
  H153     1.0000 0.63710  0.25560  0.42730  Biso   1.000  H
  C188     1.0000 0.43150  0.31160  0.51750  Biso   1.000  C
  N31      1.0000 0.32100  0.23640  0.47800  Biso   1.000  N
  H154     1.0000 0.28910  0.21430  0.46610  Biso   1.000  H
  H155     1.0000 0.29890  0.25490  0.49770  Biso   1.000  H
  N32      1.0000 0.31580  0.25630  0.45870  Biso   1.000  N
  H156     1.0000 0.28330  0.24060  0.44090  Biso   1.000  H
  H157     1.0000 0.29300  0.27380  0.47890  Biso   1.000  H
  C189     1.0000 0.44080  0.22520  0.42250  Biso   1.000  C
  H158     1.0000 0.40430  0.21130  0.40190  Biso   1.000  H
  C190     1.0000 0.40340  0.25350  0.45510  Biso   1.000  C
  C191     1.0000 0.55090  0.27050  0.47770  Biso   1.000  C
  H159     1.0000 0.58830  0.28640  0.49670  Biso   1.000  H
  C192     1.0000 0.58660  0.24090  0.44630  Biso   1.000  C
  H160     1.0000 0.64620  0.23720  0.44340  Biso   1.000  H
  In1      1.0000 0.87500  0.37500  0.07418  Biso   1.000  In
  In2      1.0000 0.87500  0.87500  0.57418  Biso   1.000  In
  In3      1.0000 0.37500  0.37500  0.57418  Biso   1.000  In
  In4      1.0000 0.37500  0.87500  0.07418  Biso   1.000  In
  In5      1.0000 0.12500  0.62500  0.32418  Biso   1.000  In
  In6      1.0000 0.12500  0.12500  0.82418  Biso   1.000  In
  In7      1.0000 0.62500  0.62500  0.82418  Biso   1.000  In
  In8      1.0000 0.62500  0.12500  0.32418  Biso   1.000  In
  O65      1.0000 0.89080  0.43130  0.62340  Biso   1.000  O
  O66      1.0000 0.75830  0.41020  0.63950  Biso   1.000  O
  O67      1.0000 0.73510  0.58540  0.45990  Biso   1.000  O
  O68      1.0000 0.60140  0.56770  0.47600  Biso   1.000  O
  C193     1.0000 0.81110  0.43460  0.61660  Biso   1.000  C
  C194     1.0000 0.77750  0.46660  0.58120  Biso   1.000  C
  C195     1.0000 0.69240  0.46160  0.56720  Biso   1.000  C
  H161     1.0000 0.65720  0.43770  0.57920  Biso   1.000  H
  C196     1.0000 0.65980  0.49230  0.53520  Biso   1.000  C
  C197     1.0000 0.71230  0.52800  0.51730  Biso   1.000  C
  C198     1.0000 0.79750  0.53300  0.53130  Biso   1.000  C
  H162     1.0000 0.83270  0.55690  0.51940  Biso   1.000  H
  C199     1.0000 0.83010  0.50230  0.56330  Biso   1.000  C
  H163     1.0000 0.88710  0.50560  0.57270  Biso   1.000  H
  C200     1.0000 0.68150  0.56160  0.48250  Biso   1.000  C
  N33      1.0000 0.57100  0.48640  0.52200  Biso   1.000  N
  H164     1.0000 0.53910  0.46430  0.53390  Biso   1.000  H
  H165     1.0000 0.54890  0.50490  0.50230  Biso   1.000  H
  N34      1.0000 0.56580  0.50630  0.54130  Biso   1.000  N
  H166     1.0000 0.53330  0.49060  0.55910  Biso   1.000  H
  H167     1.0000 0.54300  0.52380  0.52110  Biso   1.000  H
  C201     1.0000 0.69080  0.47520  0.57750  Biso   1.000  C
  H168     1.0000 0.65430  0.46130  0.59810  Biso   1.000  H
  C202     1.0000 0.65340  0.50350  0.54490  Biso   1.000  C
  C203     1.0000 0.80090  0.52050  0.52230  Biso   1.000  C
  H169     1.0000 0.83830  0.53640  0.50330  Biso   1.000  H
  C204     1.0000 0.83660  0.49090  0.55370  Biso   1.000  C
  H170     1.0000 0.89620  0.48720  0.55660  Biso   1.000  H
  O69      1.0000 0.89080  0.93130  0.12340  Biso   1.000  O
  O70      1.0000 0.75830  0.91020  0.13950  Biso   1.000  O
  O71      1.0000 0.73510  0.08540  0.95990  Biso   1.000  O
  O72      1.0000 0.60140  0.06770  0.97600  Biso   1.000  O
  C205     1.0000 0.81110  0.93460  0.11660  Biso   1.000  C
  C206     1.0000 0.77750  0.96660  0.08120  Biso   1.000  C
  C207     1.0000 0.69240  0.96160  0.06720  Biso   1.000  C
  H171     1.0000 0.65720  0.93770  0.07920  Biso   1.000  H
  C208     1.0000 0.65980  0.99230  0.03520  Biso   1.000  C
  C209     1.0000 0.71230  0.02800  0.01730  Biso   1.000  C
  C210     1.0000 0.79750  0.03300  0.03130  Biso   1.000  C
  H172     1.0000 0.83270  0.05690  0.01940  Biso   1.000  H
  C211     1.0000 0.83010  0.00230  0.06330  Biso   1.000  C
  H173     1.0000 0.88710  0.00560  0.07270  Biso   1.000  H
  C212     1.0000 0.68150  0.06160  0.98250  Biso   1.000  C
  N35      1.0000 0.57100  0.98640  0.02200  Biso   1.000  N
  H174     1.0000 0.53910  0.96430  0.03390  Biso   1.000  H
  H175     1.0000 0.54890  0.00490  0.00230  Biso   1.000  H
  N36      1.0000 0.56580  0.00630  0.04130  Biso   1.000  N
  H176     1.0000 0.53330  0.99060  0.05910  Biso   1.000  H
  H177     1.0000 0.54300  0.02380  0.02110  Biso   1.000  H
  C213     1.0000 0.69080  0.97520  0.07750  Biso   1.000  C
  H178     1.0000 0.65430  0.96130  0.09810  Biso   1.000  H
  C214     1.0000 0.65340  0.00350  0.04490  Biso   1.000  C
  C215     1.0000 0.80090  0.02050  0.02230  Biso   1.000  C
  H179     1.0000 0.83830  0.03640  0.00330  Biso   1.000  H
  C216     1.0000 0.83660  0.99090  0.05370  Biso   1.000  C
  H180     1.0000 0.89620  0.98720  0.05660  Biso   1.000  H
  O73      1.0000 0.39080  0.43130  0.12340  Biso   1.000  O
  O74      1.0000 0.25830  0.41020  0.13950  Biso   1.000  O
  O75      1.0000 0.23510  0.58540  0.95990  Biso   1.000  O
  O76      1.0000 0.10140  0.56770  0.97600  Biso   1.000  O
  C217     1.0000 0.31110  0.43460  0.11660  Biso   1.000  C
  C218     1.0000 0.27750  0.46660  0.08120  Biso   1.000  C
  C219     1.0000 0.19240  0.46160  0.06720  Biso   1.000  C
  H181     1.0000 0.15720  0.43770  0.07920  Biso   1.000  H
  C220     1.0000 0.15980  0.49230  0.03520  Biso   1.000  C
  C221     1.0000 0.21230  0.52800  0.01730  Biso   1.000  C
  C222     1.0000 0.29750  0.53300  0.03130  Biso   1.000  C
  H182     1.0000 0.33270  0.55690  0.01940  Biso   1.000  H
  C223     1.0000 0.33010  0.50230  0.06330  Biso   1.000  C
  H183     1.0000 0.38710  0.50560  0.07270  Biso   1.000  H
  C224     1.0000 0.18150  0.56160  0.98250  Biso   1.000  C
  N37      1.0000 0.07100  0.48640  0.02200  Biso   1.000  N
  H184     1.0000 0.03910  0.46430  0.03390  Biso   1.000  H
  H185     1.0000 0.04890  0.50490  0.00230  Biso   1.000  H
  N38      1.0000 0.06580  0.50630  0.04130  Biso   1.000  N
  H186     1.0000 0.03330  0.49060  0.05910  Biso   1.000  H
  H187     1.0000 0.04300  0.52380  0.02110  Biso   1.000  H
  C225     1.0000 0.19080  0.47520  0.07750  Biso   1.000  C
  H188     1.0000 0.15430  0.46130  0.09810  Biso   1.000  H
  C226     1.0000 0.15340  0.50350  0.04490  Biso   1.000  C
  C227     1.0000 0.30090  0.52050  0.02230  Biso   1.000  C
  H189     1.0000 0.33830  0.53640  0.00330  Biso   1.000  H
  C228     1.0000 0.33660  0.49090  0.05370  Biso   1.000  C
  H190     1.0000 0.39620  0.48720  0.05660  Biso   1.000  H
  O77      1.0000 0.39080  0.93130  0.62340  Biso   1.000  O
  O78      1.0000 0.25830  0.91020  0.63950  Biso   1.000  O
  O79      1.0000 0.23510  0.08540  0.45990  Biso   1.000  O
  O80      1.0000 0.10140  0.06770  0.47600  Biso   1.000  O
  C229     1.0000 0.31110  0.93460  0.61660  Biso   1.000  C
  C230     1.0000 0.27750  0.96660  0.58120  Biso   1.000  C
  C231     1.0000 0.19240  0.96160  0.56720  Biso   1.000  C
  H191     1.0000 0.15720  0.93770  0.57920  Biso   1.000  H
  C232     1.0000 0.15980  0.99230  0.53520  Biso   1.000  C
  C233     1.0000 0.21230  0.02800  0.51730  Biso   1.000  C
  C234     1.0000 0.29750  0.03300  0.53130  Biso   1.000  C
  H192     1.0000 0.33270  0.05690  0.51940  Biso   1.000  H
  C235     1.0000 0.33010  0.00230  0.56330  Biso   1.000  C
  H193     1.0000 0.38710  0.00560  0.57270  Biso   1.000  H
  C236     1.0000 0.18150  0.06160  0.48250  Biso   1.000  C
  N39      1.0000 0.07100  0.98640  0.52200  Biso   1.000  N
  H194     1.0000 0.03910  0.96430  0.53390  Biso   1.000  H
  H195     1.0000 0.04890  0.00490  0.50230  Biso   1.000  H
  N40      1.0000 0.06580  0.00630  0.54130  Biso   1.000  N
  H196     1.0000 0.03330  0.99060  0.55910  Biso   1.000  H
  H197     1.0000 0.04300  0.02380  0.52110  Biso   1.000  H
  C237     1.0000 0.19080  0.97520  0.57750  Biso   1.000  C
  H198     1.0000 0.15430  0.96130  0.59810  Biso   1.000  H
  C238     1.0000 0.15340  0.00350  0.54490  Biso   1.000  C
  C239     1.0000 0.30090  0.02050  0.52230  Biso   1.000  C
  H199     1.0000 0.33830  0.03640  0.50330  Biso   1.000  H
  C240     1.0000 0.33660  0.99090  0.55370  Biso   1.000  C
  H200     1.0000 0.39620  0.98720  0.55660  Biso   1.000  H
  O81      1.0000 0.85920  0.31870  0.62340  Biso   1.000  O
  O82      1.0000 0.99170  0.33980  0.63950  Biso   1.000  O
  O83      1.0000 0.01490  0.16460  0.45990  Biso   1.000  O
  O84      1.0000 0.14860  0.18230  0.47600  Biso   1.000  O
  C241     1.0000 0.93890  0.31540  0.61660  Biso   1.000  C
  C242     1.0000 0.97250  0.28340  0.58120  Biso   1.000  C
  C243     1.0000 0.05760  0.28840  0.56720  Biso   1.000  C
  H201     1.0000 0.09280  0.31230  0.57920  Biso   1.000  H
  C244     1.0000 0.09020  0.25770  0.53520  Biso   1.000  C
  C245     1.0000 0.03770  0.22200  0.51730  Biso   1.000  C
  C246     1.0000 0.95250  0.21700  0.53130  Biso   1.000  C
  H202     1.0000 0.91730  0.19310  0.51940  Biso   1.000  H
  C247     1.0000 0.91990  0.24770  0.56330  Biso   1.000  C
  H203     1.0000 0.86290  0.24440  0.57270  Biso   1.000  H
  C248     1.0000 0.06850  0.18840  0.48250  Biso   1.000  C
  N41      1.0000 0.17900  0.26360  0.52200  Biso   1.000  N
  H204     1.0000 0.21090  0.28570  0.53390  Biso   1.000  H
  H205     1.0000 0.20110  0.24510  0.50230  Biso   1.000  H
  N42      1.0000 0.18420  0.24370  0.54130  Biso   1.000  N
  H206     1.0000 0.21670  0.25940  0.55910  Biso   1.000  H
  H207     1.0000 0.20700  0.22620  0.52110  Biso   1.000  H
  C249     1.0000 0.05920  0.27480  0.57750  Biso   1.000  C
  H208     1.0000 0.09570  0.28870  0.59810  Biso   1.000  H
  C250     1.0000 0.09660  0.24650  0.54490  Biso   1.000  C
  C251     1.0000 0.94910  0.22950  0.52230  Biso   1.000  C
  H209     1.0000 0.91170  0.21360  0.50330  Biso   1.000  H
  C252     1.0000 0.91340  0.25910  0.55370  Biso   1.000  C
  H210     1.0000 0.85380  0.26280  0.55660  Biso   1.000  H
  O85      1.0000 0.85920  0.81870  0.12340  Biso   1.000  O
  O86      1.0000 0.99170  0.83980  0.13950  Biso   1.000  O
  O87      1.0000 0.01490  0.66460  0.95990  Biso   1.000  O
  O88      1.0000 0.14860  0.68230  0.97600  Biso   1.000  O
  C253     1.0000 0.93890  0.81540  0.11660  Biso   1.000  C
  C254     1.0000 0.97250  0.78340  0.08120  Biso   1.000  C
  C255     1.0000 0.05760  0.78840  0.06720  Biso   1.000  C
  H211     1.0000 0.09280  0.81230  0.07920  Biso   1.000  H
  C256     1.0000 0.09020  0.75770  0.03520  Biso   1.000  C
  C257     1.0000 0.03770  0.72200  0.01730  Biso   1.000  C
  C258     1.0000 0.95250  0.71700  0.03130  Biso   1.000  C
  H212     1.0000 0.91730  0.69310  0.01940  Biso   1.000  H
  C259     1.0000 0.91990  0.74770  0.06330  Biso   1.000  C
  H213     1.0000 0.86290  0.74440  0.07270  Biso   1.000  H
  C260     1.0000 0.06850  0.68840  0.98250  Biso   1.000  C
  N43      1.0000 0.17900  0.76360  0.02200  Biso   1.000  N
  H214     1.0000 0.21090  0.78570  0.03390  Biso   1.000  H
  H215     1.0000 0.20110  0.74510  0.00230  Biso   1.000  H
  N44      1.0000 0.18420  0.74370  0.04130  Biso   1.000  N
  H216     1.0000 0.21670  0.75940  0.05910  Biso   1.000  H
  H217     1.0000 0.20700  0.72620  0.02110  Biso   1.000  H
  C261     1.0000 0.05920  0.77480  0.07750  Biso   1.000  C
  H218     1.0000 0.09570  0.78870  0.09810  Biso   1.000  H
  C262     1.0000 0.09660  0.74650  0.04490  Biso   1.000  C
  C263     1.0000 0.94910  0.72950  0.02230  Biso   1.000  C
  H219     1.0000 0.91170  0.71360  0.00330  Biso   1.000  H
  C264     1.0000 0.91340  0.75910  0.05370  Biso   1.000  C
  H220     1.0000 0.85380  0.76280  0.05660  Biso   1.000  H
  O89      1.0000 0.35920  0.31870  0.12340  Biso   1.000  O
  O90      1.0000 0.49170  0.33980  0.13950  Biso   1.000  O
  O91      1.0000 0.51490  0.16460  0.95990  Biso   1.000  O
  O92      1.0000 0.64860  0.18230  0.97600  Biso   1.000  O
  C265     1.0000 0.43890  0.31540  0.11660  Biso   1.000  C
  C266     1.0000 0.47250  0.28340  0.08120  Biso   1.000  C
  C267     1.0000 0.55760  0.28840  0.06720  Biso   1.000  C
  H221     1.0000 0.59280  0.31230  0.07920  Biso   1.000  H
  C268     1.0000 0.59020  0.25770  0.03520  Biso   1.000  C
  C269     1.0000 0.53770  0.22200  0.01730  Biso   1.000  C
  C270     1.0000 0.45250  0.21700  0.03130  Biso   1.000  C
  H222     1.0000 0.41730  0.19310  0.01940  Biso   1.000  H
  C271     1.0000 0.41990  0.24770  0.06330  Biso   1.000  C
  H223     1.0000 0.36290  0.24440  0.07270  Biso   1.000  H
  C272     1.0000 0.56850  0.18840  0.98250  Biso   1.000  C
  N45      1.0000 0.67900  0.26360  0.02200  Biso   1.000  N
  H224     1.0000 0.71090  0.28570  0.03390  Biso   1.000  H
  H225     1.0000 0.70110  0.24510  0.00230  Biso   1.000  H
  N46      1.0000 0.68420  0.24370  0.04130  Biso   1.000  N
  H226     1.0000 0.71670  0.25940  0.05910  Biso   1.000  H
  H227     1.0000 0.70700  0.22620  0.02110  Biso   1.000  H
  C273     1.0000 0.55920  0.27480  0.07750  Biso   1.000  C
  H228     1.0000 0.59570  0.28870  0.09810  Biso   1.000  H
  C274     1.0000 0.59660  0.24650  0.04490  Biso   1.000  C
  C275     1.0000 0.44910  0.22950  0.02230  Biso   1.000  C
  H229     1.0000 0.41170  0.21360  0.00330  Biso   1.000  H
  C276     1.0000 0.41340  0.25910  0.05370  Biso   1.000  C
  H230     1.0000 0.35380  0.26280  0.05660  Biso   1.000  H
  O93      1.0000 0.35920  0.81870  0.62340  Biso   1.000  O
  O94      1.0000 0.49170  0.83980  0.63950  Biso   1.000  O
  O95      1.0000 0.51490  0.66460  0.45990  Biso   1.000  O
  O96      1.0000 0.64860  0.68230  0.47600  Biso   1.000  O
  C277     1.0000 0.43890  0.81540  0.61660  Biso   1.000  C
  C278     1.0000 0.47250  0.78340  0.58120  Biso   1.000  C
  C279     1.0000 0.55760  0.78840  0.56720  Biso   1.000  C
  H231     1.0000 0.59280  0.81230  0.57920  Biso   1.000  H
  C280     1.0000 0.59020  0.75770  0.53520  Biso   1.000  C
  C281     1.0000 0.53770  0.72200  0.51730  Biso   1.000  C
  C282     1.0000 0.45250  0.71700  0.53130  Biso   1.000  C
  H232     1.0000 0.41730  0.69310  0.51940  Biso   1.000  H
  C283     1.0000 0.41990  0.74770  0.56330  Biso   1.000  C
  H233     1.0000 0.36290  0.74440  0.57270  Biso   1.000  H
  C284     1.0000 0.56850  0.68840  0.48250  Biso   1.000  C
  N47      1.0000 0.67900  0.76360  0.52200  Biso   1.000  N
  H234     1.0000 0.71090  0.78570  0.53390  Biso   1.000  H
  H235     1.0000 0.70110  0.74510  0.50230  Biso   1.000  H
  N48      1.0000 0.68420  0.74370  0.54130  Biso   1.000  N
  H236     1.0000 0.71670  0.75940  0.55910  Biso   1.000  H
  H237     1.0000 0.70700  0.72620  0.52110  Biso   1.000  H
  C285     1.0000 0.55920  0.77480  0.57750  Biso   1.000  C
  H238     1.0000 0.59570  0.78870  0.59810  Biso   1.000  H
  C286     1.0000 0.59660  0.74650  0.54490  Biso   1.000  C
  C287     1.0000 0.44910  0.72950  0.52230  Biso   1.000  C
  H239     1.0000 0.41170  0.71360  0.50330  Biso   1.000  H
  C288     1.0000 0.41340  0.75910  0.55370  Biso   1.000  C
  H240     1.0000 0.35380  0.76280  0.55660  Biso   1.000  H
  O97      1.0000 0.14080  0.56870  0.87340  Biso   1.000  O
  O98      1.0000 0.00830  0.58980  0.88950  Biso   1.000  O
  O99      1.0000 0.98510  0.41460  0.70990  Biso   1.000  O
  O100     1.0000 0.85140  0.43230  0.72600  Biso   1.000  O
  C289     1.0000 0.06110  0.56540  0.86660  Biso   1.000  C
  C290     1.0000 0.02750  0.53340  0.83120  Biso   1.000  C
  C291     1.0000 0.94240  0.53840  0.81720  Biso   1.000  C
  H241     1.0000 0.90720  0.56230  0.82920  Biso   1.000  H
  C292     1.0000 0.90980  0.50770  0.78520  Biso   1.000  C
  C293     1.0000 0.96230  0.47200  0.76730  Biso   1.000  C
  C294     1.0000 0.04750  0.46700  0.78130  Biso   1.000  C
  H242     1.0000 0.08270  0.44310  0.76940  Biso   1.000  H
  C295     1.0000 0.08010  0.49770  0.81330  Biso   1.000  C
  H243     1.0000 0.13710  0.49440  0.82270  Biso   1.000  H
  C296     1.0000 0.93150  0.43840  0.73250  Biso   1.000  C
  N49      1.0000 0.82100  0.51360  0.77200  Biso   1.000  N
  H244     1.0000 0.78910  0.53570  0.78390  Biso   1.000  H
  H245     1.0000 0.79890  0.49510  0.75230  Biso   1.000  H
  N50      1.0000 0.81580  0.49370  0.79130  Biso   1.000  N
  H246     1.0000 0.78330  0.50940  0.80910  Biso   1.000  H
  H247     1.0000 0.79300  0.47620  0.77110  Biso   1.000  H
  C297     1.0000 0.94080  0.52480  0.82750  Biso   1.000  C
  H248     1.0000 0.90430  0.53870  0.84810  Biso   1.000  H
  C298     1.0000 0.90340  0.49650  0.79490  Biso   1.000  C
  C299     1.0000 0.05090  0.47950  0.77230  Biso   1.000  C
  H249     1.0000 0.08830  0.46360  0.75330  Biso   1.000  H
  C300     1.0000 0.08660  0.50910  0.80370  Biso   1.000  C
  H250     1.0000 0.14620  0.51280  0.80660  Biso   1.000  H
  O101     1.0000 0.14080  0.06870  0.37340  Biso   1.000  O
  O102     1.0000 0.00830  0.08980  0.38950  Biso   1.000  O
  O103     1.0000 0.98510  0.91460  0.20990  Biso   1.000  O
  O104     1.0000 0.85140  0.93230  0.22600  Biso   1.000  O
  C301     1.0000 0.06110  0.06540  0.36660  Biso   1.000  C
  C302     1.0000 0.02750  0.03340  0.33120  Biso   1.000  C
  C303     1.0000 0.94240  0.03840  0.31720  Biso   1.000  C
  H251     1.0000 0.90720  0.06230  0.32920  Biso   1.000  H
  C304     1.0000 0.90980  0.00770  0.28520  Biso   1.000  C
  C305     1.0000 0.96230  0.97200  0.26730  Biso   1.000  C
  C306     1.0000 0.04750  0.96700  0.28130  Biso   1.000  C
  H252     1.0000 0.08270  0.94310  0.26940  Biso   1.000  H
  C307     1.0000 0.08010  0.99770  0.31330  Biso   1.000  C
  H253     1.0000 0.13710  0.99440  0.32270  Biso   1.000  H
  C308     1.0000 0.93150  0.93840  0.23250  Biso   1.000  C
  N51      1.0000 0.82100  0.01360  0.27200  Biso   1.000  N
  H254     1.0000 0.78910  0.03570  0.28390  Biso   1.000  H
  H255     1.0000 0.79890  0.99510  0.25230  Biso   1.000  H
  N52      1.0000 0.81580  0.99370  0.29130  Biso   1.000  N
  H256     1.0000 0.78330  0.00940  0.30910  Biso   1.000  H
  H257     1.0000 0.79300  0.97620  0.27110  Biso   1.000  H
  C309     1.0000 0.94080  0.02480  0.32750  Biso   1.000  C
  H258     1.0000 0.90430  0.03870  0.34810  Biso   1.000  H
  C310     1.0000 0.90340  0.99650  0.29490  Biso   1.000  C
  C311     1.0000 0.05090  0.97950  0.27230  Biso   1.000  C
  H259     1.0000 0.08830  0.96360  0.25330  Biso   1.000  H
  C312     1.0000 0.08660  0.00910  0.30370  Biso   1.000  C
  H260     1.0000 0.14620  0.01280  0.30660  Biso   1.000  H
  O105     1.0000 0.64080  0.56870  0.37340  Biso   1.000  O
  O106     1.0000 0.50830  0.58980  0.38950  Biso   1.000  O
  O107     1.0000 0.48510  0.41460  0.20990  Biso   1.000  O
  O108     1.0000 0.35140  0.43230  0.22600  Biso   1.000  O
  C313     1.0000 0.56110  0.56540  0.36660  Biso   1.000  C
  C314     1.0000 0.52750  0.53340  0.33120  Biso   1.000  C
  C315     1.0000 0.44240  0.53840  0.31720  Biso   1.000  C
  H261     1.0000 0.40720  0.56230  0.32920  Biso   1.000  H
  C316     1.0000 0.40980  0.50770  0.28520  Biso   1.000  C
  C317     1.0000 0.46230  0.47200  0.26730  Biso   1.000  C
  C318     1.0000 0.54750  0.46700  0.28130  Biso   1.000  C
  H262     1.0000 0.58270  0.44310  0.26940  Biso   1.000  H
  C319     1.0000 0.58010  0.49770  0.31330  Biso   1.000  C
  H263     1.0000 0.63710  0.49440  0.32270  Biso   1.000  H
  C320     1.0000 0.43150  0.43840  0.23250  Biso   1.000  C
  N53      1.0000 0.32100  0.51360  0.27200  Biso   1.000  N
  H264     1.0000 0.28910  0.53570  0.28390  Biso   1.000  H
  H265     1.0000 0.29890  0.49510  0.25230  Biso   1.000  H
  N54      1.0000 0.31580  0.49370  0.29130  Biso   1.000  N
  H266     1.0000 0.28330  0.50940  0.30910  Biso   1.000  H
  H267     1.0000 0.29300  0.47620  0.27110  Biso   1.000  H
  C321     1.0000 0.44080  0.52480  0.32750  Biso   1.000  C
  H268     1.0000 0.40430  0.53870  0.34810  Biso   1.000  H
  C322     1.0000 0.40340  0.49650  0.29490  Biso   1.000  C
  C323     1.0000 0.55090  0.47950  0.27230  Biso   1.000  C
  H269     1.0000 0.58830  0.46360  0.25330  Biso   1.000  H
  C324     1.0000 0.58660  0.50910  0.30370  Biso   1.000  C
  H270     1.0000 0.64620  0.51280  0.30660  Biso   1.000  H
  O109     1.0000 0.64080  0.06870  0.87340  Biso   1.000  O
  O110     1.0000 0.50830  0.08980  0.88950  Biso   1.000  O
  O111     1.0000 0.48510  0.91460  0.70990  Biso   1.000  O
  O112     1.0000 0.35140  0.93230  0.72600  Biso   1.000  O
  C325     1.0000 0.56110  0.06540  0.86660  Biso   1.000  C
  C326     1.0000 0.52750  0.03340  0.83120  Biso   1.000  C
  C327     1.0000 0.44240  0.03840  0.81720  Biso   1.000  C
  H271     1.0000 0.40720  0.06230  0.82920  Biso   1.000  H
  C328     1.0000 0.40980  0.00770  0.78520  Biso   1.000  C
  C329     1.0000 0.46230  0.97200  0.76730  Biso   1.000  C
  C330     1.0000 0.54750  0.96700  0.78130  Biso   1.000  C
  H272     1.0000 0.58270  0.94310  0.76940  Biso   1.000  H
  C331     1.0000 0.58010  0.99770  0.81330  Biso   1.000  C
  H273     1.0000 0.63710  0.99440  0.82270  Biso   1.000  H
  C332     1.0000 0.43150  0.93840  0.73250  Biso   1.000  C
  N55      1.0000 0.32100  0.01360  0.77200  Biso   1.000  N
  H274     1.0000 0.28910  0.03570  0.78390  Biso   1.000  H
  H275     1.0000 0.29890  0.99510  0.75230  Biso   1.000  H
  N56      1.0000 0.31580  0.99370  0.79130  Biso   1.000  N
  H276     1.0000 0.28330  0.00940  0.80910  Biso   1.000  H
  H277     1.0000 0.29300  0.97620  0.77110  Biso   1.000  H
  C333     1.0000 0.44080  0.02480  0.82750  Biso   1.000  C
  H278     1.0000 0.40430  0.03870  0.84810  Biso   1.000  H
  C334     1.0000 0.40340  0.99650  0.79490  Biso   1.000  C
  C335     1.0000 0.55090  0.97950  0.77230  Biso   1.000  C
  H279     1.0000 0.58830  0.96360  0.75330  Biso   1.000  H
  C336     1.0000 0.58660  0.00910  0.80370  Biso   1.000  C
  H280     1.0000 0.64620  0.01280  0.80660  Biso   1.000  H
  O113     1.0000 0.10920  0.68130  0.87340  Biso   1.000  O
  O114     1.0000 0.24170  0.66020  0.88950  Biso   1.000  O
  O115     1.0000 0.26490  0.83540  0.70990  Biso   1.000  O
  O116     1.0000 0.39860  0.81770  0.72600  Biso   1.000  O
  C337     1.0000 0.18890  0.68460  0.86660  Biso   1.000  C
  C338     1.0000 0.22250  0.71660  0.83120  Biso   1.000  C
  C339     1.0000 0.30760  0.71160  0.81720  Biso   1.000  C
  H281     1.0000 0.34280  0.68770  0.82920  Biso   1.000  H
  C340     1.0000 0.34020  0.74230  0.78520  Biso   1.000  C
  C341     1.0000 0.28770  0.77800  0.76730  Biso   1.000  C
  C342     1.0000 0.20250  0.78300  0.78130  Biso   1.000  C
  H282     1.0000 0.16730  0.80690  0.76940  Biso   1.000  H
  C343     1.0000 0.16990  0.75230  0.81330  Biso   1.000  C
  H283     1.0000 0.11290  0.75560  0.82270  Biso   1.000  H
  C344     1.0000 0.31850  0.81160  0.73250  Biso   1.000  C
  N57      1.0000 0.42900  0.73640  0.77200  Biso   1.000  N
  H284     1.0000 0.46090  0.71430  0.78390  Biso   1.000  H
  H285     1.0000 0.45110  0.75490  0.75230  Biso   1.000  H
  N58      1.0000 0.43420  0.75630  0.79130  Biso   1.000  N
  H286     1.0000 0.46670  0.74060  0.80910  Biso   1.000  H
  H287     1.0000 0.45700  0.77380  0.77110  Biso   1.000  H
  C345     1.0000 0.30920  0.72520  0.82750  Biso   1.000  C
  H288     1.0000 0.34570  0.71130  0.84810  Biso   1.000  H
  C346     1.0000 0.34660  0.75350  0.79490  Biso   1.000  C
  C347     1.0000 0.19910  0.77050  0.77230  Biso   1.000  C
  H289     1.0000 0.16170  0.78640  0.75330  Biso   1.000  H
  C348     1.0000 0.16340  0.74090  0.80370  Biso   1.000  C
  H290     1.0000 0.10380  0.73720  0.80660  Biso   1.000  H
  O117     1.0000 0.10920  0.18130  0.37340  Biso   1.000  O
  O118     1.0000 0.24170  0.16020  0.38950  Biso   1.000  O
  O119     1.0000 0.26490  0.33540  0.20990  Biso   1.000  O
  O120     1.0000 0.39860  0.31770  0.22600  Biso   1.000  O
  C349     1.0000 0.18890  0.18460  0.36660  Biso   1.000  C
  C350     1.0000 0.22250  0.21660  0.33120  Biso   1.000  C
  C351     1.0000 0.30760  0.21160  0.31720  Biso   1.000  C
  H291     1.0000 0.34280  0.18770  0.32920  Biso   1.000  H
  C352     1.0000 0.34020  0.24230  0.28520  Biso   1.000  C
  C353     1.0000 0.28770  0.27800  0.26730  Biso   1.000  C
  C354     1.0000 0.20250  0.28300  0.28130  Biso   1.000  C
  H292     1.0000 0.16730  0.30690  0.26940  Biso   1.000  H
  C355     1.0000 0.16990  0.25230  0.31330  Biso   1.000  C
  H293     1.0000 0.11290  0.25560  0.32270  Biso   1.000  H
  C356     1.0000 0.31850  0.31160  0.23250  Biso   1.000  C
  N59      1.0000 0.42900  0.23640  0.27200  Biso   1.000  N
  H294     1.0000 0.46090  0.21430  0.28390  Biso   1.000  H
  H295     1.0000 0.45110  0.25490  0.25230  Biso   1.000  H
  N60      1.0000 0.43420  0.25630  0.29130  Biso   1.000  N
  H296     1.0000 0.46670  0.24060  0.30910  Biso   1.000  H
  H297     1.0000 0.45700  0.27380  0.27110  Biso   1.000  H
  C357     1.0000 0.30920  0.22520  0.32750  Biso   1.000  C
  H298     1.0000 0.34570  0.21130  0.34810  Biso   1.000  H
  C358     1.0000 0.34660  0.25350  0.29490  Biso   1.000  C
  C359     1.0000 0.19910  0.27050  0.27230  Biso   1.000  C
  H299     1.0000 0.16170  0.28640  0.25330  Biso   1.000  H
  C360     1.0000 0.16340  0.24090  0.30370  Biso   1.000  C
  H300     1.0000 0.10380  0.23720  0.30660  Biso   1.000  H
  O121     1.0000 0.60920  0.68130  0.37340  Biso   1.000  O
  O122     1.0000 0.74170  0.66020  0.38950  Biso   1.000  O
  O123     1.0000 0.76490  0.83540  0.20990  Biso   1.000  O
  O124     1.0000 0.89860  0.81770  0.22600  Biso   1.000  O
  C361     1.0000 0.68890  0.68460  0.36660  Biso   1.000  C
  C362     1.0000 0.72250  0.71660  0.33120  Biso   1.000  C
  C363     1.0000 0.80760  0.71160  0.31720  Biso   1.000  C
  H301     1.0000 0.84280  0.68770  0.32920  Biso   1.000  H
  C364     1.0000 0.84020  0.74230  0.28520  Biso   1.000  C
  C365     1.0000 0.78770  0.77800  0.26730  Biso   1.000  C
  C366     1.0000 0.70250  0.78300  0.28130  Biso   1.000  C
  H302     1.0000 0.66730  0.80690  0.26940  Biso   1.000  H
  C367     1.0000 0.66990  0.75230  0.31330  Biso   1.000  C
  H303     1.0000 0.61290  0.75560  0.32270  Biso   1.000  H
  C368     1.0000 0.81850  0.81160  0.23250  Biso   1.000  C
  N61      1.0000 0.92900  0.73640  0.27200  Biso   1.000  N
  H304     1.0000 0.96090  0.71430  0.28390  Biso   1.000  H
  H305     1.0000 0.95110  0.75490  0.25230  Biso   1.000  H
  N62      1.0000 0.93420  0.75630  0.29130  Biso   1.000  N
  H306     1.0000 0.96670  0.74060  0.30910  Biso   1.000  H
  H307     1.0000 0.95700  0.77380  0.27110  Biso   1.000  H
  C369     1.0000 0.80920  0.72520  0.32750  Biso   1.000  C
  H308     1.0000 0.84570  0.71130  0.34810  Biso   1.000  H
  C370     1.0000 0.84660  0.75350  0.29490  Biso   1.000  C
  C371     1.0000 0.69910  0.77050  0.27230  Biso   1.000  C
  H309     1.0000 0.66170  0.78640  0.25330  Biso   1.000  H
  C372     1.0000 0.66340  0.74090  0.30370  Biso   1.000  C
  H310     1.0000 0.60380  0.73720  0.30660  Biso   1.000  H
  O125     1.0000 0.60920  0.18130  0.87340  Biso   1.000  O
  O126     1.0000 0.74170  0.16020  0.88950  Biso   1.000  O
  O127     1.0000 0.76490  0.33540  0.70990  Biso   1.000  O
  O128     1.0000 0.89860  0.31770  0.72600  Biso   1.000  O
  C373     1.0000 0.68890  0.18460  0.86660  Biso   1.000  C
  C374     1.0000 0.72250  0.21660  0.83120  Biso   1.000  C
  C375     1.0000 0.80760  0.21160  0.81720  Biso   1.000  C
  H311     1.0000 0.84280  0.18770  0.82920  Biso   1.000  H
  C376     1.0000 0.84020  0.24230  0.78520  Biso   1.000  C
  C377     1.0000 0.78770  0.27800  0.76730  Biso   1.000  C
  C378     1.0000 0.70250  0.28300  0.78130  Biso   1.000  C
  H312     1.0000 0.66730  0.30690  0.76940  Biso   1.000  H
  C379     1.0000 0.66990  0.25230  0.81330  Biso   1.000  C
  H313     1.0000 0.61290  0.25560  0.82270  Biso   1.000  H
  C380     1.0000 0.81850  0.31160  0.73250  Biso   1.000  C
  N63      1.0000 0.92900  0.23640  0.77200  Biso   1.000  N
  H314     1.0000 0.96090  0.21430  0.78390  Biso   1.000  H
  H315     1.0000 0.95110  0.25490  0.75230  Biso   1.000  H
  N64      1.0000 0.93420  0.25630  0.79130  Biso   1.000  N
  H316     1.0000 0.96670  0.24060  0.80910  Biso   1.000  H
  H317     1.0000 0.95700  0.27380  0.77110  Biso   1.000  H
  C381     1.0000 0.80920  0.22520  0.82750  Biso   1.000  C
  H318     1.0000 0.84570  0.21130  0.84810  Biso   1.000  H
  C382     1.0000 0.84660  0.25350  0.79490  Biso   1.000  C
  C383     1.0000 0.69910  0.27050  0.77230  Biso   1.000  C
  H319     1.0000 0.66170  0.28640  0.75330  Biso   1.000  H
  C384     1.0000 0.66340  0.24090  0.80370  Biso   1.000  C
  H320     1.0000 0.60380  0.23720  0.80660  Biso   1.000  H
  In9      1.0000 0.87500  0.37500  0.67582  Biso   1.000  In
  In10     1.0000 0.87500  0.87500  0.17582  Biso   1.000  In
  In11     1.0000 0.37500  0.37500  0.17582  Biso   1.000  In
  In12     1.0000 0.37500  0.87500  0.67582  Biso   1.000  In
  In13     1.0000 0.12500  0.62500  0.92582  Biso   1.000  In
  In14     1.0000 0.12500  0.12500  0.42582  Biso   1.000  In
  In15     1.0000 0.62500  0.62500  0.42582  Biso   1.000  In
  In16     1.0000 0.62500  0.12500  0.92582  Biso   1.000  In
