data_image0
_cell_length_a       15.158
_cell_length_b       22.565
_cell_length_c       34.411
_cell_angle_alpha    90
_cell_angle_beta     90
_cell_angle_gamma    90

_symmetry_space_group_name_H-M    "P 1"
_symmetry_int_tables_number       1

loop_
  _symmetry_equiv_pos_as_xyz
  'x, y, z'

loop_
  _atom_site_label
  _atom_site_occupancy
  _atom_site_fract_x
  _atom_site_fract_y
  _atom_site_fract_z
  _atom_site_thermal_displace_type
  _atom_site_B_iso_or_equiv
  _atom_site_type_symbol
  O1       1.0000 0.39070  0.44460  0.53204  Biso   1.000  O
  O2       1.0000 0.25760  0.41550  0.54429  Biso   1.000  O
  O3       1.0000 0.39730  0.30600  0.62570  Biso   1.000  O
  O4       1.0000 0.26280  0.33210  0.61097  Biso   1.000  O
  C1       1.0000 0.31720  0.30560  0.63320  Biso   1.000  C
  C2       1.0000 0.27930  0.28270  0.67130  Biso   1.000  C
  C3       1.0000 0.19920  0.29320  0.68400  Biso   1.000  C
  C4       1.0000 0.33960  0.24310  0.69270  Biso   1.000  C
  H1       1.0000 0.16130  0.31650  0.66930  Biso   1.000  H
  C5       1.0000 0.17030  0.27020  0.71910  Biso   1.000  C
  C6       1.0000 0.30820  0.21750  0.72620  Biso   1.000  C
  H2       1.0000 0.39660  0.23580  0.68390  Biso   1.000  H
  C7       1.0000 0.22300  0.23060  0.73920  Biso   1.000  C
  N1       1.0000 0.08790  0.28720  0.73010  Biso   1.000  N
  H3       1.0000 0.34360  0.19140  0.74020  Biso   1.000  H
  C8       1.0000 0.18960  0.19470  0.77340  Biso   1.000  C
  H4       1.0000 0.06500  0.27310  0.75100  Biso   1.000  H
  H5       1.0000 0.05880  0.31210  0.71620  Biso   1.000  H
  C9       1.0000 0.21220  0.51900  0.41740  Biso   1.000  C
  H6       1.0000 0.10010  0.49200  0.43780  Biso   1.000  H
  H7       1.0000 0.15190  0.45090  0.49360  Biso   1.000  H
  N2       1.0000 0.42950  0.50320  0.46470  Biso   1.000  N
  H8       1.0000 0.46040  0.52130  0.44750  Biso   1.000  H
  H9       1.0000 0.45480  0.48840  0.48490  Biso   1.000  H
  C10      1.0000 0.33830  0.49780  0.46000  Biso   1.000  C
  C11      1.0000 0.30410  0.52290  0.42670  Biso   1.000  C
  H10      1.0000 0.34170  0.54290  0.40990  Biso   1.000  H
  C12      1.0000 0.28170  0.46550  0.48500  Biso   1.000  C
  O5       1.0000 0.39070  0.94460  0.03204  Biso   1.000  O
  O6       1.0000 0.25760  0.91550  0.04429  Biso   1.000  O
  O7       1.0000 0.39730  0.80600  0.12570  Biso   1.000  O
  O8       1.0000 0.26280  0.83210  0.11097  Biso   1.000  O
  C13      1.0000 0.31720  0.80560  0.13320  Biso   1.000  C
  C14      1.0000 0.27930  0.78270  0.17130  Biso   1.000  C
  C15      1.0000 0.19920  0.79320  0.18400  Biso   1.000  C
  C16      1.0000 0.33960  0.74310  0.19270  Biso   1.000  C
  H11      1.0000 0.16130  0.81650  0.16930  Biso   1.000  H
  C17      1.0000 0.17030  0.77020  0.21910  Biso   1.000  C
  C18      1.0000 0.30820  0.71750  0.22620  Biso   1.000  C
  H12      1.0000 0.39660  0.73580  0.18390  Biso   1.000  H
  C19      1.0000 0.22300  0.73060  0.23920  Biso   1.000  C
  N3       1.0000 0.08790  0.78720  0.23010  Biso   1.000  N
  H13      1.0000 0.34360  0.69140  0.24020  Biso   1.000  H
  C20      1.0000 0.18960  0.69470  0.27340  Biso   1.000  C
  H14      1.0000 0.06500  0.77310  0.25100  Biso   1.000  H
  H15      1.0000 0.05880  0.81210  0.21620  Biso   1.000  H
  C21      1.0000 0.21220  0.01900  0.91740  Biso   1.000  C
  H16      1.0000 0.10010  0.99200  0.93780  Biso   1.000  H
  H17      1.0000 0.15190  0.95090  0.99360  Biso   1.000  H
  N4       1.0000 0.42950  0.00320  0.96470  Biso   1.000  N
  H18      1.0000 0.46040  0.02130  0.94750  Biso   1.000  H
  H19      1.0000 0.45480  0.98840  0.98490  Biso   1.000  H
  C22      1.0000 0.33830  0.99780  0.96000  Biso   1.000  C
  C23      1.0000 0.30410  0.02290  0.92670  Biso   1.000  C
  H20      1.0000 0.34170  0.04290  0.90990  Biso   1.000  H
  C24      1.0000 0.28170  0.96550  0.98500  Biso   1.000  C
  O9       1.0000 0.89070  0.44460  0.03204  Biso   1.000  O
  O10      1.0000 0.75760  0.41550  0.04429  Biso   1.000  O
  O11      1.0000 0.89730  0.30600  0.12570  Biso   1.000  O
  O12      1.0000 0.76280  0.33210  0.11097  Biso   1.000  O
  C25      1.0000 0.81720  0.30560  0.13320  Biso   1.000  C
  C26      1.0000 0.77930  0.28270  0.17130  Biso   1.000  C
  C27      1.0000 0.69920  0.29320  0.18400  Biso   1.000  C
  C28      1.0000 0.83960  0.24310  0.19270  Biso   1.000  C
  H21      1.0000 0.66130  0.31650  0.16930  Biso   1.000  H
  C29      1.0000 0.67030  0.27020  0.21910  Biso   1.000  C
  C30      1.0000 0.80820  0.21750  0.22620  Biso   1.000  C
  H22      1.0000 0.89660  0.23580  0.18390  Biso   1.000  H
  C31      1.0000 0.72300  0.23060  0.23920  Biso   1.000  C
  N5       1.0000 0.58790  0.28720  0.23010  Biso   1.000  N
  H23      1.0000 0.84360  0.19140  0.24020  Biso   1.000  H
  C32      1.0000 0.68960  0.19470  0.27340  Biso   1.000  C
  H24      1.0000 0.56500  0.27310  0.25100  Biso   1.000  H
  H25      1.0000 0.55880  0.31210  0.21620  Biso   1.000  H
  C33      1.0000 0.71220  0.51900  0.91740  Biso   1.000  C
  H26      1.0000 0.60010  0.49200  0.93780  Biso   1.000  H
  H27      1.0000 0.65190  0.45090  0.99360  Biso   1.000  H
  N6       1.0000 0.92950  0.50320  0.96470  Biso   1.000  N
  H28      1.0000 0.96040  0.52130  0.94750  Biso   1.000  H
  H29      1.0000 0.95480  0.48840  0.98490  Biso   1.000  H
  C34      1.0000 0.83830  0.49780  0.96000  Biso   1.000  C
  C35      1.0000 0.80410  0.52290  0.92670  Biso   1.000  C
  H30      1.0000 0.84170  0.54290  0.90990  Biso   1.000  H
  C36      1.0000 0.78170  0.46550  0.98500  Biso   1.000  C
  O13      1.0000 0.89070  0.94460  0.53204  Biso   1.000  O
  O14      1.0000 0.75760  0.91550  0.54429  Biso   1.000  O
  O15      1.0000 0.89730  0.80600  0.62570  Biso   1.000  O
  O16      1.0000 0.76280  0.83210  0.61097  Biso   1.000  O
  C37      1.0000 0.81720  0.80560  0.63320  Biso   1.000  C
  C38      1.0000 0.77930  0.78270  0.67130  Biso   1.000  C
  C39      1.0000 0.69920  0.79320  0.68400  Biso   1.000  C
  C40      1.0000 0.83960  0.74310  0.69270  Biso   1.000  C
  H31      1.0000 0.66130  0.81650  0.66930  Biso   1.000  H
  C41      1.0000 0.67030  0.77020  0.71910  Biso   1.000  C
  C42      1.0000 0.80820  0.71750  0.72620  Biso   1.000  C
  H32      1.0000 0.89660  0.73580  0.68390  Biso   1.000  H
  C43      1.0000 0.72300  0.73060  0.73920  Biso   1.000  C
  N7       1.0000 0.58790  0.78720  0.73010  Biso   1.000  N
  H33      1.0000 0.84360  0.69140  0.74020  Biso   1.000  H
  C44      1.0000 0.68960  0.69470  0.77340  Biso   1.000  C
  H34      1.0000 0.56500  0.77310  0.75100  Biso   1.000  H
  H35      1.0000 0.55880  0.81210  0.71620  Biso   1.000  H
  C45      1.0000 0.71220  0.01900  0.41740  Biso   1.000  C
  H36      1.0000 0.60010  0.99200  0.43780  Biso   1.000  H
  H37      1.0000 0.65190  0.95090  0.49360  Biso   1.000  H
  N8       1.0000 0.92950  0.00320  0.46470  Biso   1.000  N
  H38      1.0000 0.96040  0.02130  0.44750  Biso   1.000  H
  H39      1.0000 0.95480  0.98840  0.48490  Biso   1.000  H
  C46      1.0000 0.83830  0.99780  0.46000  Biso   1.000  C
  C47      1.0000 0.80410  0.02290  0.42670  Biso   1.000  C
  H40      1.0000 0.84170  0.04290  0.40990  Biso   1.000  H
  C48      1.0000 0.78170  0.96550  0.48500  Biso   1.000  C
  O17      1.0000 0.35930  0.30540  0.53204  Biso   1.000  O
  O18      1.0000 0.49240  0.33450  0.54429  Biso   1.000  O
  O19      1.0000 0.35270  0.44400  0.62570  Biso   1.000  O
  O20      1.0000 0.48720  0.41790  0.61097  Biso   1.000  O
  C49      1.0000 0.43280  0.44440  0.63320  Biso   1.000  C
  C50      1.0000 0.47070  0.46730  0.67130  Biso   1.000  C
  C51      1.0000 0.55080  0.45680  0.68400  Biso   1.000  C
  C52      1.0000 0.41040  0.50690  0.69270  Biso   1.000  C
  H41      1.0000 0.58870  0.43350  0.66930  Biso   1.000  H
  C53      1.0000 0.57970  0.47980  0.71910  Biso   1.000  C
  C54      1.0000 0.44180  0.53250  0.72620  Biso   1.000  C
  H42      1.0000 0.35340  0.51420  0.68390  Biso   1.000  H
  C55      1.0000 0.52700  0.51940  0.73920  Biso   1.000  C
  N9       1.0000 0.66210  0.46280  0.73010  Biso   1.000  N
  H43      1.0000 0.40640  0.55860  0.74020  Biso   1.000  H
  C56      1.0000 0.56040  0.55530  0.77340  Biso   1.000  C
  H44      1.0000 0.68500  0.47690  0.75100  Biso   1.000  H
  H45      1.0000 0.69120  0.43790  0.71620  Biso   1.000  H
  C57      1.0000 0.53780  0.23100  0.41740  Biso   1.000  C
  H46      1.0000 0.64990  0.25800  0.43780  Biso   1.000  H
  H47      1.0000 0.59810  0.29910  0.49360  Biso   1.000  H
  N10      1.0000 0.32050  0.24680  0.46470  Biso   1.000  N
  H48      1.0000 0.28960  0.22870  0.44750  Biso   1.000  H
  H49      1.0000 0.29520  0.26160  0.48490  Biso   1.000  H
  C58      1.0000 0.41170  0.25220  0.46000  Biso   1.000  C
  C59      1.0000 0.44590  0.22710  0.42670  Biso   1.000  C
  H50      1.0000 0.40830  0.20710  0.40990  Biso   1.000  H
  C60      1.0000 0.46830  0.28450  0.48500  Biso   1.000  C
  O21      1.0000 0.35930  0.80540  0.03204  Biso   1.000  O
  O22      1.0000 0.49240  0.83450  0.04429  Biso   1.000  O
  O23      1.0000 0.35270  0.94400  0.12570  Biso   1.000  O
  O24      1.0000 0.48720  0.91790  0.11097  Biso   1.000  O
  C61      1.0000 0.43280  0.94440  0.13320  Biso   1.000  C
  C62      1.0000 0.47070  0.96730  0.17130  Biso   1.000  C
  C63      1.0000 0.55080  0.95680  0.18400  Biso   1.000  C
  C64      1.0000 0.41040  0.00690  0.19270  Biso   1.000  C
  H51      1.0000 0.58870  0.93350  0.16930  Biso   1.000  H
  C65      1.0000 0.57970  0.97980  0.21910  Biso   1.000  C
  C66      1.0000 0.44180  0.03250  0.22620  Biso   1.000  C
  H52      1.0000 0.35340  0.01420  0.18390  Biso   1.000  H
  C67      1.0000 0.52700  0.01940  0.23920  Biso   1.000  C
  N11      1.0000 0.66210  0.96280  0.23010  Biso   1.000  N
  H53      1.0000 0.40640  0.05860  0.24020  Biso   1.000  H
  C68      1.0000 0.56040  0.05530  0.27340  Biso   1.000  C
  H54      1.0000 0.68500  0.97690  0.25100  Biso   1.000  H
  H55      1.0000 0.69120  0.93790  0.21620  Biso   1.000  H
  C69      1.0000 0.53780  0.73100  0.91740  Biso   1.000  C
  H56      1.0000 0.64990  0.75800  0.93780  Biso   1.000  H
  H57      1.0000 0.59810  0.79910  0.99360  Biso   1.000  H
  N12      1.0000 0.32050  0.74680  0.96470  Biso   1.000  N
  H58      1.0000 0.28960  0.72870  0.94750  Biso   1.000  H
  H59      1.0000 0.29520  0.76160  0.98490  Biso   1.000  H
  C70      1.0000 0.41170  0.75220  0.96000  Biso   1.000  C
  C71      1.0000 0.44590  0.72710  0.92670  Biso   1.000  C
  H60      1.0000 0.40830  0.70710  0.90990  Biso   1.000  H
  C72      1.0000 0.46830  0.78450  0.98500  Biso   1.000  C
  O25      1.0000 0.85930  0.30540  0.03204  Biso   1.000  O
  O26      1.0000 0.99240  0.33450  0.04429  Biso   1.000  O
  O27      1.0000 0.85270  0.44400  0.12570  Biso   1.000  O
  O28      1.0000 0.98720  0.41790  0.11097  Biso   1.000  O
  C73      1.0000 0.93280  0.44440  0.13320  Biso   1.000  C
  C74      1.0000 0.97070  0.46730  0.17130  Biso   1.000  C
  C75      1.0000 0.05080  0.45680  0.18400  Biso   1.000  C
  C76      1.0000 0.91040  0.50690  0.19270  Biso   1.000  C
  H61      1.0000 0.08870  0.43350  0.16930  Biso   1.000  H
  C77      1.0000 0.07970  0.47980  0.21910  Biso   1.000  C
  C78      1.0000 0.94180  0.53250  0.22620  Biso   1.000  C
  H62      1.0000 0.85340  0.51420  0.18390  Biso   1.000  H
  C79      1.0000 0.02700  0.51940  0.23920  Biso   1.000  C
  N13      1.0000 0.16210  0.46280  0.23010  Biso   1.000  N
  H63      1.0000 0.90640  0.55860  0.24020  Biso   1.000  H
  C80      1.0000 0.06040  0.55530  0.27340  Biso   1.000  C
  H64      1.0000 0.18500  0.47690  0.25100  Biso   1.000  H
  H65      1.0000 0.19120  0.43790  0.21620  Biso   1.000  H
  C81      1.0000 0.03780  0.23100  0.91740  Biso   1.000  C
  H66      1.0000 0.14990  0.25800  0.93780  Biso   1.000  H
  H67      1.0000 0.09810  0.29910  0.99360  Biso   1.000  H
  N14      1.0000 0.82050  0.24680  0.96470  Biso   1.000  N
  H68      1.0000 0.78960  0.22870  0.94750  Biso   1.000  H
  H69      1.0000 0.79520  0.26160  0.98490  Biso   1.000  H
  C82      1.0000 0.91170  0.25220  0.96000  Biso   1.000  C
  C83      1.0000 0.94590  0.22710  0.92670  Biso   1.000  C
  H70      1.0000 0.90830  0.20710  0.90990  Biso   1.000  H
  C84      1.0000 0.96830  0.28450  0.98500  Biso   1.000  C
  O29      1.0000 0.85930  0.80540  0.53204  Biso   1.000  O
  O30      1.0000 0.99240  0.83450  0.54429  Biso   1.000  O
  O31      1.0000 0.85270  0.94400  0.62570  Biso   1.000  O
  O32      1.0000 0.98720  0.91790  0.61097  Biso   1.000  O
  C85      1.0000 0.93280  0.94440  0.63320  Biso   1.000  C
  C86      1.0000 0.97070  0.96730  0.67130  Biso   1.000  C
  C87      1.0000 0.05080  0.95680  0.68400  Biso   1.000  C
  C88      1.0000 0.91040  0.00690  0.69270  Biso   1.000  C
  H71      1.0000 0.08870  0.93350  0.66930  Biso   1.000  H
  C89      1.0000 0.07970  0.97980  0.71910  Biso   1.000  C
  C90      1.0000 0.94180  0.03250  0.72620  Biso   1.000  C
  H72      1.0000 0.85340  0.01420  0.68390  Biso   1.000  H
  C91      1.0000 0.02700  0.01940  0.73920  Biso   1.000  C
  N15      1.0000 0.16210  0.96280  0.73010  Biso   1.000  N
  H73      1.0000 0.90640  0.05860  0.74020  Biso   1.000  H
  C92      1.0000 0.06040  0.05530  0.77340  Biso   1.000  C
  H74      1.0000 0.18500  0.97690  0.75100  Biso   1.000  H
  H75      1.0000 0.19120  0.93790  0.71620  Biso   1.000  H
  C93      1.0000 0.03780  0.73100  0.41740  Biso   1.000  C
  H76      1.0000 0.14990  0.75800  0.43780  Biso   1.000  H
  H77      1.0000 0.09810  0.79910  0.49360  Biso   1.000  H
  N16      1.0000 0.82050  0.74680  0.46470  Biso   1.000  N
  H78      1.0000 0.78960  0.72870  0.44750  Biso   1.000  H
  H79      1.0000 0.79520  0.76160  0.48490  Biso   1.000  H
  C94      1.0000 0.91170  0.75220  0.46000  Biso   1.000  C
  C95      1.0000 0.94590  0.72710  0.42670  Biso   1.000  C
  H80      1.0000 0.90830  0.70710  0.40990  Biso   1.000  H
  C96      1.0000 0.96830  0.78450  0.48500  Biso   1.000  C
  O33      1.0000 0.64070  0.55540  0.78204  Biso   1.000  O
  O34      1.0000 0.50760  0.58450  0.79429  Biso   1.000  O
  O35      1.0000 0.64730  0.69400  0.87570  Biso   1.000  O
  O36      1.0000 0.51280  0.66790  0.86097  Biso   1.000  O
  C97      1.0000 0.56720  0.69440  0.88320  Biso   1.000  C
  C98      1.0000 0.52930  0.71730  0.92130  Biso   1.000  C
  C99      1.0000 0.44920  0.70680  0.93400  Biso   1.000  C
  C100     1.0000 0.58960  0.75690  0.94270  Biso   1.000  C
  H81      1.0000 0.41130  0.68350  0.91930  Biso   1.000  H
  C101     1.0000 0.42030  0.72980  0.96910  Biso   1.000  C
  C102     1.0000 0.55820  0.78250  0.97620  Biso   1.000  C
  H82      1.0000 0.64660  0.76420  0.93390  Biso   1.000  H
  C103     1.0000 0.47300  0.76940  0.98920  Biso   1.000  C
  N17      1.0000 0.33790  0.71280  0.98010  Biso   1.000  N
  H83      1.0000 0.59360  0.80860  0.99020  Biso   1.000  H
  C104     1.0000 0.43960  0.80530  0.02340  Biso   1.000  C
  H84      1.0000 0.31500  0.72690  0.00100  Biso   1.000  H
  H85      1.0000 0.30880  0.68790  0.96620  Biso   1.000  H
  C105     1.0000 0.46220  0.48100  0.66740  Biso   1.000  C
  H86      1.0000 0.35010  0.50800  0.68780  Biso   1.000  H
  H87      1.0000 0.40190  0.54910  0.74360  Biso   1.000  H
  N18      1.0000 0.67950  0.49680  0.71470  Biso   1.000  N
  H88      1.0000 0.71040  0.47870  0.69750  Biso   1.000  H
  H89      1.0000 0.70480  0.51160  0.73490  Biso   1.000  H
  C106     1.0000 0.58830  0.50220  0.71000  Biso   1.000  C
  C107     1.0000 0.55410  0.47710  0.67670  Biso   1.000  C
  H90      1.0000 0.59170  0.45710  0.65990  Biso   1.000  H
  C108     1.0000 0.53170  0.53450  0.73500  Biso   1.000  C
  O37      1.0000 0.64070  0.05540  0.28204  Biso   1.000  O
  O38      1.0000 0.50760  0.08450  0.29429  Biso   1.000  O
  O39      1.0000 0.64730  0.19400  0.37570  Biso   1.000  O
  O40      1.0000 0.51280  0.16790  0.36097  Biso   1.000  O
  C109     1.0000 0.56720  0.19440  0.38320  Biso   1.000  C
  C110     1.0000 0.52930  0.21730  0.42130  Biso   1.000  C
  C111     1.0000 0.44920  0.20680  0.43400  Biso   1.000  C
  C112     1.0000 0.58960  0.25690  0.44270  Biso   1.000  C
  H91      1.0000 0.41130  0.18350  0.41930  Biso   1.000  H
  C113     1.0000 0.42030  0.22980  0.46910  Biso   1.000  C
  C114     1.0000 0.55820  0.28250  0.47620  Biso   1.000  C
  H92      1.0000 0.64660  0.26420  0.43390  Biso   1.000  H
  C115     1.0000 0.47300  0.26940  0.48920  Biso   1.000  C
  N19      1.0000 0.33790  0.21280  0.48010  Biso   1.000  N
  H93      1.0000 0.59360  0.30860  0.49020  Biso   1.000  H
  C116     1.0000 0.43960  0.30530  0.52340  Biso   1.000  C
  H94      1.0000 0.31500  0.22690  0.50100  Biso   1.000  H
  H95      1.0000 0.30880  0.18790  0.46620  Biso   1.000  H
  C117     1.0000 0.46220  0.98100  0.16740  Biso   1.000  C
  H96      1.0000 0.35010  0.00800  0.18780  Biso   1.000  H
  H97      1.0000 0.40190  0.04910  0.24360  Biso   1.000  H
  N20      1.0000 0.67950  0.99680  0.21470  Biso   1.000  N
  H98      1.0000 0.71040  0.97870  0.19750  Biso   1.000  H
  H99      1.0000 0.70480  0.01160  0.23490  Biso   1.000  H
  C118     1.0000 0.58830  0.00220  0.21000  Biso   1.000  C
  C119     1.0000 0.55410  0.97710  0.17670  Biso   1.000  C
  H100     1.0000 0.59170  0.95710  0.15990  Biso   1.000  H
  C120     1.0000 0.53170  0.03450  0.23500  Biso   1.000  C
  O41      1.0000 0.14070  0.55540  0.28204  Biso   1.000  O
  O42      1.0000 0.00760  0.58450  0.29429  Biso   1.000  O
  O43      1.0000 0.14730  0.69400  0.37570  Biso   1.000  O
  O44      1.0000 0.01280  0.66790  0.36097  Biso   1.000  O
  C121     1.0000 0.06720  0.69440  0.38320  Biso   1.000  C
  C122     1.0000 0.02930  0.71730  0.42130  Biso   1.000  C
  C123     1.0000 0.94920  0.70680  0.43400  Biso   1.000  C
  C124     1.0000 0.08960  0.75690  0.44270  Biso   1.000  C
  H101     1.0000 0.91130  0.68350  0.41930  Biso   1.000  H
  C125     1.0000 0.92030  0.72980  0.46910  Biso   1.000  C
  C126     1.0000 0.05820  0.78250  0.47620  Biso   1.000  C
  H102     1.0000 0.14660  0.76420  0.43390  Biso   1.000  H
  C127     1.0000 0.97300  0.76940  0.48920  Biso   1.000  C
  N21      1.0000 0.83790  0.71280  0.48010  Biso   1.000  N
  H103     1.0000 0.09360  0.80860  0.49020  Biso   1.000  H
  C128     1.0000 0.93960  0.80530  0.52340  Biso   1.000  C
  H104     1.0000 0.81500  0.72690  0.50100  Biso   1.000  H
  H105     1.0000 0.80880  0.68790  0.46620  Biso   1.000  H
  C129     1.0000 0.96220  0.48100  0.16740  Biso   1.000  C
  H106     1.0000 0.85010  0.50800  0.18780  Biso   1.000  H
  H107     1.0000 0.90190  0.54910  0.24360  Biso   1.000  H
  N22      1.0000 0.17950  0.49680  0.21470  Biso   1.000  N
  H108     1.0000 0.21040  0.47870  0.19750  Biso   1.000  H
  H109     1.0000 0.20480  0.51160  0.23490  Biso   1.000  H
  C130     1.0000 0.08830  0.50220  0.21000  Biso   1.000  C
  C131     1.0000 0.05410  0.47710  0.17670  Biso   1.000  C
  H110     1.0000 0.09170  0.45710  0.15990  Biso   1.000  H
  C132     1.0000 0.03170  0.53450  0.23500  Biso   1.000  C
  O45      1.0000 0.14070  0.05540  0.78204  Biso   1.000  O
  O46      1.0000 0.00760  0.08450  0.79429  Biso   1.000  O
  O47      1.0000 0.14730  0.19400  0.87570  Biso   1.000  O
  O48      1.0000 0.01280  0.16790  0.86097  Biso   1.000  O
  C133     1.0000 0.06720  0.19440  0.88320  Biso   1.000  C
  C134     1.0000 0.02930  0.21730  0.92130  Biso   1.000  C
  C135     1.0000 0.94920  0.20680  0.93400  Biso   1.000  C
  C136     1.0000 0.08960  0.25690  0.94270  Biso   1.000  C
  H111     1.0000 0.91130  0.18350  0.91930  Biso   1.000  H
  C137     1.0000 0.92030  0.22980  0.96910  Biso   1.000  C
  C138     1.0000 0.05820  0.28250  0.97620  Biso   1.000  C
  H112     1.0000 0.14660  0.26420  0.93390  Biso   1.000  H
  C139     1.0000 0.97300  0.26940  0.98920  Biso   1.000  C
  N23      1.0000 0.83790  0.21280  0.98010  Biso   1.000  N
  H113     1.0000 0.09360  0.30860  0.99020  Biso   1.000  H
  C140     1.0000 0.93960  0.30530  0.02340  Biso   1.000  C
  H114     1.0000 0.81500  0.22690  0.00100  Biso   1.000  H
  H115     1.0000 0.80880  0.18790  0.96620  Biso   1.000  H
  C141     1.0000 0.96220  0.98100  0.66740  Biso   1.000  C
  H116     1.0000 0.85010  0.00800  0.68780  Biso   1.000  H
  H117     1.0000 0.90190  0.04910  0.74360  Biso   1.000  H
  N24      1.0000 0.17950  0.99680  0.71470  Biso   1.000  N
  H118     1.0000 0.21040  0.97870  0.69750  Biso   1.000  H
  H119     1.0000 0.20480  0.01160  0.73490  Biso   1.000  H
  C142     1.0000 0.08830  0.00220  0.71000  Biso   1.000  C
  C143     1.0000 0.05410  0.97710  0.67670  Biso   1.000  C
  H120     1.0000 0.09170  0.95710  0.65990  Biso   1.000  H
  C144     1.0000 0.03170  0.03450  0.73500  Biso   1.000  C
  O49      1.0000 0.60930  0.69460  0.78204  Biso   1.000  O
  O50      1.0000 0.74240  0.66550  0.79429  Biso   1.000  O
  O51      1.0000 0.60270  0.55600  0.87570  Biso   1.000  O
  O52      1.0000 0.73720  0.58210  0.86097  Biso   1.000  O
  C145     1.0000 0.68280  0.55560  0.88320  Biso   1.000  C
  C146     1.0000 0.72070  0.53270  0.92130  Biso   1.000  C
  C147     1.0000 0.80080  0.54320  0.93400  Biso   1.000  C
  C148     1.0000 0.66040  0.49310  0.94270  Biso   1.000  C
  H121     1.0000 0.83870  0.56650  0.91930  Biso   1.000  H
  C149     1.0000 0.82970  0.52020  0.96910  Biso   1.000  C
  C150     1.0000 0.69180  0.46750  0.97620  Biso   1.000  C
  H122     1.0000 0.60340  0.48580  0.93390  Biso   1.000  H
  C151     1.0000 0.77700  0.48060  0.98920  Biso   1.000  C
  N25      1.0000 0.91210  0.53720  0.98010  Biso   1.000  N
  H123     1.0000 0.65640  0.44140  0.99020  Biso   1.000  H
  C152     1.0000 0.81040  0.44470  0.02340  Biso   1.000  C
  H124     1.0000 0.93500  0.52310  0.00100  Biso   1.000  H
  H125     1.0000 0.94120  0.56210  0.96620  Biso   1.000  H
  C153     1.0000 0.78780  0.76900  0.66740  Biso   1.000  C
  H126     1.0000 0.89990  0.74200  0.68780  Biso   1.000  H
  H127     1.0000 0.84810  0.70090  0.74360  Biso   1.000  H
  N26      1.0000 0.57050  0.75320  0.71470  Biso   1.000  N
  H128     1.0000 0.53960  0.77130  0.69750  Biso   1.000  H
  H129     1.0000 0.54520  0.73840  0.73490  Biso   1.000  H
  C154     1.0000 0.66170  0.74780  0.71000  Biso   1.000  C
  C155     1.0000 0.69590  0.77290  0.67670  Biso   1.000  C
  H130     1.0000 0.65830  0.79290  0.65990  Biso   1.000  H
  C156     1.0000 0.71830  0.71550  0.73500  Biso   1.000  C
  O53      1.0000 0.60930  0.19460  0.28204  Biso   1.000  O
  O54      1.0000 0.74240  0.16550  0.29429  Biso   1.000  O
  O55      1.0000 0.60270  0.05600  0.37570  Biso   1.000  O
  O56      1.0000 0.73720  0.08210  0.36097  Biso   1.000  O
  C157     1.0000 0.68280  0.05560  0.38320  Biso   1.000  C
  C158     1.0000 0.72070  0.03270  0.42130  Biso   1.000  C
  C159     1.0000 0.80080  0.04320  0.43400  Biso   1.000  C
  C160     1.0000 0.66040  0.99310  0.44270  Biso   1.000  C
  H131     1.0000 0.83870  0.06650  0.41930  Biso   1.000  H
  C161     1.0000 0.82970  0.02020  0.46910  Biso   1.000  C
  C162     1.0000 0.69180  0.96750  0.47620  Biso   1.000  C
  H132     1.0000 0.60340  0.98580  0.43390  Biso   1.000  H
  C163     1.0000 0.77700  0.98060  0.48920  Biso   1.000  C
  N27      1.0000 0.91210  0.03720  0.48010  Biso   1.000  N
  H133     1.0000 0.65640  0.94140  0.49020  Biso   1.000  H
  C164     1.0000 0.81040  0.94470  0.52340  Biso   1.000  C
  H134     1.0000 0.93500  0.02310  0.50100  Biso   1.000  H
  H135     1.0000 0.94120  0.06210  0.46620  Biso   1.000  H
  C165     1.0000 0.78780  0.26900  0.16740  Biso   1.000  C
  H136     1.0000 0.89990  0.24200  0.18780  Biso   1.000  H
  H137     1.0000 0.84810  0.20090  0.24360  Biso   1.000  H
  N28      1.0000 0.57050  0.25320  0.21470  Biso   1.000  N
  H138     1.0000 0.53960  0.27130  0.19750  Biso   1.000  H
  H139     1.0000 0.54520  0.23840  0.23490  Biso   1.000  H
  C166     1.0000 0.66170  0.24780  0.21000  Biso   1.000  C
  C167     1.0000 0.69590  0.27290  0.17670  Biso   1.000  C
  H140     1.0000 0.65830  0.29290  0.15990  Biso   1.000  H
  C168     1.0000 0.71830  0.21550  0.23500  Biso   1.000  C
  O57      1.0000 0.10930  0.69460  0.28204  Biso   1.000  O
  O58      1.0000 0.24240  0.66550  0.29429  Biso   1.000  O
  O59      1.0000 0.10270  0.55600  0.37570  Biso   1.000  O
  O60      1.0000 0.23720  0.58210  0.36097  Biso   1.000  O
  C169     1.0000 0.18280  0.55560  0.38320  Biso   1.000  C
  C170     1.0000 0.22070  0.53270  0.42130  Biso   1.000  C
  C171     1.0000 0.30080  0.54320  0.43400  Biso   1.000  C
  C172     1.0000 0.16040  0.49310  0.44270  Biso   1.000  C
  H141     1.0000 0.33870  0.56650  0.41930  Biso   1.000  H
  C173     1.0000 0.32970  0.52020  0.46910  Biso   1.000  C
  C174     1.0000 0.19180  0.46750  0.47620  Biso   1.000  C
  H142     1.0000 0.10340  0.48580  0.43390  Biso   1.000  H
  C175     1.0000 0.27700  0.48060  0.48920  Biso   1.000  C
  N29      1.0000 0.41210  0.53720  0.48010  Biso   1.000  N
  H143     1.0000 0.15640  0.44140  0.49020  Biso   1.000  H
  C176     1.0000 0.31040  0.44470  0.52340  Biso   1.000  C
  H144     1.0000 0.43500  0.52310  0.50100  Biso   1.000  H
  H145     1.0000 0.44120  0.56210  0.46620  Biso   1.000  H
  C177     1.0000 0.28780  0.76900  0.16740  Biso   1.000  C
  H146     1.0000 0.39990  0.74200  0.18780  Biso   1.000  H
  H147     1.0000 0.34810  0.70090  0.24360  Biso   1.000  H
  N30      1.0000 0.07050  0.75320  0.21470  Biso   1.000  N
  H148     1.0000 0.03960  0.77130  0.19750  Biso   1.000  H
  H149     1.0000 0.04520  0.73840  0.23490  Biso   1.000  H
  C178     1.0000 0.16170  0.74780  0.21000  Biso   1.000  C
  C179     1.0000 0.19590  0.77290  0.17670  Biso   1.000  C
  H150     1.0000 0.15830  0.79290  0.15990  Biso   1.000  H
  C180     1.0000 0.21830  0.71550  0.23500  Biso   1.000  C
  O61      1.0000 0.10930  0.19460  0.78204  Biso   1.000  O
  O62      1.0000 0.24240  0.16550  0.79429  Biso   1.000  O
  O63      1.0000 0.10270  0.05600  0.87570  Biso   1.000  O
  O64      1.0000 0.23720  0.08210  0.86097  Biso   1.000  O
  C181     1.0000 0.18280  0.05560  0.88320  Biso   1.000  C
  C182     1.0000 0.22070  0.03270  0.92130  Biso   1.000  C
  C183     1.0000 0.30080  0.04320  0.93400  Biso   1.000  C
  C184     1.0000 0.16040  0.99310  0.94270  Biso   1.000  C
  H151     1.0000 0.33870  0.06650  0.91930  Biso   1.000  H
  C185     1.0000 0.32970  0.02020  0.96910  Biso   1.000  C
  C186     1.0000 0.19180  0.96750  0.97620  Biso   1.000  C
  H152     1.0000 0.10340  0.98580  0.93390  Biso   1.000  H
  C187     1.0000 0.27700  0.98060  0.98920  Biso   1.000  C
  N31      1.0000 0.41210  0.03720  0.98010  Biso   1.000  N
  H153     1.0000 0.15640  0.94140  0.99020  Biso   1.000  H
  C188     1.0000 0.31040  0.94470  0.02340  Biso   1.000  C
  H154     1.0000 0.43500  0.02310  0.00100  Biso   1.000  H
  H155     1.0000 0.44120  0.06210  0.96620  Biso   1.000  H
  C189     1.0000 0.28780  0.26900  0.66740  Biso   1.000  C
  H156     1.0000 0.39990  0.24200  0.68780  Biso   1.000  H
  H157     1.0000 0.34810  0.20090  0.74360  Biso   1.000  H
  N32      1.0000 0.07050  0.25320  0.71470  Biso   1.000  N
  H158     1.0000 0.03960  0.27130  0.69750  Biso   1.000  H
  H159     1.0000 0.04520  0.23840  0.73490  Biso   1.000  H
  C190     1.0000 0.16170  0.24780  0.71000  Biso   1.000  C
  C191     1.0000 0.19590  0.27290  0.67670  Biso   1.000  C
  H160     1.0000 0.15830  0.29290  0.65990  Biso   1.000  H
  C192     1.0000 0.21830  0.21550  0.73500  Biso   1.000  C
  In1      1.0000 0.37500  0.37500  0.57776  Biso   1.000  In
  In2      1.0000 0.37500  0.87500  0.07776  Biso   1.000  In
  In3      1.0000 0.87500  0.37500  0.07776  Biso   1.000  In
  In4      1.0000 0.87500  0.87500  0.57776  Biso   1.000  In
  In5      1.0000 0.62500  0.62500  0.82776  Biso   1.000  In
  In6      1.0000 0.62500  0.12500  0.32776  Biso   1.000  In
  In7      1.0000 0.12500  0.62500  0.32776  Biso   1.000  In
  In8      1.0000 0.12500  0.12500  0.82776  Biso   1.000  In
  O65      1.0000 0.35930  0.44460  0.21796  Biso   1.000  O
  O66      1.0000 0.49240  0.41550  0.20571  Biso   1.000  O
  O67      1.0000 0.35270  0.30600  0.12430  Biso   1.000  O
  O68      1.0000 0.48720  0.33210  0.13903  Biso   1.000  O
  C193     1.0000 0.43280  0.30560  0.11680  Biso   1.000  C
  C194     1.0000 0.47070  0.28270  0.07870  Biso   1.000  C
  C195     1.0000 0.55080  0.29320  0.06600  Biso   1.000  C
  C196     1.0000 0.41040  0.24310  0.05730  Biso   1.000  C
  H161     1.0000 0.58870  0.31650  0.08070  Biso   1.000  H
  C197     1.0000 0.57970  0.27020  0.03090  Biso   1.000  C
  C198     1.0000 0.44180  0.21750  0.02380  Biso   1.000  C
  H162     1.0000 0.35340  0.23580  0.06610  Biso   1.000  H
  C199     1.0000 0.52700  0.23060  0.01080  Biso   1.000  C
  N33      1.0000 0.66210  0.28720  0.01990  Biso   1.000  N
  H163     1.0000 0.40640  0.19140  0.00980  Biso   1.000  H
  C200     1.0000 0.56040  0.19470  0.97660  Biso   1.000  C
  H164     1.0000 0.68500  0.27310  0.99900  Biso   1.000  H
  H165     1.0000 0.69120  0.31210  0.03380  Biso   1.000  H
  C201     1.0000 0.53780  0.51900  0.33260  Biso   1.000  C
  H166     1.0000 0.64990  0.49200  0.31220  Biso   1.000  H
  H167     1.0000 0.59810  0.45090  0.25640  Biso   1.000  H
  N34      1.0000 0.32050  0.50320  0.28530  Biso   1.000  N
  H168     1.0000 0.28960  0.52130  0.30250  Biso   1.000  H
  H169     1.0000 0.29520  0.48840  0.26510  Biso   1.000  H
  C202     1.0000 0.41170  0.49780  0.29000  Biso   1.000  C
  C203     1.0000 0.44590  0.52290  0.32330  Biso   1.000  C
  H170     1.0000 0.40830  0.54290  0.34010  Biso   1.000  H
  C204     1.0000 0.46830  0.46550  0.26500  Biso   1.000  C
  O69      1.0000 0.35930  0.94460  0.71796  Biso   1.000  O
  O70      1.0000 0.49240  0.91550  0.70571  Biso   1.000  O
  O71      1.0000 0.35270  0.80600  0.62430  Biso   1.000  O
  O72      1.0000 0.48720  0.83210  0.63903  Biso   1.000  O
  C205     1.0000 0.43280  0.80560  0.61680  Biso   1.000  C
  C206     1.0000 0.47070  0.78270  0.57870  Biso   1.000  C
  C207     1.0000 0.55080  0.79320  0.56600  Biso   1.000  C
  C208     1.0000 0.41040  0.74310  0.55730  Biso   1.000  C
  H171     1.0000 0.58870  0.81650  0.58070  Biso   1.000  H
  C209     1.0000 0.57970  0.77020  0.53090  Biso   1.000  C
  C210     1.0000 0.44180  0.71750  0.52380  Biso   1.000  C
  H172     1.0000 0.35340  0.73580  0.56610  Biso   1.000  H
  C211     1.0000 0.52700  0.73060  0.51080  Biso   1.000  C
  N35      1.0000 0.66210  0.78720  0.51990  Biso   1.000  N
  H173     1.0000 0.40640  0.69140  0.50980  Biso   1.000  H
  C212     1.0000 0.56040  0.69470  0.47660  Biso   1.000  C
  H174     1.0000 0.68500  0.77310  0.49900  Biso   1.000  H
  H175     1.0000 0.69120  0.81210  0.53380  Biso   1.000  H
  C213     1.0000 0.53780  0.01900  0.83260  Biso   1.000  C
  H176     1.0000 0.64990  0.99200  0.81220  Biso   1.000  H
  H177     1.0000 0.59810  0.95090  0.75640  Biso   1.000  H
  N36      1.0000 0.32050  0.00320  0.78530  Biso   1.000  N
  H178     1.0000 0.28960  0.02130  0.80250  Biso   1.000  H
  H179     1.0000 0.29520  0.98840  0.76510  Biso   1.000  H
  C214     1.0000 0.41170  0.99780  0.79000  Biso   1.000  C
  C215     1.0000 0.44590  0.02290  0.82330  Biso   1.000  C
  H180     1.0000 0.40830  0.04290  0.84010  Biso   1.000  H
  C216     1.0000 0.46830  0.96550  0.76500  Biso   1.000  C
  O73      1.0000 0.85930  0.44460  0.71796  Biso   1.000  O
  O74      1.0000 0.99240  0.41550  0.70571  Biso   1.000  O
  O75      1.0000 0.85270  0.30600  0.62430  Biso   1.000  O
  O76      1.0000 0.98720  0.33210  0.63903  Biso   1.000  O
  C217     1.0000 0.93280  0.30560  0.61680  Biso   1.000  C
  C218     1.0000 0.97070  0.28270  0.57870  Biso   1.000  C
  C219     1.0000 0.05080  0.29320  0.56600  Biso   1.000  C
  C220     1.0000 0.91040  0.24310  0.55730  Biso   1.000  C
  H181     1.0000 0.08870  0.31650  0.58070  Biso   1.000  H
  C221     1.0000 0.07970  0.27020  0.53090  Biso   1.000  C
  C222     1.0000 0.94180  0.21750  0.52380  Biso   1.000  C
  H182     1.0000 0.85340  0.23580  0.56610  Biso   1.000  H
  C223     1.0000 0.02700  0.23060  0.51080  Biso   1.000  C
  N37      1.0000 0.16210  0.28720  0.51990  Biso   1.000  N
  H183     1.0000 0.90640  0.19140  0.50980  Biso   1.000  H
  C224     1.0000 0.06040  0.19470  0.47660  Biso   1.000  C
  H184     1.0000 0.18500  0.27310  0.49900  Biso   1.000  H
  H185     1.0000 0.19120  0.31210  0.53380  Biso   1.000  H
  C225     1.0000 0.03780  0.51900  0.83260  Biso   1.000  C
  H186     1.0000 0.14990  0.49200  0.81220  Biso   1.000  H
  H187     1.0000 0.09810  0.45090  0.75640  Biso   1.000  H
  N38      1.0000 0.82050  0.50320  0.78530  Biso   1.000  N
  H188     1.0000 0.78960  0.52130  0.80250  Biso   1.000  H
  H189     1.0000 0.79520  0.48840  0.76510  Biso   1.000  H
  C226     1.0000 0.91170  0.49780  0.79000  Biso   1.000  C
  C227     1.0000 0.94590  0.52290  0.82330  Biso   1.000  C
  H190     1.0000 0.90830  0.54290  0.84010  Biso   1.000  H
  C228     1.0000 0.96830  0.46550  0.76500  Biso   1.000  C
  O77      1.0000 0.85930  0.94460  0.21796  Biso   1.000  O
  O78      1.0000 0.99240  0.91550  0.20571  Biso   1.000  O
  O79      1.0000 0.85270  0.80600  0.12430  Biso   1.000  O
  O80      1.0000 0.98720  0.83210  0.13903  Biso   1.000  O
  C229     1.0000 0.93280  0.80560  0.11680  Biso   1.000  C
  C230     1.0000 0.97070  0.78270  0.07870  Biso   1.000  C
  C231     1.0000 0.05080  0.79320  0.06600  Biso   1.000  C
  C232     1.0000 0.91040  0.74310  0.05730  Biso   1.000  C
  H191     1.0000 0.08870  0.81650  0.08070  Biso   1.000  H
  C233     1.0000 0.07970  0.77020  0.03090  Biso   1.000  C
  C234     1.0000 0.94180  0.71750  0.02380  Biso   1.000  C
  H192     1.0000 0.85340  0.73580  0.06610  Biso   1.000  H
  C235     1.0000 0.02700  0.73060  0.01080  Biso   1.000  C
  N39      1.0000 0.16210  0.78720  0.01990  Biso   1.000  N
  H193     1.0000 0.90640  0.69140  0.00980  Biso   1.000  H
  C236     1.0000 0.06040  0.69470  0.97660  Biso   1.000  C
  H194     1.0000 0.18500  0.77310  0.99900  Biso   1.000  H
  H195     1.0000 0.19120  0.81210  0.03380  Biso   1.000  H
  C237     1.0000 0.03780  0.01900  0.33260  Biso   1.000  C
  H196     1.0000 0.14990  0.99200  0.31220  Biso   1.000  H
  H197     1.0000 0.09810  0.95090  0.25640  Biso   1.000  H
  N40      1.0000 0.82050  0.00320  0.28530  Biso   1.000  N
  H198     1.0000 0.78960  0.02130  0.30250  Biso   1.000  H
  H199     1.0000 0.79520  0.98840  0.26510  Biso   1.000  H
  C238     1.0000 0.91170  0.99780  0.29000  Biso   1.000  C
  C239     1.0000 0.94590  0.02290  0.32330  Biso   1.000  C
  H200     1.0000 0.90830  0.04290  0.34010  Biso   1.000  H
  C240     1.0000 0.96830  0.96550  0.26500  Biso   1.000  C
  O81      1.0000 0.39070  0.30540  0.21796  Biso   1.000  O
  O82      1.0000 0.25760  0.33450  0.20571  Biso   1.000  O
  O83      1.0000 0.39730  0.44400  0.12430  Biso   1.000  O
  O84      1.0000 0.26280  0.41790  0.13903  Biso   1.000  O
  C241     1.0000 0.31720  0.44440  0.11680  Biso   1.000  C
  C242     1.0000 0.27930  0.46730  0.07870  Biso   1.000  C
  C243     1.0000 0.19920  0.45680  0.06600  Biso   1.000  C
  C244     1.0000 0.33960  0.50690  0.05730  Biso   1.000  C
  H201     1.0000 0.16130  0.43350  0.08070  Biso   1.000  H
  C245     1.0000 0.17030  0.47980  0.03090  Biso   1.000  C
  C246     1.0000 0.30820  0.53250  0.02380  Biso   1.000  C
  H202     1.0000 0.39660  0.51420  0.06610  Biso   1.000  H
  C247     1.0000 0.22300  0.51940  0.01080  Biso   1.000  C
  N41      1.0000 0.08790  0.46280  0.01990  Biso   1.000  N
  H203     1.0000 0.34360  0.55860  0.00980  Biso   1.000  H
  C248     1.0000 0.18960  0.55530  0.97660  Biso   1.000  C
  H204     1.0000 0.06500  0.47690  0.99900  Biso   1.000  H
  H205     1.0000 0.05880  0.43790  0.03380  Biso   1.000  H
  C249     1.0000 0.21220  0.23100  0.33260  Biso   1.000  C
  H206     1.0000 0.10010  0.25800  0.31220  Biso   1.000  H
  H207     1.0000 0.15190  0.29910  0.25640  Biso   1.000  H
  N42      1.0000 0.42950  0.24680  0.28530  Biso   1.000  N
  H208     1.0000 0.46040  0.22870  0.30250  Biso   1.000  H
  H209     1.0000 0.45480  0.26160  0.26510  Biso   1.000  H
  C250     1.0000 0.33830  0.25220  0.29000  Biso   1.000  C
  C251     1.0000 0.30410  0.22710  0.32330  Biso   1.000  C
  H210     1.0000 0.34170  0.20710  0.34010  Biso   1.000  H
  C252     1.0000 0.28170  0.28450  0.26500  Biso   1.000  C
  O85      1.0000 0.39070  0.80540  0.71796  Biso   1.000  O
  O86      1.0000 0.25760  0.83450  0.70571  Biso   1.000  O
  O87      1.0000 0.39730  0.94400  0.62430  Biso   1.000  O
  O88      1.0000 0.26280  0.91790  0.63903  Biso   1.000  O
  C253     1.0000 0.31720  0.94440  0.61680  Biso   1.000  C
  C254     1.0000 0.27930  0.96730  0.57870  Biso   1.000  C
  C255     1.0000 0.19920  0.95680  0.56600  Biso   1.000  C
  C256     1.0000 0.33960  0.00690  0.55730  Biso   1.000  C
  H211     1.0000 0.16130  0.93350  0.58070  Biso   1.000  H
  C257     1.0000 0.17030  0.97980  0.53090  Biso   1.000  C
  C258     1.0000 0.30820  0.03250  0.52380  Biso   1.000  C
  H212     1.0000 0.39660  0.01420  0.56610  Biso   1.000  H
  C259     1.0000 0.22300  0.01940  0.51080  Biso   1.000  C
  N43      1.0000 0.08790  0.96280  0.51990  Biso   1.000  N
  H213     1.0000 0.34360  0.05860  0.50980  Biso   1.000  H
  C260     1.0000 0.18960  0.05530  0.47660  Biso   1.000  C
  H214     1.0000 0.06500  0.97690  0.49900  Biso   1.000  H
  H215     1.0000 0.05880  0.93790  0.53380  Biso   1.000  H
  C261     1.0000 0.21220  0.73100  0.83260  Biso   1.000  C
  H216     1.0000 0.10010  0.75800  0.81220  Biso   1.000  H
  H217     1.0000 0.15190  0.79910  0.75640  Biso   1.000  H
  N44      1.0000 0.42950  0.74680  0.78530  Biso   1.000  N
  H218     1.0000 0.46040  0.72870  0.80250  Biso   1.000  H
  H219     1.0000 0.45480  0.76160  0.76510  Biso   1.000  H
  C262     1.0000 0.33830  0.75220  0.79000  Biso   1.000  C
  C263     1.0000 0.30410  0.72710  0.82330  Biso   1.000  C
  H220     1.0000 0.34170  0.70710  0.84010  Biso   1.000  H
  C264     1.0000 0.28170  0.78450  0.76500  Biso   1.000  C
  O89      1.0000 0.89070  0.30540  0.71796  Biso   1.000  O
  O90      1.0000 0.75760  0.33450  0.70571  Biso   1.000  O
  O91      1.0000 0.89730  0.44400  0.62430  Biso   1.000  O
  O92      1.0000 0.76280  0.41790  0.63903  Biso   1.000  O
  C265     1.0000 0.81720  0.44440  0.61680  Biso   1.000  C
  C266     1.0000 0.77930  0.46730  0.57870  Biso   1.000  C
  C267     1.0000 0.69920  0.45680  0.56600  Biso   1.000  C
  C268     1.0000 0.83960  0.50690  0.55730  Biso   1.000  C
  H221     1.0000 0.66130  0.43350  0.58070  Biso   1.000  H
  C269     1.0000 0.67030  0.47980  0.53090  Biso   1.000  C
  C270     1.0000 0.80820  0.53250  0.52380  Biso   1.000  C
  H222     1.0000 0.89660  0.51420  0.56610  Biso   1.000  H
  C271     1.0000 0.72300  0.51940  0.51080  Biso   1.000  C
  N45      1.0000 0.58790  0.46280  0.51990  Biso   1.000  N
  H223     1.0000 0.84360  0.55860  0.50980  Biso   1.000  H
  C272     1.0000 0.68960  0.55530  0.47660  Biso   1.000  C
  H224     1.0000 0.56500  0.47690  0.49900  Biso   1.000  H
  H225     1.0000 0.55880  0.43790  0.53380  Biso   1.000  H
  C273     1.0000 0.71220  0.23100  0.83260  Biso   1.000  C
  H226     1.0000 0.60010  0.25800  0.81220  Biso   1.000  H
  H227     1.0000 0.65190  0.29910  0.75640  Biso   1.000  H
  N46      1.0000 0.92950  0.24680  0.78530  Biso   1.000  N
  H228     1.0000 0.96040  0.22870  0.80250  Biso   1.000  H
  H229     1.0000 0.95480  0.26160  0.76510  Biso   1.000  H
  C274     1.0000 0.83830  0.25220  0.79000  Biso   1.000  C
  C275     1.0000 0.80410  0.22710  0.82330  Biso   1.000  C
  H230     1.0000 0.84170  0.20710  0.84010  Biso   1.000  H
  C276     1.0000 0.78170  0.28450  0.76500  Biso   1.000  C
  O93      1.0000 0.89070  0.80540  0.21796  Biso   1.000  O
  O94      1.0000 0.75760  0.83450  0.20571  Biso   1.000  O
  O95      1.0000 0.89730  0.94400  0.12430  Biso   1.000  O
  O96      1.0000 0.76280  0.91790  0.13903  Biso   1.000  O
  C277     1.0000 0.81720  0.94440  0.11680  Biso   1.000  C
  C278     1.0000 0.77930  0.96730  0.07870  Biso   1.000  C
  C279     1.0000 0.69920  0.95680  0.06600  Biso   1.000  C
  C280     1.0000 0.83960  0.00690  0.05730  Biso   1.000  C
  H231     1.0000 0.66130  0.93350  0.08070  Biso   1.000  H
  C281     1.0000 0.67030  0.97980  0.03090  Biso   1.000  C
  C282     1.0000 0.80820  0.03250  0.02380  Biso   1.000  C
  H232     1.0000 0.89660  0.01420  0.06610  Biso   1.000  H
  C283     1.0000 0.72300  0.01940  0.01080  Biso   1.000  C
  N47      1.0000 0.58790  0.96280  0.01990  Biso   1.000  N
  H233     1.0000 0.84360  0.05860  0.00980  Biso   1.000  H
  C284     1.0000 0.68960  0.05530  0.97660  Biso   1.000  C
  H234     1.0000 0.56500  0.97690  0.99900  Biso   1.000  H
  H235     1.0000 0.55880  0.93790  0.03380  Biso   1.000  H
  C285     1.0000 0.71220  0.73100  0.33260  Biso   1.000  C
  H236     1.0000 0.60010  0.75800  0.31220  Biso   1.000  H
  H237     1.0000 0.65190  0.79910  0.25640  Biso   1.000  H
  N48      1.0000 0.92950  0.74680  0.28530  Biso   1.000  N
  H238     1.0000 0.96040  0.72870  0.30250  Biso   1.000  H
  H239     1.0000 0.95480  0.76160  0.26510  Biso   1.000  H
  C286     1.0000 0.83830  0.75220  0.29000  Biso   1.000  C
  C287     1.0000 0.80410  0.72710  0.32330  Biso   1.000  C
  H240     1.0000 0.84170  0.70710  0.34010  Biso   1.000  H
  C288     1.0000 0.78170  0.78450  0.26500  Biso   1.000  C
  O97      1.0000 0.60930  0.55540  0.46796  Biso   1.000  O
  O98      1.0000 0.74240  0.58450  0.45571  Biso   1.000  O
  O99      1.0000 0.60270  0.69400  0.37430  Biso   1.000  O
  O100     1.0000 0.73720  0.66790  0.38903  Biso   1.000  O
  C289     1.0000 0.68280  0.69440  0.36680  Biso   1.000  C
  C290     1.0000 0.72070  0.71730  0.32870  Biso   1.000  C
  C291     1.0000 0.80080  0.70680  0.31600  Biso   1.000  C
  C292     1.0000 0.66040  0.75690  0.30730  Biso   1.000  C
  H241     1.0000 0.83870  0.68350  0.33070  Biso   1.000  H
  C293     1.0000 0.82970  0.72980  0.28090  Biso   1.000  C
  C294     1.0000 0.69180  0.78250  0.27380  Biso   1.000  C
  H242     1.0000 0.60340  0.76420  0.31610  Biso   1.000  H
  C295     1.0000 0.77700  0.76940  0.26080  Biso   1.000  C
  N49      1.0000 0.91210  0.71280  0.26990  Biso   1.000  N
  H243     1.0000 0.65640  0.80860  0.25980  Biso   1.000  H
  C296     1.0000 0.81040  0.80530  0.22660  Biso   1.000  C
  H244     1.0000 0.93500  0.72690  0.24900  Biso   1.000  H
  H245     1.0000 0.94120  0.68790  0.28380  Biso   1.000  H
  C297     1.0000 0.78780  0.48100  0.58260  Biso   1.000  C
  H246     1.0000 0.89990  0.50800  0.56220  Biso   1.000  H
  H247     1.0000 0.84810  0.54910  0.50640  Biso   1.000  H
  N50      1.0000 0.57050  0.49680  0.53530  Biso   1.000  N
  H248     1.0000 0.53960  0.47870  0.55250  Biso   1.000  H
  H249     1.0000 0.54520  0.51160  0.51510  Biso   1.000  H
  C298     1.0000 0.66170  0.50220  0.54000  Biso   1.000  C
  C299     1.0000 0.69590  0.47710  0.57330  Biso   1.000  C
  H250     1.0000 0.65830  0.45710  0.59010  Biso   1.000  H
  C300     1.0000 0.71830  0.53450  0.51500  Biso   1.000  C
  O101     1.0000 0.60930  0.05540  0.96796  Biso   1.000  O
  O102     1.0000 0.74240  0.08450  0.95571  Biso   1.000  O
  O103     1.0000 0.60270  0.19400  0.87430  Biso   1.000  O
  O104     1.0000 0.73720  0.16790  0.88903  Biso   1.000  O
  C301     1.0000 0.68280  0.19440  0.86680  Biso   1.000  C
  C302     1.0000 0.72070  0.21730  0.82870  Biso   1.000  C
  C303     1.0000 0.80080  0.20680  0.81600  Biso   1.000  C
  C304     1.0000 0.66040  0.25690  0.80730  Biso   1.000  C
  H251     1.0000 0.83870  0.18350  0.83070  Biso   1.000  H
  C305     1.0000 0.82970  0.22980  0.78090  Biso   1.000  C
  C306     1.0000 0.69180  0.28250  0.77380  Biso   1.000  C
  H252     1.0000 0.60340  0.26420  0.81610  Biso   1.000  H
  C307     1.0000 0.77700  0.26940  0.76080  Biso   1.000  C
  N51      1.0000 0.91210  0.21280  0.76990  Biso   1.000  N
  H253     1.0000 0.65640  0.30860  0.75980  Biso   1.000  H
  C308     1.0000 0.81040  0.30530  0.72660  Biso   1.000  C
  H254     1.0000 0.93500  0.22690  0.74900  Biso   1.000  H
  H255     1.0000 0.94120  0.18790  0.78380  Biso   1.000  H
  C309     1.0000 0.78780  0.98100  0.08260  Biso   1.000  C
  H256     1.0000 0.89990  0.00800  0.06220  Biso   1.000  H
  H257     1.0000 0.84810  0.04910  0.00640  Biso   1.000  H
  N52      1.0000 0.57050  0.99680  0.03530  Biso   1.000  N
  H258     1.0000 0.53960  0.97870  0.05250  Biso   1.000  H
  H259     1.0000 0.54520  0.01160  0.01510  Biso   1.000  H
  C310     1.0000 0.66170  0.00220  0.04000  Biso   1.000  C
  C311     1.0000 0.69590  0.97710  0.07330  Biso   1.000  C
  H260     1.0000 0.65830  0.95710  0.09010  Biso   1.000  H
  C312     1.0000 0.71830  0.03450  0.01500  Biso   1.000  C
  O105     1.0000 0.10930  0.55540  0.96796  Biso   1.000  O
  O106     1.0000 0.24240  0.58450  0.95571  Biso   1.000  O
  O107     1.0000 0.10270  0.69400  0.87430  Biso   1.000  O
  O108     1.0000 0.23720  0.66790  0.88903  Biso   1.000  O
  C313     1.0000 0.18280  0.69440  0.86680  Biso   1.000  C
  C314     1.0000 0.22070  0.71730  0.82870  Biso   1.000  C
  C315     1.0000 0.30080  0.70680  0.81600  Biso   1.000  C
  C316     1.0000 0.16040  0.75690  0.80730  Biso   1.000  C
  H261     1.0000 0.33870  0.68350  0.83070  Biso   1.000  H
  C317     1.0000 0.32970  0.72980  0.78090  Biso   1.000  C
  C318     1.0000 0.19180  0.78250  0.77380  Biso   1.000  C
  H262     1.0000 0.10340  0.76420  0.81610  Biso   1.000  H
  C319     1.0000 0.27700  0.76940  0.76080  Biso   1.000  C
  N53      1.0000 0.41210  0.71280  0.76990  Biso   1.000  N
  H263     1.0000 0.15640  0.80860  0.75980  Biso   1.000  H
  C320     1.0000 0.31040  0.80530  0.72660  Biso   1.000  C
  H264     1.0000 0.43500  0.72690  0.74900  Biso   1.000  H
  H265     1.0000 0.44120  0.68790  0.78380  Biso   1.000  H
  C321     1.0000 0.28780  0.48100  0.08260  Biso   1.000  C
  H266     1.0000 0.39990  0.50800  0.06220  Biso   1.000  H
  H267     1.0000 0.34810  0.54910  0.00640  Biso   1.000  H
  N54      1.0000 0.07050  0.49680  0.03530  Biso   1.000  N
  H268     1.0000 0.03960  0.47870  0.05250  Biso   1.000  H
  H269     1.0000 0.04520  0.51160  0.01510  Biso   1.000  H
  C322     1.0000 0.16170  0.50220  0.04000  Biso   1.000  C
  C323     1.0000 0.19590  0.47710  0.07330  Biso   1.000  C
  H270     1.0000 0.15830  0.45710  0.09010  Biso   1.000  H
  C324     1.0000 0.21830  0.53450  0.01500  Biso   1.000  C
  O109     1.0000 0.10930  0.05540  0.46796  Biso   1.000  O
  O110     1.0000 0.24240  0.08450  0.45571  Biso   1.000  O
  O111     1.0000 0.10270  0.19400  0.37430  Biso   1.000  O
  O112     1.0000 0.23720  0.16790  0.38903  Biso   1.000  O
  C325     1.0000 0.18280  0.19440  0.36680  Biso   1.000  C
  C326     1.0000 0.22070  0.21730  0.32870  Biso   1.000  C
  C327     1.0000 0.30080  0.20680  0.31600  Biso   1.000  C
  C328     1.0000 0.16040  0.25690  0.30730  Biso   1.000  C
  H271     1.0000 0.33870  0.18350  0.33070  Biso   1.000  H
  C329     1.0000 0.32970  0.22980  0.28090  Biso   1.000  C
  C330     1.0000 0.19180  0.28250  0.27380  Biso   1.000  C
  H272     1.0000 0.10340  0.26420  0.31610  Biso   1.000  H
  C331     1.0000 0.27700  0.26940  0.26080  Biso   1.000  C
  N55      1.0000 0.41210  0.21280  0.26990  Biso   1.000  N
  H273     1.0000 0.15640  0.30860  0.25980  Biso   1.000  H
  C332     1.0000 0.31040  0.30530  0.22660  Biso   1.000  C
  H274     1.0000 0.43500  0.22690  0.24900  Biso   1.000  H
  H275     1.0000 0.44120  0.18790  0.28380  Biso   1.000  H
  C333     1.0000 0.28780  0.98100  0.58260  Biso   1.000  C
  H276     1.0000 0.39990  0.00800  0.56220  Biso   1.000  H
  H277     1.0000 0.34810  0.04910  0.50640  Biso   1.000  H
  N56      1.0000 0.07050  0.99680  0.53530  Biso   1.000  N
  H278     1.0000 0.03960  0.97870  0.55250  Biso   1.000  H
  H279     1.0000 0.04520  0.01160  0.51510  Biso   1.000  H
  C334     1.0000 0.16170  0.00220  0.54000  Biso   1.000  C
  C335     1.0000 0.19590  0.97710  0.57330  Biso   1.000  C
  H280     1.0000 0.15830  0.95710  0.59010  Biso   1.000  H
  C336     1.0000 0.21830  0.03450  0.51500  Biso   1.000  C
  O113     1.0000 0.64070  0.69460  0.46796  Biso   1.000  O
  O114     1.0000 0.50760  0.66550  0.45571  Biso   1.000  O
  O115     1.0000 0.64730  0.55600  0.37430  Biso   1.000  O
  O116     1.0000 0.51280  0.58210  0.38903  Biso   1.000  O
  C337     1.0000 0.56720  0.55560  0.36680  Biso   1.000  C
  C338     1.0000 0.52930  0.53270  0.32870  Biso   1.000  C
  C339     1.0000 0.44920  0.54320  0.31600  Biso   1.000  C
  C340     1.0000 0.58960  0.49310  0.30730  Biso   1.000  C
  H281     1.0000 0.41130  0.56650  0.33070  Biso   1.000  H
  C341     1.0000 0.42030  0.52020  0.28090  Biso   1.000  C
  C342     1.0000 0.55820  0.46750  0.27380  Biso   1.000  C
  H282     1.0000 0.64660  0.48580  0.31610  Biso   1.000  H
  C343     1.0000 0.47300  0.48060  0.26080  Biso   1.000  C
  N57      1.0000 0.33790  0.53720  0.26990  Biso   1.000  N
  H283     1.0000 0.59360  0.44140  0.25980  Biso   1.000  H
  C344     1.0000 0.43960  0.44470  0.22660  Biso   1.000  C
  H284     1.0000 0.31500  0.52310  0.24900  Biso   1.000  H
  H285     1.0000 0.30880  0.56210  0.28380  Biso   1.000  H
  C345     1.0000 0.46220  0.76900  0.58260  Biso   1.000  C
  H286     1.0000 0.35010  0.74200  0.56220  Biso   1.000  H
  H287     1.0000 0.40190  0.70090  0.50640  Biso   1.000  H
  N58      1.0000 0.67950  0.75320  0.53530  Biso   1.000  N
  H288     1.0000 0.71040  0.77130  0.55250  Biso   1.000  H
  H289     1.0000 0.70480  0.73840  0.51510  Biso   1.000  H
  C346     1.0000 0.58830  0.74780  0.54000  Biso   1.000  C
  C347     1.0000 0.55410  0.77290  0.57330  Biso   1.000  C
  H290     1.0000 0.59170  0.79290  0.59010  Biso   1.000  H
  C348     1.0000 0.53170  0.71550  0.51500  Biso   1.000  C
  O117     1.0000 0.64070  0.19460  0.96796  Biso   1.000  O
  O118     1.0000 0.50760  0.16550  0.95571  Biso   1.000  O
  O119     1.0000 0.64730  0.05600  0.87430  Biso   1.000  O
  O120     1.0000 0.51280  0.08210  0.88903  Biso   1.000  O
  C349     1.0000 0.56720  0.05560  0.86680  Biso   1.000  C
  C350     1.0000 0.52930  0.03270  0.82870  Biso   1.000  C
  C351     1.0000 0.44920  0.04320  0.81600  Biso   1.000  C
  C352     1.0000 0.58960  0.99310  0.80730  Biso   1.000  C
  H291     1.0000 0.41130  0.06650  0.83070  Biso   1.000  H
  C353     1.0000 0.42030  0.02020  0.78090  Biso   1.000  C
  C354     1.0000 0.55820  0.96750  0.77380  Biso   1.000  C
  H292     1.0000 0.64660  0.98580  0.81610  Biso   1.000  H
  C355     1.0000 0.47300  0.98060  0.76080  Biso   1.000  C
  N59      1.0000 0.33790  0.03720  0.76990  Biso   1.000  N
  H293     1.0000 0.59360  0.94140  0.75980  Biso   1.000  H
  C356     1.0000 0.43960  0.94470  0.72660  Biso   1.000  C
  H294     1.0000 0.31500  0.02310  0.74900  Biso   1.000  H
  H295     1.0000 0.30880  0.06210  0.78380  Biso   1.000  H
  C357     1.0000 0.46220  0.26900  0.08260  Biso   1.000  C
  H296     1.0000 0.35010  0.24200  0.06220  Biso   1.000  H
  H297     1.0000 0.40190  0.20090  0.00640  Biso   1.000  H
  N60      1.0000 0.67950  0.25320  0.03530  Biso   1.000  N
  H298     1.0000 0.71040  0.27130  0.05250  Biso   1.000  H
  H299     1.0000 0.70480  0.23840  0.01510  Biso   1.000  H
  C358     1.0000 0.58830  0.24780  0.04000  Biso   1.000  C
  C359     1.0000 0.55410  0.27290  0.07330  Biso   1.000  C
  H300     1.0000 0.59170  0.29290  0.09010  Biso   1.000  H
  C360     1.0000 0.53170  0.21550  0.01500  Biso   1.000  C
  O121     1.0000 0.14070  0.69460  0.96796  Biso   1.000  O
  O122     1.0000 0.00760  0.66550  0.95571  Biso   1.000  O
  O123     1.0000 0.14730  0.55600  0.87430  Biso   1.000  O
  O124     1.0000 0.01280  0.58210  0.88903  Biso   1.000  O
  C361     1.0000 0.06720  0.55560  0.86680  Biso   1.000  C
  C362     1.0000 0.02930  0.53270  0.82870  Biso   1.000  C
  C363     1.0000 0.94920  0.54320  0.81600  Biso   1.000  C
  C364     1.0000 0.08960  0.49310  0.80730  Biso   1.000  C
  H301     1.0000 0.91130  0.56650  0.83070  Biso   1.000  H
  C365     1.0000 0.92030  0.52020  0.78090  Biso   1.000  C
  C366     1.0000 0.05820  0.46750  0.77380  Biso   1.000  C
  H302     1.0000 0.14660  0.48580  0.81610  Biso   1.000  H
  C367     1.0000 0.97300  0.48060  0.76080  Biso   1.000  C
  N61      1.0000 0.83790  0.53720  0.76990  Biso   1.000  N
  H303     1.0000 0.09360  0.44140  0.75980  Biso   1.000  H
  C368     1.0000 0.93960  0.44470  0.72660  Biso   1.000  C
  H304     1.0000 0.81500  0.52310  0.74900  Biso   1.000  H
  H305     1.0000 0.80880  0.56210  0.78380  Biso   1.000  H
  C369     1.0000 0.96220  0.76900  0.08260  Biso   1.000  C
  H306     1.0000 0.85010  0.74200  0.06220  Biso   1.000  H
  H307     1.0000 0.90190  0.70090  0.00640  Biso   1.000  H
  N62      1.0000 0.17950  0.75320  0.03530  Biso   1.000  N
  H308     1.0000 0.21040  0.77130  0.05250  Biso   1.000  H
  H309     1.0000 0.20480  0.73840  0.01510  Biso   1.000  H
  C370     1.0000 0.08830  0.74780  0.04000  Biso   1.000  C
  C371     1.0000 0.05410  0.77290  0.07330  Biso   1.000  C
  H310     1.0000 0.09170  0.79290  0.09010  Biso   1.000  H
  C372     1.0000 0.03170  0.71550  0.01500  Biso   1.000  C
  O125     1.0000 0.14070  0.19460  0.46796  Biso   1.000  O
  O126     1.0000 0.00760  0.16550  0.45571  Biso   1.000  O
  O127     1.0000 0.14730  0.05600  0.37430  Biso   1.000  O
  O128     1.0000 0.01280  0.08210  0.38903  Biso   1.000  O
  C373     1.0000 0.06720  0.05560  0.36680  Biso   1.000  C
  C374     1.0000 0.02930  0.03270  0.32870  Biso   1.000  C
  C375     1.0000 0.94920  0.04320  0.31600  Biso   1.000  C
  C376     1.0000 0.08960  0.99310  0.30730  Biso   1.000  C
  H311     1.0000 0.91130  0.06650  0.33070  Biso   1.000  H
  C377     1.0000 0.92030  0.02020  0.28090  Biso   1.000  C
  C378     1.0000 0.05820  0.96750  0.27380  Biso   1.000  C
  H312     1.0000 0.14660  0.98580  0.31610  Biso   1.000  H
  C379     1.0000 0.97300  0.98060  0.26080  Biso   1.000  C
  N63      1.0000 0.83790  0.03720  0.26990  Biso   1.000  N
  H313     1.0000 0.09360  0.94140  0.25980  Biso   1.000  H
  C380     1.0000 0.93960  0.94470  0.22660  Biso   1.000  C
  H314     1.0000 0.81500  0.02310  0.24900  Biso   1.000  H
  H315     1.0000 0.80880  0.06210  0.28380  Biso   1.000  H
  C381     1.0000 0.96220  0.26900  0.58260  Biso   1.000  C
  H316     1.0000 0.85010  0.24200  0.56220  Biso   1.000  H
  H317     1.0000 0.90190  0.20090  0.50640  Biso   1.000  H
  N64      1.0000 0.17950  0.25320  0.53530  Biso   1.000  N
  H318     1.0000 0.21040  0.27130  0.55250  Biso   1.000  H
  H319     1.0000 0.20480  0.23840  0.51510  Biso   1.000  H
  C382     1.0000 0.08830  0.24780  0.54000  Biso   1.000  C
  C383     1.0000 0.05410  0.27290  0.57330  Biso   1.000  C
  H320     1.0000 0.09170  0.29290  0.59010  Biso   1.000  H
  C384     1.0000 0.03170  0.21550  0.51500  Biso   1.000  C
  In9      1.0000 0.37500  0.37500  0.17224  Biso   1.000  In
  In10     1.0000 0.37500  0.87500  0.67224  Biso   1.000  In
  In11     1.0000 0.87500  0.37500  0.67224  Biso   1.000  In
  In12     1.0000 0.87500  0.87500  0.17224  Biso   1.000  In
  In13     1.0000 0.62500  0.62500  0.42224  Biso   1.000  In
  In14     1.0000 0.62500  0.12500  0.92224  Biso   1.000  In
  In15     1.0000 0.12500  0.62500  0.92224  Biso   1.000  In
  In16     1.0000 0.12500  0.12500  0.42224  Biso   1.000  In
