data_image0
_cell_length_a       15.142
_cell_length_b       22.235
_cell_length_c       34.53
_cell_angle_alpha    90
_cell_angle_beta     90
_cell_angle_gamma    90

_symmetry_space_group_name_H-M    "P 1"
_symmetry_int_tables_number       1

loop_
  _symmetry_equiv_pos_as_xyz
  'x, y, z'

loop_
  _atom_site_label
  _atom_site_occupancy
  _atom_site_fract_x
  _atom_site_fract_y
  _atom_site_fract_z
  _atom_site_thermal_displace_type
  _atom_site_B_iso_or_equiv
  _atom_site_type_symbol
  O1       1.0000 0.74250  0.16520  0.79573  Biso   1.000  O
  O2       1.0000 0.60940  0.19550  0.78350  Biso   1.000  O
  O3       1.0000 0.89670  0.30450  0.62670  Biso   1.000  O
  O4       1.0000 0.76290  0.33260  0.61270  Biso   1.000  O
  C1       1.0000 0.81590  0.30500  0.63430  Biso   1.000  C
  C2       1.0000 0.78320  0.26780  0.66870  Biso   1.000  C
  C3       1.0000 0.83910  0.24160  0.69350  Biso   1.000  C
  C4       1.0000 0.69590  0.27420  0.67830  Biso   1.000  C
  H1       1.0000 0.89920  0.24030  0.68800  Biso   1.000  H
  C5       1.0000 0.80760  0.21650  0.72730  Biso   1.000  C
  C6       1.0000 0.66190  0.24680  0.71140  Biso   1.000  C
  H2       1.0000 0.65900  0.29710  0.66250  Biso   1.000  H
  C7       1.0000 0.71780  0.21540  0.73600  Biso   1.000  C
  H3       1.0000 0.84750  0.19990  0.74480  Biso   1.000  H
  N1       1.0000 0.57250  0.25530  0.71640  Biso   1.000  N
  C8       1.0000 0.68970  0.19440  0.77420  Biso   1.000  C
  H4       1.0000 0.54280  0.27550  0.69960  Biso   1.000  H
  H5       1.0000 0.54630  0.24050  0.73630  Biso   1.000  H
  C9       1.0000 0.77500  0.48090  0.49080  Biso   1.000  C
  C10      1.0000 0.71770  0.53460  0.42280  Biso   1.000  C
  H6       1.0000 0.60530  0.48160  0.43410  Biso   1.000  H
  C11      1.0000 0.83080  0.51930  0.46940  Biso   1.000  C
  C12      1.0000 0.80020  0.54600  0.43630  Biso   1.000  C
  H7       1.0000 0.83660  0.57230  0.42270  Biso   1.000  H
  H8       1.0000 0.65730  0.43970  0.49110  Biso   1.000  H
  N2       1.0000 0.91010  0.53950  0.48150  Biso   1.000  N
  H9       1.0000 0.93710  0.56700  0.46850  Biso   1.000  H
  H10      1.0000 0.93380  0.52500  0.50210  Biso   1.000  H
  O5       1.0000 0.74250  0.66520  0.29573  Biso   1.000  O
  O6       1.0000 0.60940  0.69550  0.28350  Biso   1.000  O
  O7       1.0000 0.89670  0.80450  0.12670  Biso   1.000  O
  O8       1.0000 0.76290  0.83260  0.11270  Biso   1.000  O
  C13      1.0000 0.81590  0.80500  0.13430  Biso   1.000  C
  C14      1.0000 0.78320  0.76780  0.16870  Biso   1.000  C
  C15      1.0000 0.83910  0.74160  0.19350  Biso   1.000  C
  C16      1.0000 0.69590  0.77420  0.17830  Biso   1.000  C
  H11      1.0000 0.89920  0.74030  0.18800  Biso   1.000  H
  C17      1.0000 0.80760  0.71650  0.22730  Biso   1.000  C
  C18      1.0000 0.66190  0.74680  0.21140  Biso   1.000  C
  H12      1.0000 0.65900  0.79710  0.16250  Biso   1.000  H
  C19      1.0000 0.71780  0.71540  0.23600  Biso   1.000  C
  H13      1.0000 0.84750  0.69990  0.24480  Biso   1.000  H
  N3       1.0000 0.57250  0.75530  0.21640  Biso   1.000  N
  C20      1.0000 0.68970  0.69440  0.27420  Biso   1.000  C
  H14      1.0000 0.54280  0.77550  0.19960  Biso   1.000  H
  H15      1.0000 0.54630  0.74050  0.23630  Biso   1.000  H
  C21      1.0000 0.77500  0.98090  0.99080  Biso   1.000  C
  C22      1.0000 0.71770  0.03460  0.92280  Biso   1.000  C
  H16      1.0000 0.60530  0.98160  0.93410  Biso   1.000  H
  C23      1.0000 0.83080  0.01930  0.96940  Biso   1.000  C
  C24      1.0000 0.80020  0.04600  0.93630  Biso   1.000  C
  H17      1.0000 0.83660  0.07230  0.92270  Biso   1.000  H
  H18      1.0000 0.65730  0.93970  0.99110  Biso   1.000  H
  N4       1.0000 0.91010  0.03950  0.98150  Biso   1.000  N
  H19      1.0000 0.93710  0.06700  0.96850  Biso   1.000  H
  H20      1.0000 0.93380  0.02500  0.00210  Biso   1.000  H
  O9       1.0000 0.24250  0.16520  0.29573  Biso   1.000  O
  O10      1.0000 0.10940  0.19550  0.28350  Biso   1.000  O
  O11      1.0000 0.39670  0.30450  0.12670  Biso   1.000  O
  O12      1.0000 0.26290  0.33260  0.11270  Biso   1.000  O
  C25      1.0000 0.31590  0.30500  0.13430  Biso   1.000  C
  C26      1.0000 0.28320  0.26780  0.16870  Biso   1.000  C
  C27      1.0000 0.33910  0.24160  0.19350  Biso   1.000  C
  C28      1.0000 0.19590  0.27420  0.17830  Biso   1.000  C
  H21      1.0000 0.39920  0.24030  0.18800  Biso   1.000  H
  C29      1.0000 0.30760  0.21650  0.22730  Biso   1.000  C
  C30      1.0000 0.16190  0.24680  0.21140  Biso   1.000  C
  H22      1.0000 0.15900  0.29710  0.16250  Biso   1.000  H
  C31      1.0000 0.21780  0.21540  0.23600  Biso   1.000  C
  H23      1.0000 0.34750  0.19990  0.24480  Biso   1.000  H
  N5       1.0000 0.07250  0.25530  0.21640  Biso   1.000  N
  C32      1.0000 0.18970  0.19440  0.27420  Biso   1.000  C
  H24      1.0000 0.04280  0.27550  0.19960  Biso   1.000  H
  H25      1.0000 0.04630  0.24050  0.23630  Biso   1.000  H
  C33      1.0000 0.27500  0.48090  0.99080  Biso   1.000  C
  C34      1.0000 0.21770  0.53460  0.92280  Biso   1.000  C
  H26      1.0000 0.10530  0.48160  0.93410  Biso   1.000  H
  C35      1.0000 0.33080  0.51930  0.96940  Biso   1.000  C
  C36      1.0000 0.30020  0.54600  0.93630  Biso   1.000  C
  H27      1.0000 0.33660  0.57230  0.92270  Biso   1.000  H
  H28      1.0000 0.15730  0.43970  0.99110  Biso   1.000  H
  N6       1.0000 0.41010  0.53950  0.98150  Biso   1.000  N
  H29      1.0000 0.43710  0.56700  0.96850  Biso   1.000  H
  H30      1.0000 0.43380  0.52500  0.00210  Biso   1.000  H
  O13      1.0000 0.24250  0.66520  0.79573  Biso   1.000  O
  O14      1.0000 0.10940  0.69550  0.78350  Biso   1.000  O
  O15      1.0000 0.39670  0.80450  0.62670  Biso   1.000  O
  O16      1.0000 0.26290  0.83260  0.61270  Biso   1.000  O
  C37      1.0000 0.31590  0.80500  0.63430  Biso   1.000  C
  C38      1.0000 0.28320  0.76780  0.66870  Biso   1.000  C
  C39      1.0000 0.33910  0.74160  0.69350  Biso   1.000  C
  C40      1.0000 0.19590  0.77420  0.67830  Biso   1.000  C
  H31      1.0000 0.39920  0.74030  0.68800  Biso   1.000  H
  C41      1.0000 0.30760  0.71650  0.72730  Biso   1.000  C
  C42      1.0000 0.16190  0.74680  0.71140  Biso   1.000  C
  H32      1.0000 0.15900  0.79710  0.66250  Biso   1.000  H
  C43      1.0000 0.21780  0.71540  0.73600  Biso   1.000  C
  H33      1.0000 0.34750  0.69990  0.74480  Biso   1.000  H
  N7       1.0000 0.07250  0.75530  0.71640  Biso   1.000  N
  C44      1.0000 0.18970  0.69440  0.77420  Biso   1.000  C
  H34      1.0000 0.04280  0.77550  0.69960  Biso   1.000  H
  H35      1.0000 0.04630  0.74050  0.73630  Biso   1.000  H
  C45      1.0000 0.27500  0.98090  0.49080  Biso   1.000  C
  C46      1.0000 0.21770  0.03460  0.42280  Biso   1.000  C
  H36      1.0000 0.10530  0.98160  0.43410  Biso   1.000  H
  C47      1.0000 0.33080  0.01930  0.46940  Biso   1.000  C
  C48      1.0000 0.30020  0.04600  0.43630  Biso   1.000  C
  H37      1.0000 0.33660  0.07230  0.42270  Biso   1.000  H
  H38      1.0000 0.15730  0.93970  0.49110  Biso   1.000  H
  N8       1.0000 0.41010  0.03950  0.48150  Biso   1.000  N
  H39      1.0000 0.43710  0.06700  0.46850  Biso   1.000  H
  H40      1.0000 0.43380  0.02500  0.50210  Biso   1.000  H
  O17      1.0000 0.00750  0.58480  0.79573  Biso   1.000  O
  O18      1.0000 0.14060  0.55450  0.78350  Biso   1.000  O
  O19      1.0000 0.85330  0.44550  0.62670  Biso   1.000  O
  O20      1.0000 0.98710  0.41740  0.61270  Biso   1.000  O
  C49      1.0000 0.93410  0.44500  0.63430  Biso   1.000  C
  C50      1.0000 0.96680  0.48220  0.66870  Biso   1.000  C
  C51      1.0000 0.91090  0.50840  0.69350  Biso   1.000  C
  C52      1.0000 0.05410  0.47580  0.67830  Biso   1.000  C
  H41      1.0000 0.85080  0.50970  0.68800  Biso   1.000  H
  C53      1.0000 0.94240  0.53350  0.72730  Biso   1.000  C
  C54      1.0000 0.08810  0.50320  0.71140  Biso   1.000  C
  H42      1.0000 0.09100  0.45290  0.66250  Biso   1.000  H
  C55      1.0000 0.03220  0.53460  0.73600  Biso   1.000  C
  H43      1.0000 0.90250  0.55010  0.74480  Biso   1.000  H
  N9       1.0000 0.17750  0.49470  0.71640  Biso   1.000  N
  C56      1.0000 0.06030  0.55560  0.77420  Biso   1.000  C
  H44      1.0000 0.20720  0.47450  0.69960  Biso   1.000  H
  H45      1.0000 0.20370  0.50950  0.73630  Biso   1.000  H
  C57      1.0000 0.97500  0.26910  0.49080  Biso   1.000  C
  C58      1.0000 0.03230  0.21540  0.42280  Biso   1.000  C
  H46      1.0000 0.14470  0.26840  0.43410  Biso   1.000  H
  C59      1.0000 0.91920  0.23070  0.46940  Biso   1.000  C
  C60      1.0000 0.94980  0.20400  0.43630  Biso   1.000  C
  H47      1.0000 0.91340  0.17770  0.42270  Biso   1.000  H
  H48      1.0000 0.09270  0.31030  0.49110  Biso   1.000  H
  N10      1.0000 0.83990  0.21050  0.48150  Biso   1.000  N
  H49      1.0000 0.81290  0.18300  0.46850  Biso   1.000  H
  H50      1.0000 0.81620  0.22500  0.50210  Biso   1.000  H
  O21      1.0000 0.00750  0.08480  0.29573  Biso   1.000  O
  O22      1.0000 0.14060  0.05450  0.28350  Biso   1.000  O
  O23      1.0000 0.85330  0.94550  0.12670  Biso   1.000  O
  O24      1.0000 0.98710  0.91740  0.11270  Biso   1.000  O
  C61      1.0000 0.93410  0.94500  0.13430  Biso   1.000  C
  C62      1.0000 0.96680  0.98220  0.16870  Biso   1.000  C
  C63      1.0000 0.91090  0.00840  0.19350  Biso   1.000  C
  C64      1.0000 0.05410  0.97580  0.17830  Biso   1.000  C
  H51      1.0000 0.85080  0.00970  0.18800  Biso   1.000  H
  C65      1.0000 0.94240  0.03350  0.22730  Biso   1.000  C
  C66      1.0000 0.08810  0.00320  0.21140  Biso   1.000  C
  H52      1.0000 0.09100  0.95290  0.16250  Biso   1.000  H
  C67      1.0000 0.03220  0.03460  0.23600  Biso   1.000  C
  H53      1.0000 0.90250  0.05010  0.24480  Biso   1.000  H
  N11      1.0000 0.17750  0.99470  0.21640  Biso   1.000  N
  C68      1.0000 0.06030  0.05560  0.27420  Biso   1.000  C
  H54      1.0000 0.20720  0.97450  0.19960  Biso   1.000  H
  H55      1.0000 0.20370  0.00950  0.23630  Biso   1.000  H
  C69      1.0000 0.97500  0.76910  0.99080  Biso   1.000  C
  C70      1.0000 0.03230  0.71540  0.92280  Biso   1.000  C
  H56      1.0000 0.14470  0.76840  0.93410  Biso   1.000  H
  C71      1.0000 0.91920  0.73070  0.96940  Biso   1.000  C
  C72      1.0000 0.94980  0.70400  0.93630  Biso   1.000  C
  H57      1.0000 0.91340  0.67770  0.92270  Biso   1.000  H
  H58      1.0000 0.09270  0.81030  0.99110  Biso   1.000  H
  N12      1.0000 0.83990  0.71050  0.98150  Biso   1.000  N
  H59      1.0000 0.81290  0.68300  0.96850  Biso   1.000  H
  H60      1.0000 0.81620  0.72500  0.00210  Biso   1.000  H
  O25      1.0000 0.50750  0.58480  0.29573  Biso   1.000  O
  O26      1.0000 0.64060  0.55450  0.28350  Biso   1.000  O
  O27      1.0000 0.35330  0.44550  0.12670  Biso   1.000  O
  O28      1.0000 0.48710  0.41740  0.11270  Biso   1.000  O
  C73      1.0000 0.43410  0.44500  0.13430  Biso   1.000  C
  C74      1.0000 0.46680  0.48220  0.16870  Biso   1.000  C
  C75      1.0000 0.41090  0.50840  0.19350  Biso   1.000  C
  C76      1.0000 0.55410  0.47580  0.17830  Biso   1.000  C
  H61      1.0000 0.35080  0.50970  0.18800  Biso   1.000  H
  C77      1.0000 0.44240  0.53350  0.22730  Biso   1.000  C
  C78      1.0000 0.58810  0.50320  0.21140  Biso   1.000  C
  H62      1.0000 0.59100  0.45290  0.16250  Biso   1.000  H
  C79      1.0000 0.53220  0.53460  0.23600  Biso   1.000  C
  H63      1.0000 0.40250  0.55010  0.24480  Biso   1.000  H
  N13      1.0000 0.67750  0.49470  0.21640  Biso   1.000  N
  C80      1.0000 0.56030  0.55560  0.27420  Biso   1.000  C
  H64      1.0000 0.70720  0.47450  0.19960  Biso   1.000  H
  H65      1.0000 0.70370  0.50950  0.23630  Biso   1.000  H
  C81      1.0000 0.47500  0.26910  0.99080  Biso   1.000  C
  C82      1.0000 0.53230  0.21540  0.92280  Biso   1.000  C
  H66      1.0000 0.64470  0.26840  0.93410  Biso   1.000  H
  C83      1.0000 0.41920  0.23070  0.96940  Biso   1.000  C
  C84      1.0000 0.44980  0.20400  0.93630  Biso   1.000  C
  H67      1.0000 0.41340  0.17770  0.92270  Biso   1.000  H
  H68      1.0000 0.59270  0.31030  0.99110  Biso   1.000  H
  N14      1.0000 0.33990  0.21050  0.98150  Biso   1.000  N
  H69      1.0000 0.31290  0.18300  0.96850  Biso   1.000  H
  H70      1.0000 0.31620  0.22500  0.00210  Biso   1.000  H
  O29      1.0000 0.50750  0.08480  0.79573  Biso   1.000  O
  O30      1.0000 0.64060  0.05450  0.78350  Biso   1.000  O
  O31      1.0000 0.35330  0.94550  0.62670  Biso   1.000  O
  O32      1.0000 0.48710  0.91740  0.61270  Biso   1.000  O
  C85      1.0000 0.43410  0.94500  0.63430  Biso   1.000  C
  C86      1.0000 0.46680  0.98220  0.66870  Biso   1.000  C
  C87      1.0000 0.41090  0.00840  0.69350  Biso   1.000  C
  C88      1.0000 0.55410  0.97580  0.67830  Biso   1.000  C
  H71      1.0000 0.35080  0.00970  0.68800  Biso   1.000  H
  C89      1.0000 0.44240  0.03350  0.72730  Biso   1.000  C
  C90      1.0000 0.58810  0.00320  0.71140  Biso   1.000  C
  H72      1.0000 0.59100  0.95290  0.66250  Biso   1.000  H
  C91      1.0000 0.53220  0.03460  0.73600  Biso   1.000  C
  H73      1.0000 0.40250  0.05010  0.74480  Biso   1.000  H
  N15      1.0000 0.67750  0.99470  0.71640  Biso   1.000  N
  C92      1.0000 0.56030  0.05560  0.77420  Biso   1.000  C
  H74      1.0000 0.70720  0.97450  0.69960  Biso   1.000  H
  H75      1.0000 0.70370  0.00950  0.73630  Biso   1.000  H
  C93      1.0000 0.47500  0.76910  0.49080  Biso   1.000  C
  C94      1.0000 0.53230  0.71540  0.42280  Biso   1.000  C
  H76      1.0000 0.64470  0.76840  0.43410  Biso   1.000  H
  C95      1.0000 0.41920  0.73070  0.46940  Biso   1.000  C
  C96      1.0000 0.44980  0.70400  0.43630  Biso   1.000  C
  H77      1.0000 0.41340  0.67770  0.42270  Biso   1.000  H
  H78      1.0000 0.59270  0.81030  0.49110  Biso   1.000  H
  N16      1.0000 0.33990  0.71050  0.48150  Biso   1.000  N
  H79      1.0000 0.31290  0.68300  0.46850  Biso   1.000  H
  H80      1.0000 0.31620  0.72500  0.50210  Biso   1.000  H
  O33      1.0000 0.99250  0.83480  0.04573  Biso   1.000  O
  O34      1.0000 0.85940  0.80450  0.03350  Biso   1.000  O
  O35      1.0000 0.14670  0.69550  0.87670  Biso   1.000  O
  O36      1.0000 0.01290  0.66740  0.86270  Biso   1.000  O
  C97      1.0000 0.06590  0.69500  0.88430  Biso   1.000  C
  C98      1.0000 0.03320  0.73220  0.91870  Biso   1.000  C
  C99      1.0000 0.08910  0.75840  0.94350  Biso   1.000  C
  C100     1.0000 0.94590  0.72580  0.92830  Biso   1.000  C
  H81      1.0000 0.14920  0.75970  0.93800  Biso   1.000  H
  C101     1.0000 0.05760  0.78350  0.97730  Biso   1.000  C
  C102     1.0000 0.91190  0.75320  0.96140  Biso   1.000  C
  H82      1.0000 0.90900  0.70290  0.91250  Biso   1.000  H
  C103     1.0000 0.96780  0.78460  0.98600  Biso   1.000  C
  H83      1.0000 0.09750  0.80010  0.99480  Biso   1.000  H
  N17      1.0000 0.82250  0.74470  0.96640  Biso   1.000  N
  C104     1.0000 0.93970  0.80560  0.02420  Biso   1.000  C
  H84      1.0000 0.79280  0.72450  0.94960  Biso   1.000  H
  H85      1.0000 0.79630  0.75950  0.98630  Biso   1.000  H
  C105     1.0000 0.02500  0.51910  0.74080  Biso   1.000  C
  C106     1.0000 0.96770  0.46540  0.67280  Biso   1.000  C
  H86      1.0000 0.85530  0.51840  0.68410  Biso   1.000  H
  C107     1.0000 0.08080  0.48070  0.71940  Biso   1.000  C
  C108     1.0000 0.05020  0.45400  0.68630  Biso   1.000  C
  H87      1.0000 0.08660  0.42770  0.67270  Biso   1.000  H
  H88      1.0000 0.90730  0.56030  0.74110  Biso   1.000  H
  N18      1.0000 0.16010  0.46050  0.73150  Biso   1.000  N
  H89      1.0000 0.18710  0.43300  0.71850  Biso   1.000  H
  H90      1.0000 0.18380  0.47500  0.75210  Biso   1.000  H
  O37      1.0000 0.99250  0.33480  0.54573  Biso   1.000  O
  O38      1.0000 0.85940  0.30450  0.53350  Biso   1.000  O
  O39      1.0000 0.14670  0.19550  0.37670  Biso   1.000  O
  O40      1.0000 0.01290  0.16740  0.36270  Biso   1.000  O
  C109     1.0000 0.06590  0.19500  0.38430  Biso   1.000  C
  C110     1.0000 0.03320  0.23220  0.41870  Biso   1.000  C
  C111     1.0000 0.08910  0.25840  0.44350  Biso   1.000  C
  C112     1.0000 0.94590  0.22580  0.42830  Biso   1.000  C
  H91      1.0000 0.14920  0.25970  0.43800  Biso   1.000  H
  C113     1.0000 0.05760  0.28350  0.47730  Biso   1.000  C
  C114     1.0000 0.91190  0.25320  0.46140  Biso   1.000  C
  H92      1.0000 0.90900  0.20290  0.41250  Biso   1.000  H
  C115     1.0000 0.96780  0.28460  0.48600  Biso   1.000  C
  H93      1.0000 0.09750  0.30010  0.49480  Biso   1.000  H
  N19      1.0000 0.82250  0.24470  0.46640  Biso   1.000  N
  C116     1.0000 0.93970  0.30560  0.52420  Biso   1.000  C
  H94      1.0000 0.79280  0.22450  0.44960  Biso   1.000  H
  H95      1.0000 0.79630  0.25950  0.48630  Biso   1.000  H
  C117     1.0000 0.02500  0.01910  0.24080  Biso   1.000  C
  C118     1.0000 0.96770  0.96540  0.17280  Biso   1.000  C
  H96      1.0000 0.85530  0.01840  0.18410  Biso   1.000  H
  C119     1.0000 0.08080  0.98070  0.21940  Biso   1.000  C
  C120     1.0000 0.05020  0.95400  0.18630  Biso   1.000  C
  H97      1.0000 0.08660  0.92770  0.17270  Biso   1.000  H
  H98      1.0000 0.90730  0.06030  0.24110  Biso   1.000  H
  N20      1.0000 0.16010  0.96050  0.23150  Biso   1.000  N
  H99      1.0000 0.18710  0.93300  0.21850  Biso   1.000  H
  H100     1.0000 0.18380  0.97500  0.25210  Biso   1.000  H
  O41      1.0000 0.49250  0.83480  0.54573  Biso   1.000  O
  O42      1.0000 0.35940  0.80450  0.53350  Biso   1.000  O
  O43      1.0000 0.64670  0.69550  0.37670  Biso   1.000  O
  O44      1.0000 0.51290  0.66740  0.36270  Biso   1.000  O
  C121     1.0000 0.56590  0.69500  0.38430  Biso   1.000  C
  C122     1.0000 0.53320  0.73220  0.41870  Biso   1.000  C
  C123     1.0000 0.58910  0.75840  0.44350  Biso   1.000  C
  C124     1.0000 0.44590  0.72580  0.42830  Biso   1.000  C
  H101     1.0000 0.64920  0.75970  0.43800  Biso   1.000  H
  C125     1.0000 0.55760  0.78350  0.47730  Biso   1.000  C
  C126     1.0000 0.41190  0.75320  0.46140  Biso   1.000  C
  H102     1.0000 0.40900  0.70290  0.41250  Biso   1.000  H
  C127     1.0000 0.46780  0.78460  0.48600  Biso   1.000  C
  H103     1.0000 0.59750  0.80010  0.49480  Biso   1.000  H
  N21      1.0000 0.32250  0.74470  0.46640  Biso   1.000  N
  C128     1.0000 0.43970  0.80560  0.52420  Biso   1.000  C
  H104     1.0000 0.29280  0.72450  0.44960  Biso   1.000  H
  H105     1.0000 0.29630  0.75950  0.48630  Biso   1.000  H
  C129     1.0000 0.52500  0.51910  0.24080  Biso   1.000  C
  C130     1.0000 0.46770  0.46540  0.17280  Biso   1.000  C
  H106     1.0000 0.35530  0.51840  0.18410  Biso   1.000  H
  C131     1.0000 0.58080  0.48070  0.21940  Biso   1.000  C
  C132     1.0000 0.55020  0.45400  0.18630  Biso   1.000  C
  H107     1.0000 0.58660  0.42770  0.17270  Biso   1.000  H
  H108     1.0000 0.40730  0.56030  0.24110  Biso   1.000  H
  N22      1.0000 0.66010  0.46050  0.23150  Biso   1.000  N
  H109     1.0000 0.68710  0.43300  0.21850  Biso   1.000  H
  H110     1.0000 0.68380  0.47500  0.25210  Biso   1.000  H
  O45      1.0000 0.49250  0.33480  0.04573  Biso   1.000  O
  O46      1.0000 0.35940  0.30450  0.03350  Biso   1.000  O
  O47      1.0000 0.64670  0.19550  0.87670  Biso   1.000  O
  O48      1.0000 0.51290  0.16740  0.86270  Biso   1.000  O
  C133     1.0000 0.56590  0.19500  0.88430  Biso   1.000  C
  C134     1.0000 0.53320  0.23220  0.91870  Biso   1.000  C
  C135     1.0000 0.58910  0.25840  0.94350  Biso   1.000  C
  C136     1.0000 0.44590  0.22580  0.92830  Biso   1.000  C
  H111     1.0000 0.64920  0.25970  0.93800  Biso   1.000  H
  C137     1.0000 0.55760  0.28350  0.97730  Biso   1.000  C
  C138     1.0000 0.41190  0.25320  0.96140  Biso   1.000  C
  H112     1.0000 0.40900  0.20290  0.91250  Biso   1.000  H
  C139     1.0000 0.46780  0.28460  0.98600  Biso   1.000  C
  H113     1.0000 0.59750  0.30010  0.99480  Biso   1.000  H
  N23      1.0000 0.32250  0.24470  0.96640  Biso   1.000  N
  C140     1.0000 0.43970  0.30560  0.02420  Biso   1.000  C
  H114     1.0000 0.29280  0.22450  0.94960  Biso   1.000  H
  H115     1.0000 0.29630  0.25950  0.98630  Biso   1.000  H
  C141     1.0000 0.52500  0.01910  0.74080  Biso   1.000  C
  C142     1.0000 0.46770  0.96540  0.67280  Biso   1.000  C
  H116     1.0000 0.35530  0.01840  0.68410  Biso   1.000  H
  C143     1.0000 0.58080  0.98070  0.71940  Biso   1.000  C
  C144     1.0000 0.55020  0.95400  0.68630  Biso   1.000  C
  H117     1.0000 0.58660  0.92770  0.67270  Biso   1.000  H
  H118     1.0000 0.40730  0.06030  0.74110  Biso   1.000  H
  N24      1.0000 0.66010  0.96050  0.73150  Biso   1.000  N
  H119     1.0000 0.68710  0.93300  0.71850  Biso   1.000  H
  H120     1.0000 0.68380  0.97500  0.75210  Biso   1.000  H
  O49      1.0000 0.25750  0.41520  0.04573  Biso   1.000  O
  O50      1.0000 0.39060  0.44550  0.03350  Biso   1.000  O
  O51      1.0000 0.10330  0.55450  0.87670  Biso   1.000  O
  O52      1.0000 0.23710  0.58260  0.86270  Biso   1.000  O
  C145     1.0000 0.18410  0.55500  0.88430  Biso   1.000  C
  C146     1.0000 0.21680  0.51780  0.91870  Biso   1.000  C
  C147     1.0000 0.16090  0.49160  0.94350  Biso   1.000  C
  C148     1.0000 0.30410  0.52420  0.92830  Biso   1.000  C
  H121     1.0000 0.10080  0.49030  0.93800  Biso   1.000  H
  C149     1.0000 0.19240  0.46650  0.97730  Biso   1.000  C
  C150     1.0000 0.33810  0.49680  0.96140  Biso   1.000  C
  H122     1.0000 0.34100  0.54710  0.91250  Biso   1.000  H
  C151     1.0000 0.28220  0.46540  0.98600  Biso   1.000  C
  H123     1.0000 0.15250  0.44990  0.99480  Biso   1.000  H
  N25      1.0000 0.42750  0.50530  0.96640  Biso   1.000  N
  C152     1.0000 0.31030  0.44440  0.02420  Biso   1.000  C
  H124     1.0000 0.45720  0.52550  0.94960  Biso   1.000  H
  H125     1.0000 0.45370  0.49050  0.98630  Biso   1.000  H
  C153     1.0000 0.22500  0.73090  0.74080  Biso   1.000  C
  C154     1.0000 0.28230  0.78460  0.67280  Biso   1.000  C
  H126     1.0000 0.39470  0.73160  0.68410  Biso   1.000  H
  C155     1.0000 0.16920  0.76930  0.71940  Biso   1.000  C
  C156     1.0000 0.19980  0.79600  0.68630  Biso   1.000  C
  H127     1.0000 0.16340  0.82230  0.67270  Biso   1.000  H
  H128     1.0000 0.34270  0.68970  0.74110  Biso   1.000  H
  N26      1.0000 0.08990  0.78950  0.73150  Biso   1.000  N
  H129     1.0000 0.06290  0.81700  0.71850  Biso   1.000  H
  H130     1.0000 0.06620  0.77500  0.75210  Biso   1.000  H
  O53      1.0000 0.25750  0.91520  0.54573  Biso   1.000  O
  O54      1.0000 0.39060  0.94550  0.53350  Biso   1.000  O
  O55      1.0000 0.10330  0.05450  0.37670  Biso   1.000  O
  O56      1.0000 0.23710  0.08260  0.36270  Biso   1.000  O
  C157     1.0000 0.18410  0.05500  0.38430  Biso   1.000  C
  C158     1.0000 0.21680  0.01780  0.41870  Biso   1.000  C
  C159     1.0000 0.16090  0.99160  0.44350  Biso   1.000  C
  C160     1.0000 0.30410  0.02420  0.42830  Biso   1.000  C
  H131     1.0000 0.10080  0.99030  0.43800  Biso   1.000  H
  C161     1.0000 0.19240  0.96650  0.47730  Biso   1.000  C
  C162     1.0000 0.33810  0.99680  0.46140  Biso   1.000  C
  H132     1.0000 0.34100  0.04710  0.41250  Biso   1.000  H
  C163     1.0000 0.28220  0.96540  0.48600  Biso   1.000  C
  H133     1.0000 0.15250  0.94990  0.49480  Biso   1.000  H
  N27      1.0000 0.42750  0.00530  0.46640  Biso   1.000  N
  C164     1.0000 0.31030  0.94440  0.52420  Biso   1.000  C
  H134     1.0000 0.45720  0.02550  0.44960  Biso   1.000  H
  H135     1.0000 0.45370  0.99050  0.48630  Biso   1.000  H
  C165     1.0000 0.22500  0.23090  0.24080  Biso   1.000  C
  C166     1.0000 0.28230  0.28460  0.17280  Biso   1.000  C
  H136     1.0000 0.39470  0.23160  0.18410  Biso   1.000  H
  C167     1.0000 0.16920  0.26930  0.21940  Biso   1.000  C
  C168     1.0000 0.19980  0.29600  0.18630  Biso   1.000  C
  H137     1.0000 0.16340  0.32230  0.17270  Biso   1.000  H
  H138     1.0000 0.34270  0.18970  0.24110  Biso   1.000  H
  N28      1.0000 0.08990  0.28950  0.23150  Biso   1.000  N
  H139     1.0000 0.06290  0.31700  0.21850  Biso   1.000  H
  H140     1.0000 0.06620  0.27500  0.25210  Biso   1.000  H
  O57      1.0000 0.75750  0.41520  0.54573  Biso   1.000  O
  O58      1.0000 0.89060  0.44550  0.53350  Biso   1.000  O
  O59      1.0000 0.60330  0.55450  0.37670  Biso   1.000  O
  O60      1.0000 0.73710  0.58260  0.36270  Biso   1.000  O
  C169     1.0000 0.68410  0.55500  0.38430  Biso   1.000  C
  C170     1.0000 0.71680  0.51780  0.41870  Biso   1.000  C
  C171     1.0000 0.66090  0.49160  0.44350  Biso   1.000  C
  C172     1.0000 0.80410  0.52420  0.42830  Biso   1.000  C
  H141     1.0000 0.60080  0.49030  0.43800  Biso   1.000  H
  C173     1.0000 0.69240  0.46650  0.47730  Biso   1.000  C
  C174     1.0000 0.83810  0.49680  0.46140  Biso   1.000  C
  H142     1.0000 0.84100  0.54710  0.41250  Biso   1.000  H
  C175     1.0000 0.78220  0.46540  0.48600  Biso   1.000  C
  H143     1.0000 0.65250  0.44990  0.49480  Biso   1.000  H
  N29      1.0000 0.92750  0.50530  0.46640  Biso   1.000  N
  C176     1.0000 0.81030  0.44440  0.52420  Biso   1.000  C
  H144     1.0000 0.95720  0.52550  0.44960  Biso   1.000  H
  H145     1.0000 0.95370  0.49050  0.48630  Biso   1.000  H
  C177     1.0000 0.72500  0.73090  0.24080  Biso   1.000  C
  C178     1.0000 0.78230  0.78460  0.17280  Biso   1.000  C
  H146     1.0000 0.89470  0.73160  0.18410  Biso   1.000  H
  C179     1.0000 0.66920  0.76930  0.21940  Biso   1.000  C
  C180     1.0000 0.69980  0.79600  0.18630  Biso   1.000  C
  H147     1.0000 0.66340  0.82230  0.17270  Biso   1.000  H
  H148     1.0000 0.84270  0.68970  0.24110  Biso   1.000  H
  N30      1.0000 0.58990  0.78950  0.23150  Biso   1.000  N
  H149     1.0000 0.56290  0.81700  0.21850  Biso   1.000  H
  H150     1.0000 0.56620  0.77500  0.25210  Biso   1.000  H
  O61      1.0000 0.75750  0.91520  0.04573  Biso   1.000  O
  O62      1.0000 0.89060  0.94550  0.03350  Biso   1.000  O
  O63      1.0000 0.60330  0.05450  0.87670  Biso   1.000  O
  O64      1.0000 0.73710  0.08260  0.86270  Biso   1.000  O
  C181     1.0000 0.68410  0.05500  0.88430  Biso   1.000  C
  C182     1.0000 0.71680  0.01780  0.91870  Biso   1.000  C
  C183     1.0000 0.66090  0.99160  0.94350  Biso   1.000  C
  C184     1.0000 0.80410  0.02420  0.92830  Biso   1.000  C
  H151     1.0000 0.60080  0.99030  0.93800  Biso   1.000  H
  C185     1.0000 0.69240  0.96650  0.97730  Biso   1.000  C
  C186     1.0000 0.83810  0.99680  0.96140  Biso   1.000  C
  H152     1.0000 0.84100  0.04710  0.91250  Biso   1.000  H
  C187     1.0000 0.78220  0.96540  0.98600  Biso   1.000  C
  H153     1.0000 0.65250  0.94990  0.99480  Biso   1.000  H
  N31      1.0000 0.92750  0.00530  0.96640  Biso   1.000  N
  C188     1.0000 0.81030  0.94440  0.02420  Biso   1.000  C
  H154     1.0000 0.95720  0.02550  0.94960  Biso   1.000  H
  H155     1.0000 0.95370  0.99050  0.98630  Biso   1.000  H
  C189     1.0000 0.72500  0.23090  0.74080  Biso   1.000  C
  C190     1.0000 0.78230  0.28460  0.67280  Biso   1.000  C
  H156     1.0000 0.89470  0.23160  0.68410  Biso   1.000  H
  C191     1.0000 0.66920  0.26930  0.71940  Biso   1.000  C
  C192     1.0000 0.69980  0.29600  0.68630  Biso   1.000  C
  H157     1.0000 0.66340  0.32230  0.67270  Biso   1.000  H
  H158     1.0000 0.84270  0.18970  0.74110  Biso   1.000  H
  N32      1.0000 0.58990  0.28950  0.73150  Biso   1.000  N
  H159     1.0000 0.56290  0.31700  0.71850  Biso   1.000  H
  H160     1.0000 0.56620  0.27500  0.75210  Biso   1.000  H
  In1      1.0000 0.87500  0.37500  0.57906  Biso   1.000  In
  In2      1.0000 0.87500  0.87500  0.07906  Biso   1.000  In
  In3      1.0000 0.37500  0.37500  0.07906  Biso   1.000  In
  In4      1.0000 0.37500  0.87500  0.57906  Biso   1.000  In
  In5      1.0000 0.12500  0.62500  0.82906  Biso   1.000  In
  In6      1.0000 0.12500  0.12500  0.32906  Biso   1.000  In
  In7      1.0000 0.62500  0.62500  0.32906  Biso   1.000  In
  In8      1.0000 0.62500  0.12500  0.82906  Biso   1.000  In
  O65      1.0000 0.00750  0.16520  0.95427  Biso   1.000  O
  O66      1.0000 0.14060  0.19550  0.96650  Biso   1.000  O
  O67      1.0000 0.85330  0.30450  0.12330  Biso   1.000  O
  O68      1.0000 0.98710  0.33260  0.13730  Biso   1.000  O
  C193     1.0000 0.93410  0.30500  0.11570  Biso   1.000  C
  C194     1.0000 0.96680  0.26780  0.08130  Biso   1.000  C
  C195     1.0000 0.91090  0.24160  0.05650  Biso   1.000  C
  C196     1.0000 0.05410  0.27420  0.07170  Biso   1.000  C
  H161     1.0000 0.85080  0.24030  0.06200  Biso   1.000  H
  C197     1.0000 0.94240  0.21650  0.02270  Biso   1.000  C
  C198     1.0000 0.08810  0.24680  0.03860  Biso   1.000  C
  H162     1.0000 0.09100  0.29710  0.08750  Biso   1.000  H
  C199     1.0000 0.03220  0.21540  0.01400  Biso   1.000  C
  H163     1.0000 0.90250  0.19990  0.00520  Biso   1.000  H
  N33      1.0000 0.17750  0.25530  0.03360  Biso   1.000  N
  C200     1.0000 0.06030  0.19440  0.97580  Biso   1.000  C
  H164     1.0000 0.20720  0.27550  0.05040  Biso   1.000  H
  H165     1.0000 0.20370  0.24050  0.01370  Biso   1.000  H
  C201     1.0000 0.97500  0.48090  0.25920  Biso   1.000  C
  C202     1.0000 0.03230  0.53460  0.32720  Biso   1.000  C
  H166     1.0000 0.14470  0.48160  0.31590  Biso   1.000  H
  C203     1.0000 0.91920  0.51930  0.28060  Biso   1.000  C
  C204     1.0000 0.94980  0.54600  0.31370  Biso   1.000  C
  H167     1.0000 0.91340  0.57230  0.32730  Biso   1.000  H
  H168     1.0000 0.09270  0.43970  0.25890  Biso   1.000  H
  N34      1.0000 0.83990  0.53950  0.26850  Biso   1.000  N
  H169     1.0000 0.81290  0.56700  0.28150  Biso   1.000  H
  H170     1.0000 0.81620  0.52500  0.24790  Biso   1.000  H
  O69      1.0000 0.00750  0.66520  0.45427  Biso   1.000  O
  O70      1.0000 0.14060  0.69550  0.46650  Biso   1.000  O
  O71      1.0000 0.85330  0.80450  0.62330  Biso   1.000  O
  O72      1.0000 0.98710  0.83260  0.63730  Biso   1.000  O
  C205     1.0000 0.93410  0.80500  0.61570  Biso   1.000  C
  C206     1.0000 0.96680  0.76780  0.58130  Biso   1.000  C
  C207     1.0000 0.91090  0.74160  0.55650  Biso   1.000  C
  C208     1.0000 0.05410  0.77420  0.57170  Biso   1.000  C
  H171     1.0000 0.85080  0.74030  0.56200  Biso   1.000  H
  C209     1.0000 0.94240  0.71650  0.52270  Biso   1.000  C
  C210     1.0000 0.08810  0.74680  0.53860  Biso   1.000  C
  H172     1.0000 0.09100  0.79710  0.58750  Biso   1.000  H
  C211     1.0000 0.03220  0.71540  0.51400  Biso   1.000  C
  H173     1.0000 0.90250  0.69990  0.50520  Biso   1.000  H
  N35      1.0000 0.17750  0.75530  0.53360  Biso   1.000  N
  C212     1.0000 0.06030  0.69440  0.47580  Biso   1.000  C
  H174     1.0000 0.20720  0.77550  0.55040  Biso   1.000  H
  H175     1.0000 0.20370  0.74050  0.51370  Biso   1.000  H
  C213     1.0000 0.97500  0.98090  0.75920  Biso   1.000  C
  C214     1.0000 0.03230  0.03460  0.82720  Biso   1.000  C
  H176     1.0000 0.14470  0.98160  0.81590  Biso   1.000  H
  C215     1.0000 0.91920  0.01930  0.78060  Biso   1.000  C
  C216     1.0000 0.94980  0.04600  0.81370  Biso   1.000  C
  H177     1.0000 0.91340  0.07230  0.82730  Biso   1.000  H
  H178     1.0000 0.09270  0.93970  0.75890  Biso   1.000  H
  N36      1.0000 0.83990  0.03950  0.76850  Biso   1.000  N
  H179     1.0000 0.81290  0.06700  0.78150  Biso   1.000  H
  H180     1.0000 0.81620  0.02500  0.74790  Biso   1.000  H
  O73      1.0000 0.50750  0.16520  0.45427  Biso   1.000  O
  O74      1.0000 0.64060  0.19550  0.46650  Biso   1.000  O
  O75      1.0000 0.35330  0.30450  0.62330  Biso   1.000  O
  O76      1.0000 0.48710  0.33260  0.63730  Biso   1.000  O
  C217     1.0000 0.43410  0.30500  0.61570  Biso   1.000  C
  C218     1.0000 0.46680  0.26780  0.58130  Biso   1.000  C
  C219     1.0000 0.41090  0.24160  0.55650  Biso   1.000  C
  C220     1.0000 0.55410  0.27420  0.57170  Biso   1.000  C
  H181     1.0000 0.35080  0.24030  0.56200  Biso   1.000  H
  C221     1.0000 0.44240  0.21650  0.52270  Biso   1.000  C
  C222     1.0000 0.58810  0.24680  0.53860  Biso   1.000  C
  H182     1.0000 0.59100  0.29710  0.58750  Biso   1.000  H
  C223     1.0000 0.53220  0.21540  0.51400  Biso   1.000  C
  H183     1.0000 0.40250  0.19990  0.50520  Biso   1.000  H
  N37      1.0000 0.67750  0.25530  0.53360  Biso   1.000  N
  C224     1.0000 0.56030  0.19440  0.47580  Biso   1.000  C
  H184     1.0000 0.70720  0.27550  0.55040  Biso   1.000  H
  H185     1.0000 0.70370  0.24050  0.51370  Biso   1.000  H
  C225     1.0000 0.47500  0.48090  0.75920  Biso   1.000  C
  C226     1.0000 0.53230  0.53460  0.82720  Biso   1.000  C
  H186     1.0000 0.64470  0.48160  0.81590  Biso   1.000  H
  C227     1.0000 0.41920  0.51930  0.78060  Biso   1.000  C
  C228     1.0000 0.44980  0.54600  0.81370  Biso   1.000  C
  H187     1.0000 0.41340  0.57230  0.82730  Biso   1.000  H
  H188     1.0000 0.59270  0.43970  0.75890  Biso   1.000  H
  N38      1.0000 0.33990  0.53950  0.76850  Biso   1.000  N
  H189     1.0000 0.31290  0.56700  0.78150  Biso   1.000  H
  H190     1.0000 0.31620  0.52500  0.74790  Biso   1.000  H
  O77      1.0000 0.50750  0.66520  0.95427  Biso   1.000  O
  O78      1.0000 0.64060  0.69550  0.96650  Biso   1.000  O
  O79      1.0000 0.35330  0.80450  0.12330  Biso   1.000  O
  O80      1.0000 0.48710  0.83260  0.13730  Biso   1.000  O
  C229     1.0000 0.43410  0.80500  0.11570  Biso   1.000  C
  C230     1.0000 0.46680  0.76780  0.08130  Biso   1.000  C
  C231     1.0000 0.41090  0.74160  0.05650  Biso   1.000  C
  C232     1.0000 0.55410  0.77420  0.07170  Biso   1.000  C
  H191     1.0000 0.35080  0.74030  0.06200  Biso   1.000  H
  C233     1.0000 0.44240  0.71650  0.02270  Biso   1.000  C
  C234     1.0000 0.58810  0.74680  0.03860  Biso   1.000  C
  H192     1.0000 0.59100  0.79710  0.08750  Biso   1.000  H
  C235     1.0000 0.53220  0.71540  0.01400  Biso   1.000  C
  H193     1.0000 0.40250  0.69990  0.00520  Biso   1.000  H
  N39      1.0000 0.67750  0.75530  0.03360  Biso   1.000  N
  C236     1.0000 0.56030  0.69440  0.97580  Biso   1.000  C
  H194     1.0000 0.70720  0.77550  0.05040  Biso   1.000  H
  H195     1.0000 0.70370  0.74050  0.01370  Biso   1.000  H
  C237     1.0000 0.47500  0.98090  0.25920  Biso   1.000  C
  C238     1.0000 0.53230  0.03460  0.32720  Biso   1.000  C
  H196     1.0000 0.64470  0.98160  0.31590  Biso   1.000  H
  C239     1.0000 0.41920  0.01930  0.28060  Biso   1.000  C
  C240     1.0000 0.44980  0.04600  0.31370  Biso   1.000  C
  H197     1.0000 0.41340  0.07230  0.32730  Biso   1.000  H
  H198     1.0000 0.59270  0.93970  0.25890  Biso   1.000  H
  N40      1.0000 0.33990  0.03950  0.26850  Biso   1.000  N
  H199     1.0000 0.31290  0.06700  0.28150  Biso   1.000  H
  H200     1.0000 0.31620  0.02500  0.24790  Biso   1.000  H
  O81      1.0000 0.74250  0.58480  0.95427  Biso   1.000  O
  O82      1.0000 0.60940  0.55450  0.96650  Biso   1.000  O
  O83      1.0000 0.89670  0.44550  0.12330  Biso   1.000  O
  O84      1.0000 0.76290  0.41740  0.13730  Biso   1.000  O
  C241     1.0000 0.81590  0.44500  0.11570  Biso   1.000  C
  C242     1.0000 0.78320  0.48220  0.08130  Biso   1.000  C
  C243     1.0000 0.83910  0.50840  0.05650  Biso   1.000  C
  C244     1.0000 0.69590  0.47580  0.07170  Biso   1.000  C
  H201     1.0000 0.89920  0.50970  0.06200  Biso   1.000  H
  C245     1.0000 0.80760  0.53350  0.02270  Biso   1.000  C
  C246     1.0000 0.66190  0.50320  0.03860  Biso   1.000  C
  H202     1.0000 0.65900  0.45290  0.08750  Biso   1.000  H
  C247     1.0000 0.71780  0.53460  0.01400  Biso   1.000  C
  H203     1.0000 0.84750  0.55010  0.00520  Biso   1.000  H
  N41      1.0000 0.57250  0.49470  0.03360  Biso   1.000  N
  C248     1.0000 0.68970  0.55560  0.97580  Biso   1.000  C
  H204     1.0000 0.54280  0.47450  0.05040  Biso   1.000  H
  H205     1.0000 0.54630  0.50950  0.01370  Biso   1.000  H
  C249     1.0000 0.77500  0.26910  0.25920  Biso   1.000  C
  C250     1.0000 0.71770  0.21540  0.32720  Biso   1.000  C
  H206     1.0000 0.60530  0.26840  0.31590  Biso   1.000  H
  C251     1.0000 0.83080  0.23070  0.28060  Biso   1.000  C
  C252     1.0000 0.80020  0.20400  0.31370  Biso   1.000  C
  H207     1.0000 0.83660  0.17770  0.32730  Biso   1.000  H
  H208     1.0000 0.65730  0.31030  0.25890  Biso   1.000  H
  N42      1.0000 0.91010  0.21050  0.26850  Biso   1.000  N
  H209     1.0000 0.93710  0.18300  0.28150  Biso   1.000  H
  H210     1.0000 0.93380  0.22500  0.24790  Biso   1.000  H
  O85      1.0000 0.74250  0.08480  0.45427  Biso   1.000  O
  O86      1.0000 0.60940  0.05450  0.46650  Biso   1.000  O
  O87      1.0000 0.89670  0.94550  0.62330  Biso   1.000  O
  O88      1.0000 0.76290  0.91740  0.63730  Biso   1.000  O
  C253     1.0000 0.81590  0.94500  0.61570  Biso   1.000  C
  C254     1.0000 0.78320  0.98220  0.58130  Biso   1.000  C
  C255     1.0000 0.83910  0.00840  0.55650  Biso   1.000  C
  C256     1.0000 0.69590  0.97580  0.57170  Biso   1.000  C
  H211     1.0000 0.89920  0.00970  0.56200  Biso   1.000  H
  C257     1.0000 0.80760  0.03350  0.52270  Biso   1.000  C
  C258     1.0000 0.66190  0.00320  0.53860  Biso   1.000  C
  H212     1.0000 0.65900  0.95290  0.58750  Biso   1.000  H
  C259     1.0000 0.71780  0.03460  0.51400  Biso   1.000  C
  H213     1.0000 0.84750  0.05010  0.50520  Biso   1.000  H
  N43      1.0000 0.57250  0.99470  0.53360  Biso   1.000  N
  C260     1.0000 0.68970  0.05560  0.47580  Biso   1.000  C
  H214     1.0000 0.54280  0.97450  0.55040  Biso   1.000  H
  H215     1.0000 0.54630  0.00950  0.51370  Biso   1.000  H
  C261     1.0000 0.77500  0.76910  0.75920  Biso   1.000  C
  C262     1.0000 0.71770  0.71540  0.82720  Biso   1.000  C
  H216     1.0000 0.60530  0.76840  0.81590  Biso   1.000  H
  C263     1.0000 0.83080  0.73070  0.78060  Biso   1.000  C
  C264     1.0000 0.80020  0.70400  0.81370  Biso   1.000  C
  H217     1.0000 0.83660  0.67770  0.82730  Biso   1.000  H
  H218     1.0000 0.65730  0.81030  0.75890  Biso   1.000  H
  N44      1.0000 0.91010  0.71050  0.76850  Biso   1.000  N
  H219     1.0000 0.93710  0.68300  0.78150  Biso   1.000  H
  H220     1.0000 0.93380  0.72500  0.74790  Biso   1.000  H
  O89      1.0000 0.24250  0.58480  0.45427  Biso   1.000  O
  O90      1.0000 0.10940  0.55450  0.46650  Biso   1.000  O
  O91      1.0000 0.39670  0.44550  0.62330  Biso   1.000  O
  O92      1.0000 0.26290  0.41740  0.63730  Biso   1.000  O
  C265     1.0000 0.31590  0.44500  0.61570  Biso   1.000  C
  C266     1.0000 0.28320  0.48220  0.58130  Biso   1.000  C
  C267     1.0000 0.33910  0.50840  0.55650  Biso   1.000  C
  C268     1.0000 0.19590  0.47580  0.57170  Biso   1.000  C
  H221     1.0000 0.39920  0.50970  0.56200  Biso   1.000  H
  C269     1.0000 0.30760  0.53350  0.52270  Biso   1.000  C
  C270     1.0000 0.16190  0.50320  0.53860  Biso   1.000  C
  H222     1.0000 0.15900  0.45290  0.58750  Biso   1.000  H
  C271     1.0000 0.21780  0.53460  0.51400  Biso   1.000  C
  H223     1.0000 0.34750  0.55010  0.50520  Biso   1.000  H
  N45      1.0000 0.07250  0.49470  0.53360  Biso   1.000  N
  C272     1.0000 0.18970  0.55560  0.47580  Biso   1.000  C
  H224     1.0000 0.04280  0.47450  0.55040  Biso   1.000  H
  H225     1.0000 0.04630  0.50950  0.51370  Biso   1.000  H
  C273     1.0000 0.27500  0.26910  0.75920  Biso   1.000  C
  C274     1.0000 0.21770  0.21540  0.82720  Biso   1.000  C
  H226     1.0000 0.10530  0.26840  0.81590  Biso   1.000  H
  C275     1.0000 0.33080  0.23070  0.78060  Biso   1.000  C
  C276     1.0000 0.30020  0.20400  0.81370  Biso   1.000  C
  H227     1.0000 0.33660  0.17770  0.82730  Biso   1.000  H
  H228     1.0000 0.15730  0.31030  0.75890  Biso   1.000  H
  N46      1.0000 0.41010  0.21050  0.76850  Biso   1.000  N
  H229     1.0000 0.43710  0.18300  0.78150  Biso   1.000  H
  H230     1.0000 0.43380  0.22500  0.74790  Biso   1.000  H
  O93      1.0000 0.24250  0.08480  0.95427  Biso   1.000  O
  O94      1.0000 0.10940  0.05450  0.96650  Biso   1.000  O
  O95      1.0000 0.39670  0.94550  0.12330  Biso   1.000  O
  O96      1.0000 0.26290  0.91740  0.13730  Biso   1.000  O
  C277     1.0000 0.31590  0.94500  0.11570  Biso   1.000  C
  C278     1.0000 0.28320  0.98220  0.08130  Biso   1.000  C
  C279     1.0000 0.33910  0.00840  0.05650  Biso   1.000  C
  C280     1.0000 0.19590  0.97580  0.07170  Biso   1.000  C
  H231     1.0000 0.39920  0.00970  0.06200  Biso   1.000  H
  C281     1.0000 0.30760  0.03350  0.02270  Biso   1.000  C
  C282     1.0000 0.16190  0.00320  0.03860  Biso   1.000  C
  H232     1.0000 0.15900  0.95290  0.08750  Biso   1.000  H
  C283     1.0000 0.21780  0.03460  0.01400  Biso   1.000  C
  H233     1.0000 0.34750  0.05010  0.00520  Biso   1.000  H
  N47      1.0000 0.07250  0.99470  0.03360  Biso   1.000  N
  C284     1.0000 0.18970  0.05560  0.97580  Biso   1.000  C
  H234     1.0000 0.04280  0.97450  0.05040  Biso   1.000  H
  H235     1.0000 0.04630  0.00950  0.01370  Biso   1.000  H
  C285     1.0000 0.27500  0.76910  0.25920  Biso   1.000  C
  C286     1.0000 0.21770  0.71540  0.32720  Biso   1.000  C
  H236     1.0000 0.10530  0.76840  0.31590  Biso   1.000  H
  C287     1.0000 0.33080  0.73070  0.28060  Biso   1.000  C
  C288     1.0000 0.30020  0.70400  0.31370  Biso   1.000  C
  H237     1.0000 0.33660  0.67770  0.32730  Biso   1.000  H
  H238     1.0000 0.15730  0.81030  0.25890  Biso   1.000  H
  N48      1.0000 0.41010  0.71050  0.26850  Biso   1.000  N
  H239     1.0000 0.43710  0.68300  0.28150  Biso   1.000  H
  H240     1.0000 0.43380  0.72500  0.24790  Biso   1.000  H
  O97      1.0000 0.25750  0.83480  0.20427  Biso   1.000  O
  O98      1.0000 0.39060  0.80450  0.21650  Biso   1.000  O
  O99      1.0000 0.10330  0.69550  0.37330  Biso   1.000  O
  O100     1.0000 0.23710  0.66740  0.38730  Biso   1.000  O
  C289     1.0000 0.18410  0.69500  0.36570  Biso   1.000  C
  C290     1.0000 0.21680  0.73220  0.33130  Biso   1.000  C
  C291     1.0000 0.16090  0.75840  0.30650  Biso   1.000  C
  C292     1.0000 0.30410  0.72580  0.32170  Biso   1.000  C
  H241     1.0000 0.10080  0.75970  0.31200  Biso   1.000  H
  C293     1.0000 0.19240  0.78350  0.27270  Biso   1.000  C
  C294     1.0000 0.33810  0.75320  0.28860  Biso   1.000  C
  H242     1.0000 0.34100  0.70290  0.33750  Biso   1.000  H
  C295     1.0000 0.28220  0.78460  0.26400  Biso   1.000  C
  H243     1.0000 0.15250  0.80010  0.25520  Biso   1.000  H
  N49      1.0000 0.42750  0.74470  0.28360  Biso   1.000  N
  C296     1.0000 0.31030  0.80560  0.22580  Biso   1.000  C
  H244     1.0000 0.45720  0.72450  0.30040  Biso   1.000  H
  H245     1.0000 0.45370  0.75950  0.26370  Biso   1.000  H
  C297     1.0000 0.22500  0.51910  0.50920  Biso   1.000  C
  C298     1.0000 0.28230  0.46540  0.57720  Biso   1.000  C
  H246     1.0000 0.39470  0.51840  0.56590  Biso   1.000  H
  C299     1.0000 0.16920  0.48070  0.53060  Biso   1.000  C
  C300     1.0000 0.19980  0.45400  0.56370  Biso   1.000  C
  H247     1.0000 0.16340  0.42770  0.57730  Biso   1.000  H
  H248     1.0000 0.34270  0.56030  0.50890  Biso   1.000  H
  N50      1.0000 0.08990  0.46050  0.51850  Biso   1.000  N
  H249     1.0000 0.06290  0.43300  0.53150  Biso   1.000  H
  H250     1.0000 0.06620  0.47500  0.49790  Biso   1.000  H
  O101     1.0000 0.25750  0.33480  0.70427  Biso   1.000  O
  O102     1.0000 0.39060  0.30450  0.71650  Biso   1.000  O
  O103     1.0000 0.10330  0.19550  0.87330  Biso   1.000  O
  O104     1.0000 0.23710  0.16740  0.88730  Biso   1.000  O
  C301     1.0000 0.18410  0.19500  0.86570  Biso   1.000  C
  C302     1.0000 0.21680  0.23220  0.83130  Biso   1.000  C
  C303     1.0000 0.16090  0.25840  0.80650  Biso   1.000  C
  C304     1.0000 0.30410  0.22580  0.82170  Biso   1.000  C
  H251     1.0000 0.10080  0.25970  0.81200  Biso   1.000  H
  C305     1.0000 0.19240  0.28350  0.77270  Biso   1.000  C
  C306     1.0000 0.33810  0.25320  0.78860  Biso   1.000  C
  H252     1.0000 0.34100  0.20290  0.83750  Biso   1.000  H
  C307     1.0000 0.28220  0.28460  0.76400  Biso   1.000  C
  H253     1.0000 0.15250  0.30010  0.75520  Biso   1.000  H
  N51      1.0000 0.42750  0.24470  0.78360  Biso   1.000  N
  C308     1.0000 0.31030  0.30560  0.72580  Biso   1.000  C
  H254     1.0000 0.45720  0.22450  0.80040  Biso   1.000  H
  H255     1.0000 0.45370  0.25950  0.76370  Biso   1.000  H
  C309     1.0000 0.22500  0.01910  0.00920  Biso   1.000  C
  C310     1.0000 0.28230  0.96540  0.07720  Biso   1.000  C
  H256     1.0000 0.39470  0.01840  0.06590  Biso   1.000  H
  C311     1.0000 0.16920  0.98070  0.03060  Biso   1.000  C
  C312     1.0000 0.19980  0.95400  0.06370  Biso   1.000  C
  H257     1.0000 0.16340  0.92770  0.07730  Biso   1.000  H
  H258     1.0000 0.34270  0.06030  0.00890  Biso   1.000  H
  N52      1.0000 0.08990  0.96050  0.01850  Biso   1.000  N
  H259     1.0000 0.06290  0.93300  0.03150  Biso   1.000  H
  H260     1.0000 0.06620  0.97500  0.99790  Biso   1.000  H
  O105     1.0000 0.75750  0.83480  0.70427  Biso   1.000  O
  O106     1.0000 0.89060  0.80450  0.71650  Biso   1.000  O
  O107     1.0000 0.60330  0.69550  0.87330  Biso   1.000  O
  O108     1.0000 0.73710  0.66740  0.88730  Biso   1.000  O
  C313     1.0000 0.68410  0.69500  0.86570  Biso   1.000  C
  C314     1.0000 0.71680  0.73220  0.83130  Biso   1.000  C
  C315     1.0000 0.66090  0.75840  0.80650  Biso   1.000  C
  C316     1.0000 0.80410  0.72580  0.82170  Biso   1.000  C
  H261     1.0000 0.60080  0.75970  0.81200  Biso   1.000  H
  C317     1.0000 0.69240  0.78350  0.77270  Biso   1.000  C
  C318     1.0000 0.83810  0.75320  0.78860  Biso   1.000  C
  H262     1.0000 0.84100  0.70290  0.83750  Biso   1.000  H
  C319     1.0000 0.78220  0.78460  0.76400  Biso   1.000  C
  H263     1.0000 0.65250  0.80010  0.75520  Biso   1.000  H
  N53      1.0000 0.92750  0.74470  0.78360  Biso   1.000  N
  C320     1.0000 0.81030  0.80560  0.72580  Biso   1.000  C
  H264     1.0000 0.95720  0.72450  0.80040  Biso   1.000  H
  H265     1.0000 0.95370  0.75950  0.76370  Biso   1.000  H
  C321     1.0000 0.72500  0.51910  0.00920  Biso   1.000  C
  C322     1.0000 0.78230  0.46540  0.07720  Biso   1.000  C
  H266     1.0000 0.89470  0.51840  0.06590  Biso   1.000  H
  C323     1.0000 0.66920  0.48070  0.03060  Biso   1.000  C
  C324     1.0000 0.69980  0.45400  0.06370  Biso   1.000  C
  H267     1.0000 0.66340  0.42770  0.07730  Biso   1.000  H
  H268     1.0000 0.84270  0.56030  0.00890  Biso   1.000  H
  N54      1.0000 0.58990  0.46050  0.01850  Biso   1.000  N
  H269     1.0000 0.56290  0.43300  0.03150  Biso   1.000  H
  H270     1.0000 0.56620  0.47500  0.99790  Biso   1.000  H
  O109     1.0000 0.75750  0.33480  0.20427  Biso   1.000  O
  O110     1.0000 0.89060  0.30450  0.21650  Biso   1.000  O
  O111     1.0000 0.60330  0.19550  0.37330  Biso   1.000  O
  O112     1.0000 0.73710  0.16740  0.38730  Biso   1.000  O
  C325     1.0000 0.68410  0.19500  0.36570  Biso   1.000  C
  C326     1.0000 0.71680  0.23220  0.33130  Biso   1.000  C
  C327     1.0000 0.66090  0.25840  0.30650  Biso   1.000  C
  C328     1.0000 0.80410  0.22580  0.32170  Biso   1.000  C
  H271     1.0000 0.60080  0.25970  0.31200  Biso   1.000  H
  C329     1.0000 0.69240  0.28350  0.27270  Biso   1.000  C
  C330     1.0000 0.83810  0.25320  0.28860  Biso   1.000  C
  H272     1.0000 0.84100  0.20290  0.33750  Biso   1.000  H
  C331     1.0000 0.78220  0.28460  0.26400  Biso   1.000  C
  H273     1.0000 0.65250  0.30010  0.25520  Biso   1.000  H
  N55      1.0000 0.92750  0.24470  0.28360  Biso   1.000  N
  C332     1.0000 0.81030  0.30560  0.22580  Biso   1.000  C
  H274     1.0000 0.95720  0.22450  0.30040  Biso   1.000  H
  H275     1.0000 0.95370  0.25950  0.26370  Biso   1.000  H
  C333     1.0000 0.72500  0.01910  0.50920  Biso   1.000  C
  C334     1.0000 0.78230  0.96540  0.57720  Biso   1.000  C
  H276     1.0000 0.89470  0.01840  0.56590  Biso   1.000  H
  C335     1.0000 0.66920  0.98070  0.53060  Biso   1.000  C
  C336     1.0000 0.69980  0.95400  0.56370  Biso   1.000  C
  H277     1.0000 0.66340  0.92770  0.57730  Biso   1.000  H
  H278     1.0000 0.84270  0.06030  0.50890  Biso   1.000  H
  N56      1.0000 0.58990  0.96050  0.51850  Biso   1.000  N
  H279     1.0000 0.56290  0.93300  0.53150  Biso   1.000  H
  H280     1.0000 0.56620  0.97500  0.49790  Biso   1.000  H
  O113     1.0000 0.99250  0.41520  0.20427  Biso   1.000  O
  O114     1.0000 0.85940  0.44550  0.21650  Biso   1.000  O
  O115     1.0000 0.14670  0.55450  0.37330  Biso   1.000  O
  O116     1.0000 0.01290  0.58260  0.38730  Biso   1.000  O
  C337     1.0000 0.06590  0.55500  0.36570  Biso   1.000  C
  C338     1.0000 0.03320  0.51780  0.33130  Biso   1.000  C
  C339     1.0000 0.08910  0.49160  0.30650  Biso   1.000  C
  C340     1.0000 0.94590  0.52420  0.32170  Biso   1.000  C
  H281     1.0000 0.14920  0.49030  0.31200  Biso   1.000  H
  C341     1.0000 0.05760  0.46650  0.27270  Biso   1.000  C
  C342     1.0000 0.91190  0.49680  0.28860  Biso   1.000  C
  H282     1.0000 0.90900  0.54710  0.33750  Biso   1.000  H
  C343     1.0000 0.96780  0.46540  0.26400  Biso   1.000  C
  H283     1.0000 0.09750  0.44990  0.25520  Biso   1.000  H
  N57      1.0000 0.82250  0.50530  0.28360  Biso   1.000  N
  C344     1.0000 0.93970  0.44440  0.22580  Biso   1.000  C
  H284     1.0000 0.79280  0.52550  0.30040  Biso   1.000  H
  H285     1.0000 0.79630  0.49050  0.26370  Biso   1.000  H
  C345     1.0000 0.02500  0.73090  0.50920  Biso   1.000  C
  C346     1.0000 0.96770  0.78460  0.57720  Biso   1.000  C
  H286     1.0000 0.85530  0.73160  0.56590  Biso   1.000  H
  C347     1.0000 0.08080  0.76930  0.53060  Biso   1.000  C
  C348     1.0000 0.05020  0.79600  0.56370  Biso   1.000  C
  H287     1.0000 0.08660  0.82230  0.57730  Biso   1.000  H
  H288     1.0000 0.90730  0.68970  0.50890  Biso   1.000  H
  N58      1.0000 0.16010  0.78950  0.51850  Biso   1.000  N
  H289     1.0000 0.18710  0.81700  0.53150  Biso   1.000  H
  H290     1.0000 0.18380  0.77500  0.49790  Biso   1.000  H
  O117     1.0000 0.99250  0.91520  0.70427  Biso   1.000  O
  O118     1.0000 0.85940  0.94550  0.71650  Biso   1.000  O
  O119     1.0000 0.14670  0.05450  0.87330  Biso   1.000  O
  O120     1.0000 0.01290  0.08260  0.88730  Biso   1.000  O
  C349     1.0000 0.06590  0.05500  0.86570  Biso   1.000  C
  C350     1.0000 0.03320  0.01780  0.83130  Biso   1.000  C
  C351     1.0000 0.08910  0.99160  0.80650  Biso   1.000  C
  C352     1.0000 0.94590  0.02420  0.82170  Biso   1.000  C
  H291     1.0000 0.14920  0.99030  0.81200  Biso   1.000  H
  C353     1.0000 0.05760  0.96650  0.77270  Biso   1.000  C
  C354     1.0000 0.91190  0.99680  0.78860  Biso   1.000  C
  H292     1.0000 0.90900  0.04710  0.83750  Biso   1.000  H
  C355     1.0000 0.96780  0.96540  0.76400  Biso   1.000  C
  H293     1.0000 0.09750  0.94990  0.75520  Biso   1.000  H
  N59      1.0000 0.82250  0.00530  0.78360  Biso   1.000  N
  C356     1.0000 0.93970  0.94440  0.72580  Biso   1.000  C
  H294     1.0000 0.79280  0.02550  0.80040  Biso   1.000  H
  H295     1.0000 0.79630  0.99050  0.76370  Biso   1.000  H
  C357     1.0000 0.02500  0.23090  0.00920  Biso   1.000  C
  C358     1.0000 0.96770  0.28460  0.07720  Biso   1.000  C
  H296     1.0000 0.85530  0.23160  0.06590  Biso   1.000  H
  C359     1.0000 0.08080  0.26930  0.03060  Biso   1.000  C
  C360     1.0000 0.05020  0.29600  0.06370  Biso   1.000  C
  H297     1.0000 0.08660  0.32230  0.07730  Biso   1.000  H
  H298     1.0000 0.90730  0.18970  0.00890  Biso   1.000  H
  N60      1.0000 0.16010  0.28950  0.01850  Biso   1.000  N
  H299     1.0000 0.18710  0.31700  0.03150  Biso   1.000  H
  H300     1.0000 0.18380  0.27500  0.99790  Biso   1.000  H
  O121     1.0000 0.49250  0.41520  0.70427  Biso   1.000  O
  O122     1.0000 0.35940  0.44550  0.71650  Biso   1.000  O
  O123     1.0000 0.64670  0.55450  0.87330  Biso   1.000  O
  O124     1.0000 0.51290  0.58260  0.88730  Biso   1.000  O
  C361     1.0000 0.56590  0.55500  0.86570  Biso   1.000  C
  C362     1.0000 0.53320  0.51780  0.83130  Biso   1.000  C
  C363     1.0000 0.58910  0.49160  0.80650  Biso   1.000  C
  C364     1.0000 0.44590  0.52420  0.82170  Biso   1.000  C
  H301     1.0000 0.64920  0.49030  0.81200  Biso   1.000  H
  C365     1.0000 0.55760  0.46650  0.77270  Biso   1.000  C
  C366     1.0000 0.41190  0.49680  0.78860  Biso   1.000  C
  H302     1.0000 0.40900  0.54710  0.83750  Biso   1.000  H
  C367     1.0000 0.46780  0.46540  0.76400  Biso   1.000  C
  H303     1.0000 0.59750  0.44990  0.75520  Biso   1.000  H
  N61      1.0000 0.32250  0.50530  0.78360  Biso   1.000  N
  C368     1.0000 0.43970  0.44440  0.72580  Biso   1.000  C
  H304     1.0000 0.29280  0.52550  0.80040  Biso   1.000  H
  H305     1.0000 0.29630  0.49050  0.76370  Biso   1.000  H
  C369     1.0000 0.52500  0.73090  0.00920  Biso   1.000  C
  C370     1.0000 0.46770  0.78460  0.07720  Biso   1.000  C
  H306     1.0000 0.35530  0.73160  0.06590  Biso   1.000  H
  C371     1.0000 0.58080  0.76930  0.03060  Biso   1.000  C
  C372     1.0000 0.55020  0.79600  0.06370  Biso   1.000  C
  H307     1.0000 0.58660  0.82230  0.07730  Biso   1.000  H
  H308     1.0000 0.40730  0.68970  0.00890  Biso   1.000  H
  N62      1.0000 0.66010  0.78950  0.01850  Biso   1.000  N
  H309     1.0000 0.68710  0.81700  0.03150  Biso   1.000  H
  H310     1.0000 0.68380  0.77500  0.99790  Biso   1.000  H
  O125     1.0000 0.49250  0.91520  0.20427  Biso   1.000  O
  O126     1.0000 0.35940  0.94550  0.21650  Biso   1.000  O
  O127     1.0000 0.64670  0.05450  0.37330  Biso   1.000  O
  O128     1.0000 0.51290  0.08260  0.38730  Biso   1.000  O
  C373     1.0000 0.56590  0.05500  0.36570  Biso   1.000  C
  C374     1.0000 0.53320  0.01780  0.33130  Biso   1.000  C
  C375     1.0000 0.58910  0.99160  0.30650  Biso   1.000  C
  C376     1.0000 0.44590  0.02420  0.32170  Biso   1.000  C
  H311     1.0000 0.64920  0.99030  0.31200  Biso   1.000  H
  C377     1.0000 0.55760  0.96650  0.27270  Biso   1.000  C
  C378     1.0000 0.41190  0.99680  0.28860  Biso   1.000  C
  H312     1.0000 0.40900  0.04710  0.33750  Biso   1.000  H
  C379     1.0000 0.46780  0.96540  0.26400  Biso   1.000  C
  H313     1.0000 0.59750  0.94990  0.25520  Biso   1.000  H
  N63      1.0000 0.32250  0.00530  0.28360  Biso   1.000  N
  C380     1.0000 0.43970  0.94440  0.22580  Biso   1.000  C
  H314     1.0000 0.29280  0.02550  0.30040  Biso   1.000  H
  H315     1.0000 0.29630  0.99050  0.26370  Biso   1.000  H
  C381     1.0000 0.52500  0.23090  0.50920  Biso   1.000  C
  C382     1.0000 0.46770  0.28460  0.57720  Biso   1.000  C
  H316     1.0000 0.35530  0.23160  0.56590  Biso   1.000  H
  C383     1.0000 0.58080  0.26930  0.53060  Biso   1.000  C
  C384     1.0000 0.55020  0.29600  0.56370  Biso   1.000  C
  H317     1.0000 0.58660  0.32230  0.57730  Biso   1.000  H
  H318     1.0000 0.40730  0.18970  0.50890  Biso   1.000  H
  N64      1.0000 0.66010  0.28950  0.51850  Biso   1.000  N
  H319     1.0000 0.68710  0.31700  0.53150  Biso   1.000  H
  H320     1.0000 0.68380  0.27500  0.49790  Biso   1.000  H
  In9      1.0000 0.87500  0.37500  0.17094  Biso   1.000  In
  In10     1.0000 0.87500  0.87500  0.67094  Biso   1.000  In
  In11     1.0000 0.37500  0.37500  0.67094  Biso   1.000  In
  In12     1.0000 0.37500  0.87500  0.17094  Biso   1.000  In
  In13     1.0000 0.12500  0.62500  0.42094  Biso   1.000  In
  In14     1.0000 0.12500  0.12500  0.92094  Biso   1.000  In
  In15     1.0000 0.62500  0.62500  0.92094  Biso   1.000  In
  In16     1.0000 0.62500  0.12500  0.42094  Biso   1.000  In
