data_image0
_cell_length_a       36.1226
_cell_length_b       36.1226
_cell_length_c       36.1226
_cell_angle_alpha    90
_cell_angle_beta     90
_cell_angle_gamma    90

_symmetry_space_group_name_H-M    "P 1"
_symmetry_int_tables_number       1

loop_
  _symmetry_equiv_pos_as_xyz
  'x, y, z'

loop_
  _atom_site_label
  _atom_site_occupancy
  _atom_site_fract_x
  _atom_site_fract_y
  _atom_site_fract_z
  _atom_site_thermal_displace_type
  _atom_site_B_iso_or_equiv
  _atom_site_type_symbol
  O1       1.0000 0.28804  0.20640  0.19520  Biso   1.000  O
  O2       1.0000 0.25310  0.25060  0.16977  Biso   1.000  O
  C1       1.0000 0.28600  0.16570  0.13110  Biso   1.000  C
  H1       1.0000 0.29690  0.15570  0.15280  Biso   1.000  H
  C2       1.0000 0.25600  0.21510  0.10040  Biso   1.000  C
  H2       1.0000 0.24570  0.23920  0.10060  Biso   1.000  H
  C3       1.0000 0.28600  0.14600  0.09980  Biso   1.000  C
  H3       1.0000 0.29690  0.12210  0.09970  Biso   1.000  H
  C4       1.0000 0.27160  0.13750  0.03230  Biso   1.000  C
  C5       1.0000 0.27020  0.15970  0.06700  Biso   1.000  C
  C6       1.0000 0.27010  0.20060  0.13180  Biso   1.000  C
  C7       1.0000 0.27120  0.10010  0.03330  Biso   1.000  C
  H4       1.0000 0.27100  0.08740  0.05630  Biso   1.000  H
  C8       1.0000 0.25650  0.19460  0.06760  Biso   1.000  C
  H5       1.0000 0.24700  0.20520  0.04550  Biso   1.000  H
  C9       1.0000 0.27090  0.22050  0.16890  Biso   1.000  C
  C10      1.0000 0.25310  0.01980  0.97270  Biso   1.000  C
  H6       1.0000 0.23980  0.03250  0.95380  Biso   1.000  H
  C11      1.0000 0.28950  0.01940  0.97340  Biso   1.000  C
  H7       1.0000 0.30210  0.03170  0.95400  Biso   1.000  H
  O3       1.0000 0.71196  0.79360  0.19520  Biso   1.000  O
  O4       1.0000 0.74690  0.74940  0.16977  Biso   1.000  O
  C12      1.0000 0.71400  0.83430  0.13110  Biso   1.000  C
  H8       1.0000 0.70310  0.84430  0.15280  Biso   1.000  H
  C13      1.0000 0.74400  0.78490  0.10040  Biso   1.000  C
  H9       1.0000 0.75430  0.76080  0.10060  Biso   1.000  H
  C14      1.0000 0.71400  0.85400  0.09980  Biso   1.000  C
  H10      1.0000 0.70310  0.87790  0.09970  Biso   1.000  H
  C15      1.0000 0.72840  0.86250  0.03230  Biso   1.000  C
  C16      1.0000 0.72980  0.84030  0.06700  Biso   1.000  C
  C17      1.0000 0.72990  0.79940  0.13180  Biso   1.000  C
  C18      1.0000 0.72880  0.89990  0.03330  Biso   1.000  C
  H11      1.0000 0.72900  0.91260  0.05630  Biso   1.000  H
  C19      1.0000 0.74350  0.80540  0.06760  Biso   1.000  C
  H12      1.0000 0.75300  0.79480  0.04550  Biso   1.000  H
  C20      1.0000 0.72910  0.77950  0.16890  Biso   1.000  C
  C21      1.0000 0.74690  0.98020  0.97270  Biso   1.000  C
  H13      1.0000 0.76020  0.96750  0.95380  Biso   1.000  H
  C22      1.0000 0.71050  0.98060  0.97340  Biso   1.000  C
  H14      1.0000 0.69790  0.96830  0.95400  Biso   1.000  H
  O5       1.0000 0.71196  0.20640  0.80480  Biso   1.000  O
  O6       1.0000 0.74690  0.25060  0.83023  Biso   1.000  O
  C23      1.0000 0.71400  0.16570  0.86890  Biso   1.000  C
  H15      1.0000 0.70310  0.15570  0.84720  Biso   1.000  H
  C24      1.0000 0.74400  0.21510  0.89960  Biso   1.000  C
  H16      1.0000 0.75430  0.23920  0.89940  Biso   1.000  H
  C25      1.0000 0.71400  0.14600  0.90020  Biso   1.000  C
  H17      1.0000 0.70310  0.12210  0.90030  Biso   1.000  H
  C26      1.0000 0.72840  0.13750  0.96770  Biso   1.000  C
  C27      1.0000 0.72980  0.15970  0.93300  Biso   1.000  C
  C28      1.0000 0.72990  0.20060  0.86820  Biso   1.000  C
  C29      1.0000 0.72880  0.10010  0.96670  Biso   1.000  C
  H18      1.0000 0.72900  0.08740  0.94370  Biso   1.000  H
  C30      1.0000 0.74350  0.19460  0.93240  Biso   1.000  C
  H19      1.0000 0.75300  0.20520  0.95450  Biso   1.000  H
  C31      1.0000 0.72910  0.22050  0.83110  Biso   1.000  C
  C32      1.0000 0.74690  0.01980  0.02730  Biso   1.000  C
  H20      1.0000 0.76020  0.03250  0.04620  Biso   1.000  H
  C33      1.0000 0.71050  0.01940  0.02660  Biso   1.000  C
  H21      1.0000 0.69790  0.03170  0.04600  Biso   1.000  H
  O7       1.0000 0.28804  0.79360  0.80480  Biso   1.000  O
  O8       1.0000 0.25310  0.74940  0.83023  Biso   1.000  O
  C34      1.0000 0.28600  0.83430  0.86890  Biso   1.000  C
  H22      1.0000 0.29690  0.84430  0.84720  Biso   1.000  H
  C35      1.0000 0.25600  0.78490  0.89960  Biso   1.000  C
  H23      1.0000 0.24570  0.76080  0.89940  Biso   1.000  H
  C36      1.0000 0.28600  0.85400  0.90020  Biso   1.000  C
  H24      1.0000 0.29690  0.87790  0.90030  Biso   1.000  H
  C37      1.0000 0.27160  0.86250  0.96770  Biso   1.000  C
  C38      1.0000 0.27020  0.84030  0.93300  Biso   1.000  C
  C39      1.0000 0.27010  0.79940  0.86820  Biso   1.000  C
  C40      1.0000 0.27120  0.89990  0.96670  Biso   1.000  C
  H25      1.0000 0.27100  0.91260  0.94370  Biso   1.000  H
  C41      1.0000 0.25650  0.80540  0.93240  Biso   1.000  C
  H26      1.0000 0.24700  0.79480  0.95450  Biso   1.000  H
  C42      1.0000 0.27090  0.77950  0.83110  Biso   1.000  C
  C43      1.0000 0.25310  0.98020  0.02730  Biso   1.000  C
  H27      1.0000 0.23980  0.96750  0.04620  Biso   1.000  H
  C44      1.0000 0.28950  0.98060  0.02660  Biso   1.000  C
  H28      1.0000 0.30210  0.96830  0.04600  Biso   1.000  H
  O9       1.0000 0.19520  0.28804  0.20640  Biso   1.000  O
  O10      1.0000 0.16977  0.25310  0.25060  Biso   1.000  O
  C45      1.0000 0.13110  0.28600  0.16570  Biso   1.000  C
  H29      1.0000 0.15280  0.29690  0.15570  Biso   1.000  H
  C46      1.0000 0.10040  0.25600  0.21510  Biso   1.000  C
  H30      1.0000 0.10060  0.24570  0.23920  Biso   1.000  H
  C47      1.0000 0.09980  0.28600  0.14600  Biso   1.000  C
  H31      1.0000 0.09970  0.29690  0.12210  Biso   1.000  H
  C48      1.0000 0.03230  0.27160  0.13750  Biso   1.000  C
  C49      1.0000 0.06700  0.27020  0.15970  Biso   1.000  C
  C50      1.0000 0.13180  0.27010  0.20060  Biso   1.000  C
  C51      1.0000 0.03330  0.27120  0.10010  Biso   1.000  C
  H32      1.0000 0.05630  0.27100  0.08740  Biso   1.000  H
  C52      1.0000 0.06760  0.25650  0.19460  Biso   1.000  C
  H33      1.0000 0.04550  0.24700  0.20520  Biso   1.000  H
  C53      1.0000 0.16890  0.27090  0.22050  Biso   1.000  C
  C54      1.0000 0.97270  0.25310  0.01980  Biso   1.000  C
  H34      1.0000 0.95380  0.23980  0.03250  Biso   1.000  H
  C55      1.0000 0.97340  0.28950  0.01940  Biso   1.000  C
  H35      1.0000 0.95400  0.30210  0.03170  Biso   1.000  H
  O11      1.0000 0.19520  0.71196  0.79360  Biso   1.000  O
  O12      1.0000 0.16977  0.74690  0.74940  Biso   1.000  O
  C56      1.0000 0.13110  0.71400  0.83430  Biso   1.000  C
  H36      1.0000 0.15280  0.70310  0.84430  Biso   1.000  H
  C57      1.0000 0.10040  0.74400  0.78490  Biso   1.000  C
  H37      1.0000 0.10060  0.75430  0.76080  Biso   1.000  H
  C58      1.0000 0.09980  0.71400  0.85400  Biso   1.000  C
  H38      1.0000 0.09970  0.70310  0.87790  Biso   1.000  H
  C59      1.0000 0.03230  0.72840  0.86250  Biso   1.000  C
  C60      1.0000 0.06700  0.72980  0.84030  Biso   1.000  C
  C61      1.0000 0.13180  0.72990  0.79940  Biso   1.000  C
  C62      1.0000 0.03330  0.72880  0.89990  Biso   1.000  C
  H39      1.0000 0.05630  0.72900  0.91260  Biso   1.000  H
  C63      1.0000 0.06760  0.74350  0.80540  Biso   1.000  C
  H40      1.0000 0.04550  0.75300  0.79480  Biso   1.000  H
  C64      1.0000 0.16890  0.72910  0.77950  Biso   1.000  C
  C65      1.0000 0.97270  0.74690  0.98020  Biso   1.000  C
  H41      1.0000 0.95380  0.76020  0.96750  Biso   1.000  H
  C66      1.0000 0.97340  0.71050  0.98060  Biso   1.000  C
  H42      1.0000 0.95400  0.69790  0.96830  Biso   1.000  H
  O13      1.0000 0.80480  0.71196  0.20640  Biso   1.000  O
  O14      1.0000 0.83023  0.74690  0.25060  Biso   1.000  O
  C67      1.0000 0.86890  0.71400  0.16570  Biso   1.000  C
  H43      1.0000 0.84720  0.70310  0.15570  Biso   1.000  H
  C68      1.0000 0.89960  0.74400  0.21510  Biso   1.000  C
  H44      1.0000 0.89940  0.75430  0.23920  Biso   1.000  H
  C69      1.0000 0.90020  0.71400  0.14600  Biso   1.000  C
  H45      1.0000 0.90030  0.70310  0.12210  Biso   1.000  H
  C70      1.0000 0.96770  0.72840  0.13750  Biso   1.000  C
  C71      1.0000 0.93300  0.72980  0.15970  Biso   1.000  C
  C72      1.0000 0.86820  0.72990  0.20060  Biso   1.000  C
  C73      1.0000 0.96670  0.72880  0.10010  Biso   1.000  C
  H46      1.0000 0.94370  0.72900  0.08740  Biso   1.000  H
  C74      1.0000 0.93240  0.74350  0.19460  Biso   1.000  C
  H47      1.0000 0.95450  0.75300  0.20520  Biso   1.000  H
  C75      1.0000 0.83110  0.72910  0.22050  Biso   1.000  C
  C76      1.0000 0.02730  0.74690  0.01980  Biso   1.000  C
  H48      1.0000 0.04620  0.76020  0.03250  Biso   1.000  H
  C77      1.0000 0.02660  0.71050  0.01940  Biso   1.000  C
  H49      1.0000 0.04600  0.69790  0.03170  Biso   1.000  H
  O15      1.0000 0.80480  0.28804  0.79360  Biso   1.000  O
  O16      1.0000 0.83023  0.25310  0.74940  Biso   1.000  O
  C78      1.0000 0.86890  0.28600  0.83430  Biso   1.000  C
  H50      1.0000 0.84720  0.29690  0.84430  Biso   1.000  H
  C79      1.0000 0.89960  0.25600  0.78490  Biso   1.000  C
  H51      1.0000 0.89940  0.24570  0.76080  Biso   1.000  H
  C80      1.0000 0.90020  0.28600  0.85400  Biso   1.000  C
  H52      1.0000 0.90030  0.29690  0.87790  Biso   1.000  H
  C81      1.0000 0.96770  0.27160  0.86250  Biso   1.000  C
  C82      1.0000 0.93300  0.27020  0.84030  Biso   1.000  C
  C83      1.0000 0.86820  0.27010  0.79940  Biso   1.000  C
  C84      1.0000 0.96670  0.27120  0.89990  Biso   1.000  C
  H53      1.0000 0.94370  0.27100  0.91260  Biso   1.000  H
  C85      1.0000 0.93240  0.25650  0.80540  Biso   1.000  C
  H54      1.0000 0.95450  0.24700  0.79480  Biso   1.000  H
  C86      1.0000 0.83110  0.27090  0.77950  Biso   1.000  C
  C87      1.0000 0.02730  0.25310  0.98020  Biso   1.000  C
  H55      1.0000 0.04620  0.23980  0.96750  Biso   1.000  H
  C88      1.0000 0.02660  0.28950  0.98060  Biso   1.000  C
  H56      1.0000 0.04600  0.30210  0.96830  Biso   1.000  H
  O17      1.0000 0.20640  0.19520  0.28804  Biso   1.000  O
  O18      1.0000 0.25060  0.16977  0.25310  Biso   1.000  O
  C89      1.0000 0.16570  0.13110  0.28600  Biso   1.000  C
  H57      1.0000 0.15570  0.15280  0.29690  Biso   1.000  H
  C90      1.0000 0.21510  0.10040  0.25600  Biso   1.000  C
  H58      1.0000 0.23920  0.10060  0.24570  Biso   1.000  H
  C91      1.0000 0.14600  0.09980  0.28600  Biso   1.000  C
  H59      1.0000 0.12210  0.09970  0.29690  Biso   1.000  H
  C92      1.0000 0.13750  0.03230  0.27160  Biso   1.000  C
  C93      1.0000 0.15970  0.06700  0.27020  Biso   1.000  C
  C94      1.0000 0.20060  0.13180  0.27010  Biso   1.000  C
  C95      1.0000 0.10010  0.03330  0.27120  Biso   1.000  C
  H60      1.0000 0.08740  0.05630  0.27100  Biso   1.000  H
  C96      1.0000 0.19460  0.06760  0.25650  Biso   1.000  C
  H61      1.0000 0.20520  0.04550  0.24700  Biso   1.000  H
  C97      1.0000 0.22050  0.16890  0.27090  Biso   1.000  C
  C98      1.0000 0.01980  0.97270  0.25310  Biso   1.000  C
  H62      1.0000 0.03250  0.95380  0.23980  Biso   1.000  H
  C99      1.0000 0.01940  0.97340  0.28950  Biso   1.000  C
  H63      1.0000 0.03170  0.95400  0.30210  Biso   1.000  H
  O19      1.0000 0.79360  0.19520  0.71196  Biso   1.000  O
  O20      1.0000 0.74940  0.16977  0.74690  Biso   1.000  O
  C100     1.0000 0.83430  0.13110  0.71400  Biso   1.000  C
  H64      1.0000 0.84430  0.15280  0.70310  Biso   1.000  H
  C101     1.0000 0.78490  0.10040  0.74400  Biso   1.000  C
  H65      1.0000 0.76080  0.10060  0.75430  Biso   1.000  H
  C102     1.0000 0.85400  0.09980  0.71400  Biso   1.000  C
  H66      1.0000 0.87790  0.09970  0.70310  Biso   1.000  H
  C103     1.0000 0.86250  0.03230  0.72840  Biso   1.000  C
  C104     1.0000 0.84030  0.06700  0.72980  Biso   1.000  C
  C105     1.0000 0.79940  0.13180  0.72990  Biso   1.000  C
  C106     1.0000 0.89990  0.03330  0.72880  Biso   1.000  C
  H67      1.0000 0.91260  0.05630  0.72900  Biso   1.000  H
  C107     1.0000 0.80540  0.06760  0.74350  Biso   1.000  C
  H68      1.0000 0.79480  0.04550  0.75300  Biso   1.000  H
  C108     1.0000 0.77950  0.16890  0.72910  Biso   1.000  C
  C109     1.0000 0.98020  0.97270  0.74690  Biso   1.000  C
  H69      1.0000 0.96750  0.95380  0.76020  Biso   1.000  H
  C110     1.0000 0.98060  0.97340  0.71050  Biso   1.000  C
  H70      1.0000 0.96830  0.95400  0.69790  Biso   1.000  H
  O21      1.0000 0.20640  0.80480  0.71196  Biso   1.000  O
  O22      1.0000 0.25060  0.83023  0.74690  Biso   1.000  O
  C111     1.0000 0.16570  0.86890  0.71400  Biso   1.000  C
  H71      1.0000 0.15570  0.84720  0.70310  Biso   1.000  H
  C112     1.0000 0.21510  0.89960  0.74400  Biso   1.000  C
  H72      1.0000 0.23920  0.89940  0.75430  Biso   1.000  H
  C113     1.0000 0.14600  0.90020  0.71400  Biso   1.000  C
  H73      1.0000 0.12210  0.90030  0.70310  Biso   1.000  H
  C114     1.0000 0.13750  0.96770  0.72840  Biso   1.000  C
  C115     1.0000 0.15970  0.93300  0.72980  Biso   1.000  C
  C116     1.0000 0.20060  0.86820  0.72990  Biso   1.000  C
  C117     1.0000 0.10010  0.96670  0.72880  Biso   1.000  C
  H74      1.0000 0.08740  0.94370  0.72900  Biso   1.000  H
  C118     1.0000 0.19460  0.93240  0.74350  Biso   1.000  C
  H75      1.0000 0.20520  0.95450  0.75300  Biso   1.000  H
  C119     1.0000 0.22050  0.83110  0.72910  Biso   1.000  C
  C120     1.0000 0.01980  0.02730  0.74690  Biso   1.000  C
  H76      1.0000 0.03250  0.04620  0.76020  Biso   1.000  H
  C121     1.0000 0.01940  0.02660  0.71050  Biso   1.000  C
  H77      1.0000 0.03170  0.04600  0.69790  Biso   1.000  H
  O23      1.0000 0.79360  0.80480  0.28804  Biso   1.000  O
  O24      1.0000 0.74940  0.83023  0.25310  Biso   1.000  O
  C122     1.0000 0.83430  0.86890  0.28600  Biso   1.000  C
  H78      1.0000 0.84430  0.84720  0.29690  Biso   1.000  H
  C123     1.0000 0.78490  0.89960  0.25600  Biso   1.000  C
  H79      1.0000 0.76080  0.89940  0.24570  Biso   1.000  H
  C124     1.0000 0.85400  0.90020  0.28600  Biso   1.000  C
  H80      1.0000 0.87790  0.90030  0.29690  Biso   1.000  H
  C125     1.0000 0.86250  0.96770  0.27160  Biso   1.000  C
  C126     1.0000 0.84030  0.93300  0.27020  Biso   1.000  C
  C127     1.0000 0.79940  0.86820  0.27010  Biso   1.000  C
  C128     1.0000 0.89990  0.96670  0.27120  Biso   1.000  C
  H81      1.0000 0.91260  0.94370  0.27100  Biso   1.000  H
  C129     1.0000 0.80540  0.93240  0.25650  Biso   1.000  C
  H82      1.0000 0.79480  0.95450  0.24700  Biso   1.000  H
  C130     1.0000 0.77950  0.83110  0.27090  Biso   1.000  C
  C131     1.0000 0.98020  0.02730  0.25310  Biso   1.000  C
  H83      1.0000 0.96750  0.04620  0.23980  Biso   1.000  H
  C132     1.0000 0.98060  0.02660  0.28950  Biso   1.000  C
  H84      1.0000 0.96830  0.04600  0.30210  Biso   1.000  H
  O25      1.0000 0.70640  0.78804  0.30480  Biso   1.000  O
  O26      1.0000 0.75060  0.75310  0.33023  Biso   1.000  O
  C133     1.0000 0.66570  0.78600  0.36890  Biso   1.000  C
  H85      1.0000 0.65570  0.79690  0.34720  Biso   1.000  H
  C134     1.0000 0.71510  0.75600  0.39960  Biso   1.000  C
  H86      1.0000 0.73920  0.74570  0.39940  Biso   1.000  H
  C135     1.0000 0.64600  0.78600  0.40020  Biso   1.000  C
  H87      1.0000 0.62210  0.79690  0.40030  Biso   1.000  H
  C136     1.0000 0.63750  0.77160  0.46770  Biso   1.000  C
  C137     1.0000 0.65970  0.77020  0.43300  Biso   1.000  C
  C138     1.0000 0.70060  0.77010  0.36820  Biso   1.000  C
  C139     1.0000 0.60010  0.77120  0.46670  Biso   1.000  C
  H88      1.0000 0.58740  0.77100  0.44370  Biso   1.000  H
  C140     1.0000 0.69460  0.75650  0.43240  Biso   1.000  C
  H89      1.0000 0.70520  0.74700  0.45450  Biso   1.000  H
  C141     1.0000 0.72050  0.77090  0.33110  Biso   1.000  C
  C142     1.0000 0.51980  0.75310  0.52730  Biso   1.000  C
  H90      1.0000 0.53250  0.73980  0.54620  Biso   1.000  H
  C143     1.0000 0.51940  0.78950  0.52660  Biso   1.000  C
  H91      1.0000 0.53170  0.80210  0.54600  Biso   1.000  H
  O27      1.0000 0.29360  0.21196  0.30480  Biso   1.000  O
  O28      1.0000 0.24940  0.24690  0.33023  Biso   1.000  O
  C144     1.0000 0.33430  0.21400  0.36890  Biso   1.000  C
  H92      1.0000 0.34430  0.20310  0.34720  Biso   1.000  H
  C145     1.0000 0.28490  0.24400  0.39960  Biso   1.000  C
  H93      1.0000 0.26080  0.25430  0.39940  Biso   1.000  H
  C146     1.0000 0.35400  0.21400  0.40020  Biso   1.000  C
  H94      1.0000 0.37790  0.20310  0.40030  Biso   1.000  H
  C147     1.0000 0.36250  0.22840  0.46770  Biso   1.000  C
  C148     1.0000 0.34030  0.22980  0.43300  Biso   1.000  C
  C149     1.0000 0.29940  0.22990  0.36820  Biso   1.000  C
  C150     1.0000 0.39990  0.22880  0.46670  Biso   1.000  C
  H95      1.0000 0.41260  0.22900  0.44370  Biso   1.000  H
  C151     1.0000 0.30540  0.24350  0.43240  Biso   1.000  C
  H96      1.0000 0.29480  0.25300  0.45450  Biso   1.000  H
  C152     1.0000 0.27950  0.22910  0.33110  Biso   1.000  C
  C153     1.0000 0.48020  0.24690  0.52730  Biso   1.000  C
  H97      1.0000 0.46750  0.26020  0.54620  Biso   1.000  H
  C154     1.0000 0.48060  0.21050  0.52660  Biso   1.000  C
  H98      1.0000 0.46830  0.19790  0.54600  Biso   1.000  H
  O29      1.0000 0.70640  0.21196  0.69520  Biso   1.000  O
  O30      1.0000 0.75060  0.24690  0.66977  Biso   1.000  O
  C155     1.0000 0.66570  0.21400  0.63110  Biso   1.000  C
  H99      1.0000 0.65570  0.20310  0.65280  Biso   1.000  H
  C156     1.0000 0.71510  0.24400  0.60040  Biso   1.000  C
  H100     1.0000 0.73920  0.25430  0.60060  Biso   1.000  H
  C157     1.0000 0.64600  0.21400  0.59980  Biso   1.000  C
  H101     1.0000 0.62210  0.20310  0.59970  Biso   1.000  H
  C158     1.0000 0.63750  0.22840  0.53230  Biso   1.000  C
  C159     1.0000 0.65970  0.22980  0.56700  Biso   1.000  C
  C160     1.0000 0.70060  0.22990  0.63180  Biso   1.000  C
  C161     1.0000 0.60010  0.22880  0.53330  Biso   1.000  C
  H102     1.0000 0.58740  0.22900  0.55630  Biso   1.000  H
  C162     1.0000 0.69460  0.24350  0.56760  Biso   1.000  C
  H103     1.0000 0.70520  0.25300  0.54550  Biso   1.000  H
  C163     1.0000 0.72050  0.22910  0.66890  Biso   1.000  C
  C164     1.0000 0.51980  0.24690  0.47270  Biso   1.000  C
  H104     1.0000 0.53250  0.26020  0.45380  Biso   1.000  H
  C165     1.0000 0.51940  0.21050  0.47340  Biso   1.000  C
  H105     1.0000 0.53170  0.19790  0.45400  Biso   1.000  H
  O31      1.0000 0.29360  0.78804  0.69520  Biso   1.000  O
  O32      1.0000 0.24940  0.75310  0.66977  Biso   1.000  O
  C166     1.0000 0.33430  0.78600  0.63110  Biso   1.000  C
  H106     1.0000 0.34430  0.79690  0.65280  Biso   1.000  H
  C167     1.0000 0.28490  0.75600  0.60040  Biso   1.000  C
  H107     1.0000 0.26080  0.74570  0.60060  Biso   1.000  H
  C168     1.0000 0.35400  0.78600  0.59980  Biso   1.000  C
  H108     1.0000 0.37790  0.79690  0.59970  Biso   1.000  H
  C169     1.0000 0.36250  0.77160  0.53230  Biso   1.000  C
  C170     1.0000 0.34030  0.77020  0.56700  Biso   1.000  C
  C171     1.0000 0.29940  0.77010  0.63180  Biso   1.000  C
  C172     1.0000 0.39990  0.77120  0.53330  Biso   1.000  C
  H109     1.0000 0.41260  0.77100  0.55630  Biso   1.000  H
  C173     1.0000 0.30540  0.75650  0.56760  Biso   1.000  C
  H110     1.0000 0.29480  0.74700  0.54550  Biso   1.000  H
  C174     1.0000 0.27950  0.77090  0.66890  Biso   1.000  C
  C175     1.0000 0.48020  0.75310  0.47270  Biso   1.000  C
  H111     1.0000 0.46750  0.73980  0.45380  Biso   1.000  H
  C176     1.0000 0.48060  0.78950  0.47340  Biso   1.000  C
  H112     1.0000 0.46830  0.80210  0.45400  Biso   1.000  H
  O33      1.0000 0.78804  0.69520  0.29360  Biso   1.000  O
  O34      1.0000 0.75310  0.66977  0.24940  Biso   1.000  O
  C177     1.0000 0.78600  0.63110  0.33430  Biso   1.000  C
  H113     1.0000 0.79690  0.65280  0.34430  Biso   1.000  H
  C178     1.0000 0.75600  0.60040  0.28490  Biso   1.000  C
  H114     1.0000 0.74570  0.60060  0.26080  Biso   1.000  H
  C179     1.0000 0.78600  0.59980  0.35400  Biso   1.000  C
  H115     1.0000 0.79690  0.59970  0.37790  Biso   1.000  H
  C180     1.0000 0.77160  0.53230  0.36250  Biso   1.000  C
  C181     1.0000 0.77020  0.56700  0.34030  Biso   1.000  C
  C182     1.0000 0.77010  0.63180  0.29940  Biso   1.000  C
  C183     1.0000 0.77120  0.53330  0.39990  Biso   1.000  C
  H116     1.0000 0.77100  0.55630  0.41260  Biso   1.000  H
  C184     1.0000 0.75650  0.56760  0.30540  Biso   1.000  C
  H117     1.0000 0.74700  0.54550  0.29480  Biso   1.000  H
  C185     1.0000 0.77090  0.66890  0.27950  Biso   1.000  C
  C186     1.0000 0.75310  0.47270  0.48020  Biso   1.000  C
  H118     1.0000 0.73980  0.45380  0.46750  Biso   1.000  H
  C187     1.0000 0.78950  0.47340  0.48060  Biso   1.000  C
  H119     1.0000 0.80210  0.45400  0.46830  Biso   1.000  H
  O35      1.0000 0.21196  0.69520  0.70640  Biso   1.000  O
  O36      1.0000 0.24690  0.66977  0.75060  Biso   1.000  O
  C188     1.0000 0.21400  0.63110  0.66570  Biso   1.000  C
  H120     1.0000 0.20310  0.65280  0.65570  Biso   1.000  H
  C189     1.0000 0.24400  0.60040  0.71510  Biso   1.000  C
  H121     1.0000 0.25430  0.60060  0.73920  Biso   1.000  H
  C190     1.0000 0.21400  0.59980  0.64600  Biso   1.000  C
  H122     1.0000 0.20310  0.59970  0.62210  Biso   1.000  H
  C191     1.0000 0.22840  0.53230  0.63750  Biso   1.000  C
  C192     1.0000 0.22980  0.56700  0.65970  Biso   1.000  C
  C193     1.0000 0.22990  0.63180  0.70060  Biso   1.000  C
  C194     1.0000 0.22880  0.53330  0.60010  Biso   1.000  C
  H123     1.0000 0.22900  0.55630  0.58740  Biso   1.000  H
  C195     1.0000 0.24350  0.56760  0.69460  Biso   1.000  C
  H124     1.0000 0.25300  0.54550  0.70520  Biso   1.000  H
  C196     1.0000 0.22910  0.66890  0.72050  Biso   1.000  C
  C197     1.0000 0.24690  0.47270  0.51980  Biso   1.000  C
  H125     1.0000 0.26020  0.45380  0.53250  Biso   1.000  H
  C198     1.0000 0.21050  0.47340  0.51940  Biso   1.000  C
  H126     1.0000 0.19790  0.45400  0.53170  Biso   1.000  H
  O37      1.0000 0.21196  0.30480  0.29360  Biso   1.000  O
  O38      1.0000 0.24690  0.33023  0.24940  Biso   1.000  O
  C199     1.0000 0.21400  0.36890  0.33430  Biso   1.000  C
  H127     1.0000 0.20310  0.34720  0.34430  Biso   1.000  H
  C200     1.0000 0.24400  0.39960  0.28490  Biso   1.000  C
  H128     1.0000 0.25430  0.39940  0.26080  Biso   1.000  H
  C201     1.0000 0.21400  0.40020  0.35400  Biso   1.000  C
  H129     1.0000 0.20310  0.40030  0.37790  Biso   1.000  H
  C202     1.0000 0.22840  0.46770  0.36250  Biso   1.000  C
  C203     1.0000 0.22980  0.43300  0.34030  Biso   1.000  C
  C204     1.0000 0.22990  0.36820  0.29940  Biso   1.000  C
  C205     1.0000 0.22880  0.46670  0.39990  Biso   1.000  C
  H130     1.0000 0.22900  0.44370  0.41260  Biso   1.000  H
  C206     1.0000 0.24350  0.43240  0.30540  Biso   1.000  C
  H131     1.0000 0.25300  0.45450  0.29480  Biso   1.000  H
  C207     1.0000 0.22910  0.33110  0.27950  Biso   1.000  C
  C208     1.0000 0.24690  0.52730  0.48020  Biso   1.000  C
  H132     1.0000 0.26020  0.54620  0.46750  Biso   1.000  H
  C209     1.0000 0.21050  0.52660  0.48060  Biso   1.000  C
  H133     1.0000 0.19790  0.54600  0.46830  Biso   1.000  H
  O39      1.0000 0.78804  0.30480  0.70640  Biso   1.000  O
  O40      1.0000 0.75310  0.33023  0.75060  Biso   1.000  O
  C210     1.0000 0.78600  0.36890  0.66570  Biso   1.000  C
  H134     1.0000 0.79690  0.34720  0.65570  Biso   1.000  H
  C211     1.0000 0.75600  0.39960  0.71510  Biso   1.000  C
  H135     1.0000 0.74570  0.39940  0.73920  Biso   1.000  H
  C212     1.0000 0.78600  0.40020  0.64600  Biso   1.000  C
  H136     1.0000 0.79690  0.40030  0.62210  Biso   1.000  H
  C213     1.0000 0.77160  0.46770  0.63750  Biso   1.000  C
  C214     1.0000 0.77020  0.43300  0.65970  Biso   1.000  C
  C215     1.0000 0.77010  0.36820  0.70060  Biso   1.000  C
  C216     1.0000 0.77120  0.46670  0.60010  Biso   1.000  C
  H137     1.0000 0.77100  0.44370  0.58740  Biso   1.000  H
  C217     1.0000 0.75650  0.43240  0.69460  Biso   1.000  C
  H138     1.0000 0.74700  0.45450  0.70520  Biso   1.000  H
  C218     1.0000 0.77090  0.33110  0.72050  Biso   1.000  C
  C219     1.0000 0.75310  0.52730  0.51980  Biso   1.000  C
  H139     1.0000 0.73980  0.54620  0.53250  Biso   1.000  H
  C220     1.0000 0.78950  0.52660  0.51940  Biso   1.000  C
  H140     1.0000 0.80210  0.54600  0.53170  Biso   1.000  H
  O41      1.0000 0.69520  0.70640  0.21196  Biso   1.000  O
  O42      1.0000 0.66977  0.75060  0.24690  Biso   1.000  O
  C221     1.0000 0.63110  0.66570  0.21400  Biso   1.000  C
  H141     1.0000 0.65280  0.65570  0.20310  Biso   1.000  H
  C222     1.0000 0.60040  0.71510  0.24400  Biso   1.000  C
  H142     1.0000 0.60060  0.73920  0.25430  Biso   1.000  H
  C223     1.0000 0.59980  0.64600  0.21400  Biso   1.000  C
  H143     1.0000 0.59970  0.62210  0.20310  Biso   1.000  H
  C224     1.0000 0.53230  0.63750  0.22840  Biso   1.000  C
  C225     1.0000 0.56700  0.65970  0.22980  Biso   1.000  C
  C226     1.0000 0.63180  0.70060  0.22990  Biso   1.000  C
  C227     1.0000 0.53330  0.60010  0.22880  Biso   1.000  C
  H144     1.0000 0.55630  0.58740  0.22900  Biso   1.000  H
  C228     1.0000 0.56760  0.69460  0.24350  Biso   1.000  C
  H145     1.0000 0.54550  0.70520  0.25300  Biso   1.000  H
  C229     1.0000 0.66890  0.72050  0.22910  Biso   1.000  C
  C230     1.0000 0.47270  0.51980  0.24690  Biso   1.000  C
  H146     1.0000 0.45380  0.53250  0.26020  Biso   1.000  H
  C231     1.0000 0.47340  0.51940  0.21050  Biso   1.000  C
  H147     1.0000 0.45400  0.53170  0.19790  Biso   1.000  H
  O43      1.0000 0.69520  0.29360  0.78804  Biso   1.000  O
  O44      1.0000 0.66977  0.24940  0.75310  Biso   1.000  O
  C232     1.0000 0.63110  0.33430  0.78600  Biso   1.000  C
  H148     1.0000 0.65280  0.34430  0.79690  Biso   1.000  H
  C233     1.0000 0.60040  0.28490  0.75600  Biso   1.000  C
  H149     1.0000 0.60060  0.26080  0.74570  Biso   1.000  H
  C234     1.0000 0.59980  0.35400  0.78600  Biso   1.000  C
  H150     1.0000 0.59970  0.37790  0.79690  Biso   1.000  H
  C235     1.0000 0.53230  0.36250  0.77160  Biso   1.000  C
  C236     1.0000 0.56700  0.34030  0.77020  Biso   1.000  C
  C237     1.0000 0.63180  0.29940  0.77010  Biso   1.000  C
  C238     1.0000 0.53330  0.39990  0.77120  Biso   1.000  C
  H151     1.0000 0.55630  0.41260  0.77100  Biso   1.000  H
  C239     1.0000 0.56760  0.30540  0.75650  Biso   1.000  C
  H152     1.0000 0.54550  0.29480  0.74700  Biso   1.000  H
  C240     1.0000 0.66890  0.27950  0.77090  Biso   1.000  C
  C241     1.0000 0.47270  0.48020  0.75310  Biso   1.000  C
  H153     1.0000 0.45380  0.46750  0.73980  Biso   1.000  H
  C242     1.0000 0.47340  0.48060  0.78950  Biso   1.000  C
  H154     1.0000 0.45400  0.46830  0.80210  Biso   1.000  H
  O45      1.0000 0.30480  0.70640  0.78804  Biso   1.000  O
  O46      1.0000 0.33023  0.75060  0.75310  Biso   1.000  O
  C243     1.0000 0.36890  0.66570  0.78600  Biso   1.000  C
  H155     1.0000 0.34720  0.65570  0.79690  Biso   1.000  H
  C244     1.0000 0.39960  0.71510  0.75600  Biso   1.000  C
  H156     1.0000 0.39940  0.73920  0.74570  Biso   1.000  H
  C245     1.0000 0.40020  0.64600  0.78600  Biso   1.000  C
  H157     1.0000 0.40030  0.62210  0.79690  Biso   1.000  H
  C246     1.0000 0.46770  0.63750  0.77160  Biso   1.000  C
  C247     1.0000 0.43300  0.65970  0.77020  Biso   1.000  C
  C248     1.0000 0.36820  0.70060  0.77010  Biso   1.000  C
  C249     1.0000 0.46670  0.60010  0.77120  Biso   1.000  C
  H158     1.0000 0.44370  0.58740  0.77100  Biso   1.000  H
  C250     1.0000 0.43240  0.69460  0.75650  Biso   1.000  C
  H159     1.0000 0.45450  0.70520  0.74700  Biso   1.000  H
  C251     1.0000 0.33110  0.72050  0.77090  Biso   1.000  C
  C252     1.0000 0.52730  0.51980  0.75310  Biso   1.000  C
  H160     1.0000 0.54620  0.53250  0.73980  Biso   1.000  H
  C253     1.0000 0.52660  0.51940  0.78950  Biso   1.000  C
  H161     1.0000 0.54600  0.53170  0.80210  Biso   1.000  H
  O47      1.0000 0.30480  0.29360  0.21196  Biso   1.000  O
  O48      1.0000 0.33023  0.24940  0.24690  Biso   1.000  O
  C254     1.0000 0.36890  0.33430  0.21400  Biso   1.000  C
  H162     1.0000 0.34720  0.34430  0.20310  Biso   1.000  H
  C255     1.0000 0.39960  0.28490  0.24400  Biso   1.000  C
  H163     1.0000 0.39940  0.26080  0.25430  Biso   1.000  H
  C256     1.0000 0.40020  0.35400  0.21400  Biso   1.000  C
  H164     1.0000 0.40030  0.37790  0.20310  Biso   1.000  H
  C257     1.0000 0.46770  0.36250  0.22840  Biso   1.000  C
  C258     1.0000 0.43300  0.34030  0.22980  Biso   1.000  C
  C259     1.0000 0.36820  0.29940  0.22990  Biso   1.000  C
  C260     1.0000 0.46670  0.39990  0.22880  Biso   1.000  C
  H165     1.0000 0.44370  0.41260  0.22900  Biso   1.000  H
  C261     1.0000 0.43240  0.30540  0.24350  Biso   1.000  C
  H166     1.0000 0.45450  0.29480  0.25300  Biso   1.000  H
  C262     1.0000 0.33110  0.27950  0.22910  Biso   1.000  C
  C263     1.0000 0.52730  0.48020  0.24690  Biso   1.000  C
  H167     1.0000 0.54620  0.46750  0.26020  Biso   1.000  H
  C264     1.0000 0.52660  0.48060  0.21050  Biso   1.000  C
  H168     1.0000 0.54600  0.46830  0.19790  Biso   1.000  H
  O49      1.0000 0.71196  0.79360  0.80480  Biso   1.000  O
  O50      1.0000 0.74690  0.74940  0.83023  Biso   1.000  O
  C265     1.0000 0.71400  0.83430  0.86890  Biso   1.000  C
  H169     1.0000 0.70310  0.84430  0.84720  Biso   1.000  H
  C266     1.0000 0.74400  0.78490  0.89960  Biso   1.000  C
  H170     1.0000 0.75430  0.76080  0.89940  Biso   1.000  H
  C267     1.0000 0.71400  0.85400  0.90020  Biso   1.000  C
  H171     1.0000 0.70310  0.87790  0.90030  Biso   1.000  H
  C268     1.0000 0.72840  0.86250  0.96770  Biso   1.000  C
  C269     1.0000 0.72980  0.84030  0.93300  Biso   1.000  C
  C270     1.0000 0.72990  0.79940  0.86820  Biso   1.000  C
  C271     1.0000 0.72880  0.89990  0.96670  Biso   1.000  C
  H172     1.0000 0.72900  0.91260  0.94370  Biso   1.000  H
  C272     1.0000 0.74350  0.80540  0.93240  Biso   1.000  C
  H173     1.0000 0.75300  0.79480  0.95450  Biso   1.000  H
  C273     1.0000 0.72910  0.77950  0.83110  Biso   1.000  C
  C274     1.0000 0.74690  0.98020  0.02730  Biso   1.000  C
  H174     1.0000 0.76020  0.96750  0.04620  Biso   1.000  H
  C275     1.0000 0.71050  0.98060  0.02660  Biso   1.000  C
  H175     1.0000 0.69790  0.96830  0.04600  Biso   1.000  H
  O51      1.0000 0.28804  0.20640  0.80480  Biso   1.000  O
  O52      1.0000 0.25310  0.25060  0.83023  Biso   1.000  O
  C276     1.0000 0.28600  0.16570  0.86890  Biso   1.000  C
  H176     1.0000 0.29690  0.15570  0.84720  Biso   1.000  H
  C277     1.0000 0.25600  0.21510  0.89960  Biso   1.000  C
  H177     1.0000 0.24570  0.23920  0.89940  Biso   1.000  H
  C278     1.0000 0.28600  0.14600  0.90020  Biso   1.000  C
  H178     1.0000 0.29690  0.12210  0.90030  Biso   1.000  H
  C279     1.0000 0.27160  0.13750  0.96770  Biso   1.000  C
  C280     1.0000 0.27020  0.15970  0.93300  Biso   1.000  C
  C281     1.0000 0.27010  0.20060  0.86820  Biso   1.000  C
  C282     1.0000 0.27120  0.10010  0.96670  Biso   1.000  C
  H179     1.0000 0.27100  0.08740  0.94370  Biso   1.000  H
  C283     1.0000 0.25650  0.19460  0.93240  Biso   1.000  C
  H180     1.0000 0.24700  0.20520  0.95450  Biso   1.000  H
  C284     1.0000 0.27090  0.22050  0.83110  Biso   1.000  C
  C285     1.0000 0.25310  0.01980  0.02730  Biso   1.000  C
  H181     1.0000 0.23980  0.03250  0.04620  Biso   1.000  H
  C286     1.0000 0.28950  0.01940  0.02660  Biso   1.000  C
  H182     1.0000 0.30210  0.03170  0.04600  Biso   1.000  H
  O53      1.0000 0.28804  0.79360  0.19520  Biso   1.000  O
  O54      1.0000 0.25310  0.74940  0.16977  Biso   1.000  O
  C287     1.0000 0.28600  0.83430  0.13110  Biso   1.000  C
  H183     1.0000 0.29690  0.84430  0.15280  Biso   1.000  H
  C288     1.0000 0.25600  0.78490  0.10040  Biso   1.000  C
  H184     1.0000 0.24570  0.76080  0.10060  Biso   1.000  H
  C289     1.0000 0.28600  0.85400  0.09980  Biso   1.000  C
  H185     1.0000 0.29690  0.87790  0.09970  Biso   1.000  H
  C290     1.0000 0.27160  0.86250  0.03230  Biso   1.000  C
  C291     1.0000 0.27020  0.84030  0.06700  Biso   1.000  C
  C292     1.0000 0.27010  0.79940  0.13180  Biso   1.000  C
  C293     1.0000 0.27120  0.89990  0.03330  Biso   1.000  C
  H186     1.0000 0.27100  0.91260  0.05630  Biso   1.000  H
  C294     1.0000 0.25650  0.80540  0.06760  Biso   1.000  C
  H187     1.0000 0.24700  0.79480  0.04550  Biso   1.000  H
  C295     1.0000 0.27090  0.77950  0.16890  Biso   1.000  C
  C296     1.0000 0.25310  0.98020  0.97270  Biso   1.000  C
  H188     1.0000 0.23980  0.96750  0.95380  Biso   1.000  H
  C297     1.0000 0.28950  0.98060  0.97340  Biso   1.000  C
  H189     1.0000 0.30210  0.96830  0.95400  Biso   1.000  H
  O55      1.0000 0.71196  0.20640  0.19520  Biso   1.000  O
  O56      1.0000 0.74690  0.25060  0.16977  Biso   1.000  O
  C298     1.0000 0.71400  0.16570  0.13110  Biso   1.000  C
  H190     1.0000 0.70310  0.15570  0.15280  Biso   1.000  H
  C299     1.0000 0.74400  0.21510  0.10040  Biso   1.000  C
  H191     1.0000 0.75430  0.23920  0.10060  Biso   1.000  H
  C300     1.0000 0.71400  0.14600  0.09980  Biso   1.000  C
  H192     1.0000 0.70310  0.12210  0.09970  Biso   1.000  H
  C301     1.0000 0.72840  0.13750  0.03230  Biso   1.000  C
  C302     1.0000 0.72980  0.15970  0.06700  Biso   1.000  C
  C303     1.0000 0.72990  0.20060  0.13180  Biso   1.000  C
  C304     1.0000 0.72880  0.10010  0.03330  Biso   1.000  C
  H193     1.0000 0.72900  0.08740  0.05630  Biso   1.000  H
  C305     1.0000 0.74350  0.19460  0.06760  Biso   1.000  C
  H194     1.0000 0.75300  0.20520  0.04550  Biso   1.000  H
  C306     1.0000 0.72910  0.22050  0.16890  Biso   1.000  C
  C307     1.0000 0.74690  0.01980  0.97270  Biso   1.000  C
  H195     1.0000 0.76020  0.03250  0.95380  Biso   1.000  H
  C308     1.0000 0.71050  0.01940  0.97340  Biso   1.000  C
  H196     1.0000 0.69790  0.03170  0.95400  Biso   1.000  H
  O57      1.0000 0.80480  0.71196  0.79360  Biso   1.000  O
  O58      1.0000 0.83023  0.74690  0.74940  Biso   1.000  O
  C309     1.0000 0.86890  0.71400  0.83430  Biso   1.000  C
  H197     1.0000 0.84720  0.70310  0.84430  Biso   1.000  H
  C310     1.0000 0.89960  0.74400  0.78490  Biso   1.000  C
  H198     1.0000 0.89940  0.75430  0.76080  Biso   1.000  H
  C311     1.0000 0.90020  0.71400  0.85400  Biso   1.000  C
  H199     1.0000 0.90030  0.70310  0.87790  Biso   1.000  H
  C312     1.0000 0.96770  0.72840  0.86250  Biso   1.000  C
  C313     1.0000 0.93300  0.72980  0.84030  Biso   1.000  C
  C314     1.0000 0.86820  0.72990  0.79940  Biso   1.000  C
  C315     1.0000 0.96670  0.72880  0.89990  Biso   1.000  C
  H200     1.0000 0.94370  0.72900  0.91260  Biso   1.000  H
  C316     1.0000 0.93240  0.74350  0.80540  Biso   1.000  C
  H201     1.0000 0.95450  0.75300  0.79480  Biso   1.000  H
  C317     1.0000 0.83110  0.72910  0.77950  Biso   1.000  C
  C318     1.0000 0.02730  0.74690  0.98020  Biso   1.000  C
  H202     1.0000 0.04620  0.76020  0.96750  Biso   1.000  H
  C319     1.0000 0.02660  0.71050  0.98060  Biso   1.000  C
  H203     1.0000 0.04600  0.69790  0.96830  Biso   1.000  H
  O59      1.0000 0.80480  0.28804  0.20640  Biso   1.000  O
  O60      1.0000 0.83023  0.25310  0.25060  Biso   1.000  O
  C320     1.0000 0.86890  0.28600  0.16570  Biso   1.000  C
  H204     1.0000 0.84720  0.29690  0.15570  Biso   1.000  H
  C321     1.0000 0.89960  0.25600  0.21510  Biso   1.000  C
  H205     1.0000 0.89940  0.24570  0.23920  Biso   1.000  H
  C322     1.0000 0.90020  0.28600  0.14600  Biso   1.000  C
  H206     1.0000 0.90030  0.29690  0.12210  Biso   1.000  H
  C323     1.0000 0.96770  0.27160  0.13750  Biso   1.000  C
  C324     1.0000 0.93300  0.27020  0.15970  Biso   1.000  C
  C325     1.0000 0.86820  0.27010  0.20060  Biso   1.000  C
  C326     1.0000 0.96670  0.27120  0.10010  Biso   1.000  C
  H207     1.0000 0.94370  0.27100  0.08740  Biso   1.000  H
  C327     1.0000 0.93240  0.25650  0.19460  Biso   1.000  C
  H208     1.0000 0.95450  0.24700  0.20520  Biso   1.000  H
  C328     1.0000 0.83110  0.27090  0.22050  Biso   1.000  C
  C329     1.0000 0.02730  0.25310  0.01980  Biso   1.000  C
  H209     1.0000 0.04620  0.23980  0.03250  Biso   1.000  H
  C330     1.0000 0.02660  0.28950  0.01940  Biso   1.000  C
  H210     1.0000 0.04600  0.30210  0.03170  Biso   1.000  H
  O61      1.0000 0.19520  0.28804  0.79360  Biso   1.000  O
  O62      1.0000 0.16977  0.25310  0.74940  Biso   1.000  O
  C331     1.0000 0.13110  0.28600  0.83430  Biso   1.000  C
  H211     1.0000 0.15280  0.29690  0.84430  Biso   1.000  H
  C332     1.0000 0.10040  0.25600  0.78490  Biso   1.000  C
  H212     1.0000 0.10060  0.24570  0.76080  Biso   1.000  H
  C333     1.0000 0.09980  0.28600  0.85400  Biso   1.000  C
  H213     1.0000 0.09970  0.29690  0.87790  Biso   1.000  H
  C334     1.0000 0.03230  0.27160  0.86250  Biso   1.000  C
  C335     1.0000 0.06700  0.27020  0.84030  Biso   1.000  C
  C336     1.0000 0.13180  0.27010  0.79940  Biso   1.000  C
  C337     1.0000 0.03330  0.27120  0.89990  Biso   1.000  C
  H214     1.0000 0.05630  0.27100  0.91260  Biso   1.000  H
  C338     1.0000 0.06760  0.25650  0.80540  Biso   1.000  C
  H215     1.0000 0.04550  0.24700  0.79480  Biso   1.000  H
  C339     1.0000 0.16890  0.27090  0.77950  Biso   1.000  C
  C340     1.0000 0.97270  0.25310  0.98020  Biso   1.000  C
  H216     1.0000 0.95380  0.23980  0.96750  Biso   1.000  H
  C341     1.0000 0.97340  0.28950  0.98060  Biso   1.000  C
  H217     1.0000 0.95400  0.30210  0.96830  Biso   1.000  H
  O63      1.0000 0.19520  0.71196  0.20640  Biso   1.000  O
  O64      1.0000 0.16977  0.74690  0.25060  Biso   1.000  O
  C342     1.0000 0.13110  0.71400  0.16570  Biso   1.000  C
  H218     1.0000 0.15280  0.70310  0.15570  Biso   1.000  H
  C343     1.0000 0.10040  0.74400  0.21510  Biso   1.000  C
  H219     1.0000 0.10060  0.75430  0.23920  Biso   1.000  H
  C344     1.0000 0.09980  0.71400  0.14600  Biso   1.000  C
  H220     1.0000 0.09970  0.70310  0.12210  Biso   1.000  H
  C345     1.0000 0.03230  0.72840  0.13750  Biso   1.000  C
  C346     1.0000 0.06700  0.72980  0.15970  Biso   1.000  C
  C347     1.0000 0.13180  0.72990  0.20060  Biso   1.000  C
  C348     1.0000 0.03330  0.72880  0.10010  Biso   1.000  C
  H221     1.0000 0.05630  0.72900  0.08740  Biso   1.000  H
  C349     1.0000 0.06760  0.74350  0.19460  Biso   1.000  C
  H222     1.0000 0.04550  0.75300  0.20520  Biso   1.000  H
  C350     1.0000 0.16890  0.72910  0.22050  Biso   1.000  C
  C351     1.0000 0.97270  0.74690  0.01980  Biso   1.000  C
  H223     1.0000 0.95380  0.76020  0.03250  Biso   1.000  H
  C352     1.0000 0.97340  0.71050  0.01940  Biso   1.000  C
  H224     1.0000 0.95400  0.69790  0.03170  Biso   1.000  H
  O65      1.0000 0.79360  0.80480  0.71196  Biso   1.000  O
  O66      1.0000 0.74940  0.83023  0.74690  Biso   1.000  O
  C353     1.0000 0.83430  0.86890  0.71400  Biso   1.000  C
  H225     1.0000 0.84430  0.84720  0.70310  Biso   1.000  H
  C354     1.0000 0.78490  0.89960  0.74400  Biso   1.000  C
  H226     1.0000 0.76080  0.89940  0.75430  Biso   1.000  H
  C355     1.0000 0.85400  0.90020  0.71400  Biso   1.000  C
  H227     1.0000 0.87790  0.90030  0.70310  Biso   1.000  H
  C356     1.0000 0.86250  0.96770  0.72840  Biso   1.000  C
  C357     1.0000 0.84030  0.93300  0.72980  Biso   1.000  C
  C358     1.0000 0.79940  0.86820  0.72990  Biso   1.000  C
  C359     1.0000 0.89990  0.96670  0.72880  Biso   1.000  C
  H228     1.0000 0.91260  0.94370  0.72900  Biso   1.000  H
  C360     1.0000 0.80540  0.93240  0.74350  Biso   1.000  C
  H229     1.0000 0.79480  0.95450  0.75300  Biso   1.000  H
  C361     1.0000 0.77950  0.83110  0.72910  Biso   1.000  C
  C362     1.0000 0.98020  0.02730  0.74690  Biso   1.000  C
  H230     1.0000 0.96750  0.04620  0.76020  Biso   1.000  H
  C363     1.0000 0.98060  0.02660  0.71050  Biso   1.000  C
  H231     1.0000 0.96830  0.04600  0.69790  Biso   1.000  H
  O67      1.0000 0.20640  0.80480  0.28804  Biso   1.000  O
  O68      1.0000 0.25060  0.83023  0.25310  Biso   1.000  O
  C364     1.0000 0.16570  0.86890  0.28600  Biso   1.000  C
  H232     1.0000 0.15570  0.84720  0.29690  Biso   1.000  H
  C365     1.0000 0.21510  0.89960  0.25600  Biso   1.000  C
  H233     1.0000 0.23920  0.89940  0.24570  Biso   1.000  H
  C366     1.0000 0.14600  0.90020  0.28600  Biso   1.000  C
  H234     1.0000 0.12210  0.90030  0.29690  Biso   1.000  H
  C367     1.0000 0.13750  0.96770  0.27160  Biso   1.000  C
  C368     1.0000 0.15970  0.93300  0.27020  Biso   1.000  C
  C369     1.0000 0.20060  0.86820  0.27010  Biso   1.000  C
  C370     1.0000 0.10010  0.96670  0.27120  Biso   1.000  C
  H235     1.0000 0.08740  0.94370  0.27100  Biso   1.000  H
  C371     1.0000 0.19460  0.93240  0.25650  Biso   1.000  C
  H236     1.0000 0.20520  0.95450  0.24700  Biso   1.000  H
  C372     1.0000 0.22050  0.83110  0.27090  Biso   1.000  C
  C373     1.0000 0.01980  0.02730  0.25310  Biso   1.000  C
  H237     1.0000 0.03250  0.04620  0.23980  Biso   1.000  H
  C374     1.0000 0.01940  0.02660  0.28950  Biso   1.000  C
  H238     1.0000 0.03170  0.04600  0.30210  Biso   1.000  H
  O69      1.0000 0.79360  0.19520  0.28804  Biso   1.000  O
  O70      1.0000 0.74940  0.16977  0.25310  Biso   1.000  O
  C375     1.0000 0.83430  0.13110  0.28600  Biso   1.000  C
  H239     1.0000 0.84430  0.15280  0.29690  Biso   1.000  H
  C376     1.0000 0.78490  0.10040  0.25600  Biso   1.000  C
  H240     1.0000 0.76080  0.10060  0.24570  Biso   1.000  H
  C377     1.0000 0.85400  0.09980  0.28600  Biso   1.000  C
  H241     1.0000 0.87790  0.09970  0.29690  Biso   1.000  H
  C378     1.0000 0.86250  0.03230  0.27160  Biso   1.000  C
  C379     1.0000 0.84030  0.06700  0.27020  Biso   1.000  C
  C380     1.0000 0.79940  0.13180  0.27010  Biso   1.000  C
  C381     1.0000 0.89990  0.03330  0.27120  Biso   1.000  C
  H242     1.0000 0.91260  0.05630  0.27100  Biso   1.000  H
  C382     1.0000 0.80540  0.06760  0.25650  Biso   1.000  C
  H243     1.0000 0.79480  0.04550  0.24700  Biso   1.000  H
  C383     1.0000 0.77950  0.16890  0.27090  Biso   1.000  C
  C384     1.0000 0.98020  0.97270  0.25310  Biso   1.000  C
  H244     1.0000 0.96750  0.95380  0.23980  Biso   1.000  H
  C385     1.0000 0.98060  0.97340  0.28950  Biso   1.000  C
  H245     1.0000 0.96830  0.95400  0.30210  Biso   1.000  H
  O71      1.0000 0.20640  0.19520  0.71196  Biso   1.000  O
  O72      1.0000 0.25060  0.16977  0.74690  Biso   1.000  O
  C386     1.0000 0.16570  0.13110  0.71400  Biso   1.000  C
  H246     1.0000 0.15570  0.15280  0.70310  Biso   1.000  H
  C387     1.0000 0.21510  0.10040  0.74400  Biso   1.000  C
  H247     1.0000 0.23920  0.10060  0.75430  Biso   1.000  H
  C388     1.0000 0.14600  0.09980  0.71400  Biso   1.000  C
  H248     1.0000 0.12210  0.09970  0.70310  Biso   1.000  H
  C389     1.0000 0.13750  0.03230  0.72840  Biso   1.000  C
  C390     1.0000 0.15970  0.06700  0.72980  Biso   1.000  C
  C391     1.0000 0.20060  0.13180  0.72990  Biso   1.000  C
  C392     1.0000 0.10010  0.03330  0.72880  Biso   1.000  C
  H249     1.0000 0.08740  0.05630  0.72900  Biso   1.000  H
  C393     1.0000 0.19460  0.06760  0.74350  Biso   1.000  C
  H250     1.0000 0.20520  0.04550  0.75300  Biso   1.000  H
  C394     1.0000 0.22050  0.16890  0.72910  Biso   1.000  C
  C395     1.0000 0.01980  0.97270  0.74690  Biso   1.000  C
  H251     1.0000 0.03250  0.95380  0.76020  Biso   1.000  H
  C396     1.0000 0.01940  0.97340  0.71050  Biso   1.000  C
  H252     1.0000 0.03170  0.95400  0.69790  Biso   1.000  H
  O73      1.0000 0.29360  0.21196  0.69520  Biso   1.000  O
  O74      1.0000 0.24940  0.24690  0.66977  Biso   1.000  O
  C397     1.0000 0.33430  0.21400  0.63110  Biso   1.000  C
  H253     1.0000 0.34430  0.20310  0.65280  Biso   1.000  H
  C398     1.0000 0.28490  0.24400  0.60040  Biso   1.000  C
  H254     1.0000 0.26080  0.25430  0.60060  Biso   1.000  H
  C399     1.0000 0.35400  0.21400  0.59980  Biso   1.000  C
  H255     1.0000 0.37790  0.20310  0.59970  Biso   1.000  H
  C400     1.0000 0.36250  0.22840  0.53230  Biso   1.000  C
  C401     1.0000 0.34030  0.22980  0.56700  Biso   1.000  C
  C402     1.0000 0.29940  0.22990  0.63180  Biso   1.000  C
  C403     1.0000 0.39990  0.22880  0.53330  Biso   1.000  C
  H256     1.0000 0.41260  0.22900  0.55630  Biso   1.000  H
  C404     1.0000 0.30540  0.24350  0.56760  Biso   1.000  C
  H257     1.0000 0.29480  0.25300  0.54550  Biso   1.000  H
  C405     1.0000 0.27950  0.22910  0.66890  Biso   1.000  C
  C406     1.0000 0.48020  0.24690  0.47270  Biso   1.000  C
  H258     1.0000 0.46750  0.26020  0.45380  Biso   1.000  H
  C407     1.0000 0.48060  0.21050  0.47340  Biso   1.000  C
  H259     1.0000 0.46830  0.19790  0.45400  Biso   1.000  H
  O75      1.0000 0.70640  0.78804  0.69520  Biso   1.000  O
  O76      1.0000 0.75060  0.75310  0.66977  Biso   1.000  O
  C408     1.0000 0.66570  0.78600  0.63110  Biso   1.000  C
  H260     1.0000 0.65570  0.79690  0.65280  Biso   1.000  H
  C409     1.0000 0.71510  0.75600  0.60040  Biso   1.000  C
  H261     1.0000 0.73920  0.74570  0.60060  Biso   1.000  H
  C410     1.0000 0.64600  0.78600  0.59980  Biso   1.000  C
  H262     1.0000 0.62210  0.79690  0.59970  Biso   1.000  H
  C411     1.0000 0.63750  0.77160  0.53230  Biso   1.000  C
  C412     1.0000 0.65970  0.77020  0.56700  Biso   1.000  C
  C413     1.0000 0.70060  0.77010  0.63180  Biso   1.000  C
  C414     1.0000 0.60010  0.77120  0.53330  Biso   1.000  C
  H263     1.0000 0.58740  0.77100  0.55630  Biso   1.000  H
  C415     1.0000 0.69460  0.75650  0.56760  Biso   1.000  C
  H264     1.0000 0.70520  0.74700  0.54550  Biso   1.000  H
  C416     1.0000 0.72050  0.77090  0.66890  Biso   1.000  C
  C417     1.0000 0.51980  0.75310  0.47270  Biso   1.000  C
  H265     1.0000 0.53250  0.73980  0.45380  Biso   1.000  H
  C418     1.0000 0.51940  0.78950  0.47340  Biso   1.000  C
  H266     1.0000 0.53170  0.80210  0.45400  Biso   1.000  H
  O77      1.0000 0.29360  0.78804  0.30480  Biso   1.000  O
  O78      1.0000 0.24940  0.75310  0.33023  Biso   1.000  O
  C419     1.0000 0.33430  0.78600  0.36890  Biso   1.000  C
  H267     1.0000 0.34430  0.79690  0.34720  Biso   1.000  H
  C420     1.0000 0.28490  0.75600  0.39960  Biso   1.000  C
  H268     1.0000 0.26080  0.74570  0.39940  Biso   1.000  H
  C421     1.0000 0.35400  0.78600  0.40020  Biso   1.000  C
  H269     1.0000 0.37790  0.79690  0.40030  Biso   1.000  H
  C422     1.0000 0.36250  0.77160  0.46770  Biso   1.000  C
  C423     1.0000 0.34030  0.77020  0.43300  Biso   1.000  C
  C424     1.0000 0.29940  0.77010  0.36820  Biso   1.000  C
  C425     1.0000 0.39990  0.77120  0.46670  Biso   1.000  C
  H270     1.0000 0.41260  0.77100  0.44370  Biso   1.000  H
  C426     1.0000 0.30540  0.75650  0.43240  Biso   1.000  C
  H271     1.0000 0.29480  0.74700  0.45450  Biso   1.000  H
  C427     1.0000 0.27950  0.77090  0.33110  Biso   1.000  C
  C428     1.0000 0.48020  0.75310  0.52730  Biso   1.000  C
  H272     1.0000 0.46750  0.73980  0.54620  Biso   1.000  H
  C429     1.0000 0.48060  0.78950  0.52660  Biso   1.000  C
  H273     1.0000 0.46830  0.80210  0.54600  Biso   1.000  H
  O79      1.0000 0.70640  0.21196  0.30480  Biso   1.000  O
  O80      1.0000 0.75060  0.24690  0.33023  Biso   1.000  O
  C430     1.0000 0.66570  0.21400  0.36890  Biso   1.000  C
  H274     1.0000 0.65570  0.20310  0.34720  Biso   1.000  H
  C431     1.0000 0.71510  0.24400  0.39960  Biso   1.000  C
  H275     1.0000 0.73920  0.25430  0.39940  Biso   1.000  H
  C432     1.0000 0.64600  0.21400  0.40020  Biso   1.000  C
  H276     1.0000 0.62210  0.20310  0.40030  Biso   1.000  H
  C433     1.0000 0.63750  0.22840  0.46770  Biso   1.000  C
  C434     1.0000 0.65970  0.22980  0.43300  Biso   1.000  C
  C435     1.0000 0.70060  0.22990  0.36820  Biso   1.000  C
  C436     1.0000 0.60010  0.22880  0.46670  Biso   1.000  C
  H277     1.0000 0.58740  0.22900  0.44370  Biso   1.000  H
  C437     1.0000 0.69460  0.24350  0.43240  Biso   1.000  C
  H278     1.0000 0.70520  0.25300  0.45450  Biso   1.000  H
  C438     1.0000 0.72050  0.22910  0.33110  Biso   1.000  C
  C439     1.0000 0.51980  0.24690  0.52730  Biso   1.000  C
  H279     1.0000 0.53250  0.26020  0.54620  Biso   1.000  H
  C440     1.0000 0.51940  0.21050  0.52660  Biso   1.000  C
  H280     1.0000 0.53170  0.19790  0.54600  Biso   1.000  H
  O81      1.0000 0.21196  0.30480  0.70640  Biso   1.000  O
  O82      1.0000 0.24690  0.33023  0.75060  Biso   1.000  O
  C441     1.0000 0.21400  0.36890  0.66570  Biso   1.000  C
  H281     1.0000 0.20310  0.34720  0.65570  Biso   1.000  H
  C442     1.0000 0.24400  0.39960  0.71510  Biso   1.000  C
  H282     1.0000 0.25430  0.39940  0.73920  Biso   1.000  H
  C443     1.0000 0.21400  0.40020  0.64600  Biso   1.000  C
  H283     1.0000 0.20310  0.40030  0.62210  Biso   1.000  H
  C444     1.0000 0.22840  0.46770  0.63750  Biso   1.000  C
  C445     1.0000 0.22980  0.43300  0.65970  Biso   1.000  C
  C446     1.0000 0.22990  0.36820  0.70060  Biso   1.000  C
  C447     1.0000 0.22880  0.46670  0.60010  Biso   1.000  C
  H284     1.0000 0.22900  0.44370  0.58740  Biso   1.000  H
  C448     1.0000 0.24350  0.43240  0.69460  Biso   1.000  C
  H285     1.0000 0.25300  0.45450  0.70520  Biso   1.000  H
  C449     1.0000 0.22910  0.33110  0.72050  Biso   1.000  C
  C450     1.0000 0.24690  0.52730  0.51980  Biso   1.000  C
  H286     1.0000 0.26020  0.54620  0.53250  Biso   1.000  H
  C451     1.0000 0.21050  0.52660  0.51940  Biso   1.000  C
  H287     1.0000 0.19790  0.54600  0.53170  Biso   1.000  H
  O83      1.0000 0.78804  0.30480  0.29360  Biso   1.000  O
  O84      1.0000 0.75310  0.33023  0.24940  Biso   1.000  O
  C452     1.0000 0.78600  0.36890  0.33430  Biso   1.000  C
  H288     1.0000 0.79690  0.34720  0.34430  Biso   1.000  H
  C453     1.0000 0.75600  0.39960  0.28490  Biso   1.000  C
  H289     1.0000 0.74570  0.39940  0.26080  Biso   1.000  H
  C454     1.0000 0.78600  0.40020  0.35400  Biso   1.000  C
  H290     1.0000 0.79690  0.40030  0.37790  Biso   1.000  H
  C455     1.0000 0.77160  0.46770  0.36250  Biso   1.000  C
  C456     1.0000 0.77020  0.43300  0.34030  Biso   1.000  C
  C457     1.0000 0.77010  0.36820  0.29940  Biso   1.000  C
  C458     1.0000 0.77120  0.46670  0.39990  Biso   1.000  C
  H291     1.0000 0.77100  0.44370  0.41260  Biso   1.000  H
  C459     1.0000 0.75650  0.43240  0.30540  Biso   1.000  C
  H292     1.0000 0.74700  0.45450  0.29480  Biso   1.000  H
  C460     1.0000 0.77090  0.33110  0.27950  Biso   1.000  C
  C461     1.0000 0.75310  0.52730  0.48020  Biso   1.000  C
  H293     1.0000 0.73980  0.54620  0.46750  Biso   1.000  H
  C462     1.0000 0.78950  0.52660  0.48060  Biso   1.000  C
  H294     1.0000 0.80210  0.54600  0.46830  Biso   1.000  H
  O85      1.0000 0.78804  0.69520  0.70640  Biso   1.000  O
  O86      1.0000 0.75310  0.66977  0.75060  Biso   1.000  O
  C463     1.0000 0.78600  0.63110  0.66570  Biso   1.000  C
  H295     1.0000 0.79690  0.65280  0.65570  Biso   1.000  H
  C464     1.0000 0.75600  0.60040  0.71510  Biso   1.000  C
  H296     1.0000 0.74570  0.60060  0.73920  Biso   1.000  H
  C465     1.0000 0.78600  0.59980  0.64600  Biso   1.000  C
  H297     1.0000 0.79690  0.59970  0.62210  Biso   1.000  H
  C466     1.0000 0.77160  0.53230  0.63750  Biso   1.000  C
  C467     1.0000 0.77020  0.56700  0.65970  Biso   1.000  C
  C468     1.0000 0.77010  0.63180  0.70060  Biso   1.000  C
  C469     1.0000 0.77120  0.53330  0.60010  Biso   1.000  C
  H298     1.0000 0.77100  0.55630  0.58740  Biso   1.000  H
  C470     1.0000 0.75650  0.56760  0.69460  Biso   1.000  C
  H299     1.0000 0.74700  0.54550  0.70520  Biso   1.000  H
  C471     1.0000 0.77090  0.66890  0.72050  Biso   1.000  C
  C472     1.0000 0.75310  0.47270  0.51980  Biso   1.000  C
  H300     1.0000 0.73980  0.45380  0.53250  Biso   1.000  H
  C473     1.0000 0.78950  0.47340  0.51940  Biso   1.000  C
  H301     1.0000 0.80210  0.45400  0.53170  Biso   1.000  H
  O87      1.0000 0.21196  0.69520  0.29360  Biso   1.000  O
  O88      1.0000 0.24690  0.66977  0.24940  Biso   1.000  O
  C474     1.0000 0.21400  0.63110  0.33430  Biso   1.000  C
  H302     1.0000 0.20310  0.65280  0.34430  Biso   1.000  H
  C475     1.0000 0.24400  0.60040  0.28490  Biso   1.000  C
  H303     1.0000 0.25430  0.60060  0.26080  Biso   1.000  H
  C476     1.0000 0.21400  0.59980  0.35400  Biso   1.000  C
  H304     1.0000 0.20310  0.59970  0.37790  Biso   1.000  H
  C477     1.0000 0.22840  0.53230  0.36250  Biso   1.000  C
  C478     1.0000 0.22980  0.56700  0.34030  Biso   1.000  C
  C479     1.0000 0.22990  0.63180  0.29940  Biso   1.000  C
  C480     1.0000 0.22880  0.53330  0.39990  Biso   1.000  C
  H305     1.0000 0.22900  0.55630  0.41260  Biso   1.000  H
  C481     1.0000 0.24350  0.56760  0.30540  Biso   1.000  C
  H306     1.0000 0.25300  0.54550  0.29480  Biso   1.000  H
  C482     1.0000 0.22910  0.66890  0.27950  Biso   1.000  C
  C483     1.0000 0.24690  0.47270  0.48020  Biso   1.000  C
  H307     1.0000 0.26020  0.45380  0.46750  Biso   1.000  H
  C484     1.0000 0.21050  0.47340  0.48060  Biso   1.000  C
  H308     1.0000 0.19790  0.45400  0.46830  Biso   1.000  H
  O89      1.0000 0.30480  0.29360  0.78804  Biso   1.000  O
  O90      1.0000 0.33023  0.24940  0.75310  Biso   1.000  O
  C485     1.0000 0.36890  0.33430  0.78600  Biso   1.000  C
  H309     1.0000 0.34720  0.34430  0.79690  Biso   1.000  H
  C486     1.0000 0.39960  0.28490  0.75600  Biso   1.000  C
  H310     1.0000 0.39940  0.26080  0.74570  Biso   1.000  H
  C487     1.0000 0.40020  0.35400  0.78600  Biso   1.000  C
  H311     1.0000 0.40030  0.37790  0.79690  Biso   1.000  H
  C488     1.0000 0.46770  0.36250  0.77160  Biso   1.000  C
  C489     1.0000 0.43300  0.34030  0.77020  Biso   1.000  C
  C490     1.0000 0.36820  0.29940  0.77010  Biso   1.000  C
  C491     1.0000 0.46670  0.39990  0.77120  Biso   1.000  C
  H312     1.0000 0.44370  0.41260  0.77100  Biso   1.000  H
  C492     1.0000 0.43240  0.30540  0.75650  Biso   1.000  C
  H313     1.0000 0.45450  0.29480  0.74700  Biso   1.000  H
  C493     1.0000 0.33110  0.27950  0.77090  Biso   1.000  C
  C494     1.0000 0.52730  0.48020  0.75310  Biso   1.000  C
  H314     1.0000 0.54620  0.46750  0.73980  Biso   1.000  H
  C495     1.0000 0.52660  0.48060  0.78950  Biso   1.000  C
  H315     1.0000 0.54600  0.46830  0.80210  Biso   1.000  H
  O91      1.0000 0.30480  0.70640  0.21196  Biso   1.000  O
  O92      1.0000 0.33023  0.75060  0.24690  Biso   1.000  O
  C496     1.0000 0.36890  0.66570  0.21400  Biso   1.000  C
  H316     1.0000 0.34720  0.65570  0.20310  Biso   1.000  H
  C497     1.0000 0.39960  0.71510  0.24400  Biso   1.000  C
  H317     1.0000 0.39940  0.73920  0.25430  Biso   1.000  H
  C498     1.0000 0.40020  0.64600  0.21400  Biso   1.000  C
  H318     1.0000 0.40030  0.62210  0.20310  Biso   1.000  H
  C499     1.0000 0.46770  0.63750  0.22840  Biso   1.000  C
  C500     1.0000 0.43300  0.65970  0.22980  Biso   1.000  C
  C501     1.0000 0.36820  0.70060  0.22990  Biso   1.000  C
  C502     1.0000 0.46670  0.60010  0.22880  Biso   1.000  C
  H319     1.0000 0.44370  0.58740  0.22900  Biso   1.000  H
  C503     1.0000 0.43240  0.69460  0.24350  Biso   1.000  C
  H320     1.0000 0.45450  0.70520  0.25300  Biso   1.000  H
  C504     1.0000 0.33110  0.72050  0.22910  Biso   1.000  C
  C505     1.0000 0.52730  0.51980  0.24690  Biso   1.000  C
  H321     1.0000 0.54620  0.53250  0.26020  Biso   1.000  H
  C506     1.0000 0.52660  0.51940  0.21050  Biso   1.000  C
  H322     1.0000 0.54600  0.53170  0.19790  Biso   1.000  H
  O93      1.0000 0.69520  0.29360  0.21196  Biso   1.000  O
  O94      1.0000 0.66977  0.24940  0.24690  Biso   1.000  O
  C507     1.0000 0.63110  0.33430  0.21400  Biso   1.000  C
  H323     1.0000 0.65280  0.34430  0.20310  Biso   1.000  H
  C508     1.0000 0.60040  0.28490  0.24400  Biso   1.000  C
  H324     1.0000 0.60060  0.26080  0.25430  Biso   1.000  H
  C509     1.0000 0.59980  0.35400  0.21400  Biso   1.000  C
  H325     1.0000 0.59970  0.37790  0.20310  Biso   1.000  H
  C510     1.0000 0.53230  0.36250  0.22840  Biso   1.000  C
  C511     1.0000 0.56700  0.34030  0.22980  Biso   1.000  C
  C512     1.0000 0.63180  0.29940  0.22990  Biso   1.000  C
  C513     1.0000 0.53330  0.39990  0.22880  Biso   1.000  C
  H326     1.0000 0.55630  0.41260  0.22900  Biso   1.000  H
  C514     1.0000 0.56760  0.30540  0.24350  Biso   1.000  C
  H327     1.0000 0.54550  0.29480  0.25300  Biso   1.000  H
  C515     1.0000 0.66890  0.27950  0.22910  Biso   1.000  C
  C516     1.0000 0.47270  0.48020  0.24690  Biso   1.000  C
  H328     1.0000 0.45380  0.46750  0.26020  Biso   1.000  H
  C517     1.0000 0.47340  0.48060  0.21050  Biso   1.000  C
  H329     1.0000 0.45400  0.46830  0.19790  Biso   1.000  H
  O95      1.0000 0.69520  0.70640  0.78804  Biso   1.000  O
  O96      1.0000 0.66977  0.75060  0.75310  Biso   1.000  O
  C518     1.0000 0.63110  0.66570  0.78600  Biso   1.000  C
  H330     1.0000 0.65280  0.65570  0.79690  Biso   1.000  H
  C519     1.0000 0.60040  0.71510  0.75600  Biso   1.000  C
  H331     1.0000 0.60060  0.73920  0.74570  Biso   1.000  H
  C520     1.0000 0.59980  0.64600  0.78600  Biso   1.000  C
  H332     1.0000 0.59970  0.62210  0.79690  Biso   1.000  H
  C521     1.0000 0.53230  0.63750  0.77160  Biso   1.000  C
  C522     1.0000 0.56700  0.65970  0.77020  Biso   1.000  C
  C523     1.0000 0.63180  0.70060  0.77010  Biso   1.000  C
  C524     1.0000 0.53330  0.60010  0.77120  Biso   1.000  C
  H333     1.0000 0.55630  0.58740  0.77100  Biso   1.000  H
  C525     1.0000 0.56760  0.69460  0.75650  Biso   1.000  C
  H334     1.0000 0.54550  0.70520  0.74700  Biso   1.000  H
  C526     1.0000 0.66890  0.72050  0.77090  Biso   1.000  C
  C527     1.0000 0.47270  0.51980  0.75310  Biso   1.000  C
  H335     1.0000 0.45380  0.53250  0.73980  Biso   1.000  H
  C528     1.0000 0.47340  0.51940  0.78950  Biso   1.000  C
  H336     1.0000 0.45400  0.53170  0.80210  Biso   1.000  H
  Fe1      1.0000 0.28746  0.21254  0.25000  Biso   1.000  Fe
  Fe2      1.0000 0.71254  0.78746  0.25000  Biso   1.000  Fe
  Fe3      1.0000 0.71254  0.21254  0.75000  Biso   1.000  Fe
  Fe4      1.0000 0.28746  0.78746  0.75000  Biso   1.000  Fe
  Fe5      1.0000 0.25000  0.28746  0.21254  Biso   1.000  Fe
  Fe6      1.0000 0.25000  0.71254  0.78746  Biso   1.000  Fe
  Fe7      1.0000 0.75000  0.71254  0.21254  Biso   1.000  Fe
  Fe8      1.0000 0.75000  0.28746  0.78746  Biso   1.000  Fe
  Fe9      1.0000 0.21254  0.25000  0.28746  Biso   1.000  Fe
  Fe10     1.0000 0.78746  0.25000  0.71254  Biso   1.000  Fe
  Fe11     1.0000 0.21254  0.75000  0.71254  Biso   1.000  Fe
  Fe12     1.0000 0.78746  0.75000  0.28746  Biso   1.000  Fe
  Fe13     1.0000 0.71254  0.78746  0.75000  Biso   1.000  Fe
  Fe14     1.0000 0.28746  0.21254  0.75000  Biso   1.000  Fe
  Fe15     1.0000 0.28746  0.78746  0.25000  Biso   1.000  Fe
  Fe16     1.0000 0.71254  0.21254  0.25000  Biso   1.000  Fe
  Fe17     1.0000 0.75000  0.71254  0.78746  Biso   1.000  Fe
  Fe18     1.0000 0.75000  0.28746  0.21254  Biso   1.000  Fe
  Fe19     1.0000 0.25000  0.28746  0.78746  Biso   1.000  Fe
  Fe20     1.0000 0.25000  0.71254  0.21254  Biso   1.000  Fe
  Fe21     1.0000 0.78746  0.75000  0.71254  Biso   1.000  Fe
  Fe22     1.0000 0.21254  0.75000  0.28746  Biso   1.000  Fe
  Fe23     1.0000 0.78746  0.25000  0.28746  Biso   1.000  Fe
  Fe24     1.0000 0.21254  0.25000  0.71254  Biso   1.000  Fe
  O97      1.0000 0.25000  0.25000  0.25000  Biso   1.000  O
  O98      1.0000 0.75000  0.75000  0.25000  Biso   1.000  O
  O99      1.0000 0.75000  0.25000  0.75000  Biso   1.000  O
  O100     1.0000 0.25000  0.75000  0.75000  Biso   1.000  O
  O101     1.0000 0.75000  0.75000  0.75000  Biso   1.000  O
  O102     1.0000 0.25000  0.25000  0.75000  Biso   1.000  O
  O103     1.0000 0.25000  0.75000  0.25000  Biso   1.000  O
  O104     1.0000 0.75000  0.25000  0.25000  Biso   1.000  O
  C529     1.0000 0.27100  0.08050  0.00000  Biso   1.000  C
  C530     1.0000 0.27220  0.04070  0.00000  Biso   1.000  C
  N1       1.0000 0.27170  0.15760  0.00000  Biso   1.000  N
  C531     1.0000 0.72900  0.91950  0.00000  Biso   1.000  C
  C532     1.0000 0.72780  0.95930  0.00000  Biso   1.000  C
  N2       1.0000 0.72830  0.84240  0.00000  Biso   1.000  N
  C533     1.0000 0.72900  0.08050  0.00000  Biso   1.000  C
  C534     1.0000 0.72780  0.04070  0.00000  Biso   1.000  C
  N3       1.0000 0.72830  0.15760  0.00000  Biso   1.000  N
  C535     1.0000 0.27100  0.91950  0.00000  Biso   1.000  C
  C536     1.0000 0.27220  0.95930  0.00000  Biso   1.000  C
  N4       1.0000 0.27170  0.84240  0.00000  Biso   1.000  N
  C537     1.0000 0.00000  0.27100  0.08050  Biso   1.000  C
  C538     1.0000 0.00000  0.27220  0.04070  Biso   1.000  C
  N5       1.0000 0.00000  0.27170  0.15760  Biso   1.000  N
  C539     1.0000 0.00000  0.72900  0.91950  Biso   1.000  C
  C540     1.0000 0.00000  0.72780  0.95930  Biso   1.000  C
  N6       1.0000 0.00000  0.72830  0.84240  Biso   1.000  N
  C541     1.0000 0.00000  0.72900  0.08050  Biso   1.000  C
  C542     1.0000 0.00000  0.72780  0.04070  Biso   1.000  C
  N7       1.0000 0.00000  0.72830  0.15760  Biso   1.000  N
  C543     1.0000 0.00000  0.27100  0.91950  Biso   1.000  C
  C544     1.0000 0.00000  0.27220  0.95930  Biso   1.000  C
  N8       1.0000 0.00000  0.27170  0.84240  Biso   1.000  N
  C545     1.0000 0.08050  0.00000  0.27100  Biso   1.000  C
  C546     1.0000 0.04070  0.00000  0.27220  Biso   1.000  C
  N9       1.0000 0.15760  0.00000  0.27170  Biso   1.000  N
  C547     1.0000 0.91950  0.00000  0.72900  Biso   1.000  C
  C548     1.0000 0.95930  0.00000  0.72780  Biso   1.000  C
  N10      1.0000 0.84240  0.00000  0.72830  Biso   1.000  N
  C549     1.0000 0.08050  0.00000  0.72900  Biso   1.000  C
  C550     1.0000 0.04070  0.00000  0.72780  Biso   1.000  C
  N11      1.0000 0.15760  0.00000  0.72830  Biso   1.000  N
  C551     1.0000 0.91950  0.00000  0.27100  Biso   1.000  C
  C552     1.0000 0.95930  0.00000  0.27220  Biso   1.000  C
  N12      1.0000 0.84240  0.00000  0.27170  Biso   1.000  N
  C553     1.0000 0.58050  0.77100  0.50000  Biso   1.000  C
  C554     1.0000 0.54070  0.77220  0.50000  Biso   1.000  C
  N13      1.0000 0.65760  0.77170  0.50000  Biso   1.000  N
  C555     1.0000 0.41950  0.22900  0.50000  Biso   1.000  C
  C556     1.0000 0.45930  0.22780  0.50000  Biso   1.000  C
  N14      1.0000 0.34240  0.22830  0.50000  Biso   1.000  N
  C557     1.0000 0.58050  0.22900  0.50000  Biso   1.000  C
  C558     1.0000 0.54070  0.22780  0.50000  Biso   1.000  C
  N15      1.0000 0.65760  0.22830  0.50000  Biso   1.000  N
  C559     1.0000 0.41950  0.77100  0.50000  Biso   1.000  C
  C560     1.0000 0.45930  0.77220  0.50000  Biso   1.000  C
  N16      1.0000 0.34240  0.77170  0.50000  Biso   1.000  N
  C561     1.0000 0.77100  0.50000  0.41950  Biso   1.000  C
  C562     1.0000 0.77220  0.50000  0.45930  Biso   1.000  C
  N17      1.0000 0.77170  0.50000  0.34240  Biso   1.000  N
  C563     1.0000 0.22900  0.50000  0.58050  Biso   1.000  C
  C564     1.0000 0.22780  0.50000  0.54070  Biso   1.000  C
  N18      1.0000 0.22830  0.50000  0.65760  Biso   1.000  N
  C565     1.0000 0.22900  0.50000  0.41950  Biso   1.000  C
  C566     1.0000 0.22780  0.50000  0.45930  Biso   1.000  C
  N19      1.0000 0.22830  0.50000  0.34240  Biso   1.000  N
  C567     1.0000 0.77100  0.50000  0.58050  Biso   1.000  C
  C568     1.0000 0.77220  0.50000  0.54070  Biso   1.000  C
  N20      1.0000 0.77170  0.50000  0.65760  Biso   1.000  N
  C569     1.0000 0.50000  0.58050  0.22900  Biso   1.000  C
  C570     1.0000 0.50000  0.54070  0.22780  Biso   1.000  C
  N21      1.0000 0.50000  0.65760  0.22830  Biso   1.000  N
  C571     1.0000 0.50000  0.41950  0.77100  Biso   1.000  C
  C572     1.0000 0.50000  0.45930  0.77220  Biso   1.000  C
  N22      1.0000 0.50000  0.34240  0.77170  Biso   1.000  N
  C573     1.0000 0.50000  0.58050  0.77100  Biso   1.000  C
  C574     1.0000 0.50000  0.54070  0.77220  Biso   1.000  C
  N23      1.0000 0.50000  0.65760  0.77170  Biso   1.000  N
  C575     1.0000 0.50000  0.41950  0.22900  Biso   1.000  C
  C576     1.0000 0.50000  0.45930  0.22780  Biso   1.000  C
  N24      1.0000 0.50000  0.34240  0.22830  Biso   1.000  N
