data_image0
_cell_length_a       35.7948
_cell_length_b       35.7948
_cell_length_c       35.7948
_cell_angle_alpha    90
_cell_angle_beta     90
_cell_angle_gamma    90

_symmetry_space_group_name_H-M    "P 1"
_symmetry_int_tables_number       1

loop_
  _symmetry_equiv_pos_as_xyz
  'x, y, z'

loop_
  _atom_site_label
  _atom_site_occupancy
  _atom_site_fract_x
  _atom_site_fract_y
  _atom_site_fract_z
  _atom_site_thermal_displace_type
  _atom_site_B_iso_or_equiv
  _atom_site_type_symbol
  O1       1.0000 0.75210  0.67087  0.24855  Biso   1.000  O
  O2       1.0000 0.78780  0.69532  0.29317  Biso   1.000  O
  C1       1.0000 0.76978  0.66936  0.27883  Biso   1.000  C
  C2       1.0000 0.76878  0.63354  0.29909  Biso   1.000  C
  C3       1.0000 0.75420  0.60163  0.28343  Biso   1.000  C
  H1       1.0000 0.74460  0.60230  0.25870  Biso   1.000  H
  C4       1.0000 0.78340  0.63185  0.33524  Biso   1.000  C
  H2       1.0000 0.79430  0.65340  0.34620  Biso   1.000  H
  C5       1.0000 0.75320  0.56873  0.30326  Biso   1.000  C
  H3       1.0000 0.74330  0.54680  0.29200  Biso   1.000  H
  C6       1.0000 0.76650  0.56726  0.33936  Biso   1.000  C
  C7       1.0000 0.76480  0.53226  0.36124  Biso   1.000  C
  C8       1.0000 0.78200  0.59946  0.35470  Biso   1.000  C
  H4       1.0000 0.79190  0.59870  0.37930  Biso   1.000  H
  C9       1.0000 0.76260  0.53310  0.39952  Biso   1.000  C
  H5       1.0000 0.76170  0.55640  0.41220  Biso   1.000  H
  C10      1.0000 0.77400  0.52840  0.48130  Biso   1.000  C
  H6       1.0000 0.78410  0.54940  0.46850  Biso   1.000  H
  C11      1.0000 0.73900  0.52580  0.47930  Biso   1.000  C
  H7       1.0000 0.72440  0.54320  0.46560  Biso   1.000  H
  O3       1.0000 0.24790  0.32913  0.24855  Biso   1.000  O
  O4       1.0000 0.21220  0.30468  0.29317  Biso   1.000  O
  C12      1.0000 0.23022  0.33064  0.27883  Biso   1.000  C
  C13      1.0000 0.23122  0.36646  0.29909  Biso   1.000  C
  C14      1.0000 0.24580  0.39837  0.28343  Biso   1.000  C
  H8       1.0000 0.25540  0.39770  0.25870  Biso   1.000  H
  C15      1.0000 0.21660  0.36815  0.33524  Biso   1.000  C
  H9       1.0000 0.20570  0.34660  0.34620  Biso   1.000  H
  C16      1.0000 0.24680  0.43127  0.30326  Biso   1.000  C
  H10      1.0000 0.25670  0.45320  0.29200  Biso   1.000  H
  C17      1.0000 0.23350  0.43274  0.33936  Biso   1.000  C
  C18      1.0000 0.23520  0.46774  0.36124  Biso   1.000  C
  C19      1.0000 0.21800  0.40054  0.35470  Biso   1.000  C
  H11      1.0000 0.20810  0.40130  0.37930  Biso   1.000  H
  C20      1.0000 0.23740  0.46690  0.39952  Biso   1.000  C
  H12      1.0000 0.23830  0.44360  0.41220  Biso   1.000  H
  C21      1.0000 0.22600  0.47160  0.48130  Biso   1.000  C
  H13      1.0000 0.21590  0.45060  0.46850  Biso   1.000  H
  C22      1.0000 0.26100  0.47420  0.47930  Biso   1.000  C
  H14      1.0000 0.27560  0.45680  0.46560  Biso   1.000  H
  O5       1.0000 0.24790  0.67087  0.75145  Biso   1.000  O
  O6       1.0000 0.21220  0.69532  0.70683  Biso   1.000  O
  C23      1.0000 0.23022  0.66936  0.72117  Biso   1.000  C
  C24      1.0000 0.23122  0.63354  0.70091  Biso   1.000  C
  C25      1.0000 0.24580  0.60163  0.71657  Biso   1.000  C
  H15      1.0000 0.25540  0.60230  0.74130  Biso   1.000  H
  C26      1.0000 0.21660  0.63185  0.66476  Biso   1.000  C
  H16      1.0000 0.20570  0.65340  0.65380  Biso   1.000  H
  C27      1.0000 0.24680  0.56873  0.69674  Biso   1.000  C
  H17      1.0000 0.25670  0.54680  0.70800  Biso   1.000  H
  C28      1.0000 0.23350  0.56726  0.66064  Biso   1.000  C
  C29      1.0000 0.23520  0.53226  0.63876  Biso   1.000  C
  C30      1.0000 0.21800  0.59946  0.64530  Biso   1.000  C
  H18      1.0000 0.20810  0.59870  0.62070  Biso   1.000  H
  C31      1.0000 0.23740  0.53310  0.60048  Biso   1.000  C
  H19      1.0000 0.23830  0.55640  0.58780  Biso   1.000  H
  C32      1.0000 0.22600  0.52840  0.51870  Biso   1.000  C
  H20      1.0000 0.21590  0.54940  0.53150  Biso   1.000  H
  C33      1.0000 0.26100  0.52580  0.52070  Biso   1.000  C
  H21      1.0000 0.27560  0.54320  0.53440  Biso   1.000  H
  O7       1.0000 0.75210  0.32913  0.75145  Biso   1.000  O
  O8       1.0000 0.78780  0.30468  0.70683  Biso   1.000  O
  C34      1.0000 0.76978  0.33064  0.72117  Biso   1.000  C
  C35      1.0000 0.76878  0.36646  0.70091  Biso   1.000  C
  C36      1.0000 0.75420  0.39837  0.71657  Biso   1.000  C
  H22      1.0000 0.74460  0.39770  0.74130  Biso   1.000  H
  C37      1.0000 0.78340  0.36815  0.66476  Biso   1.000  C
  H23      1.0000 0.79430  0.34660  0.65380  Biso   1.000  H
  C38      1.0000 0.75320  0.43127  0.69674  Biso   1.000  C
  H24      1.0000 0.74330  0.45320  0.70800  Biso   1.000  H
  C39      1.0000 0.76650  0.43274  0.66064  Biso   1.000  C
  C40      1.0000 0.76480  0.46774  0.63876  Biso   1.000  C
  C41      1.0000 0.78200  0.40054  0.64530  Biso   1.000  C
  H25      1.0000 0.79190  0.40130  0.62070  Biso   1.000  H
  C42      1.0000 0.76260  0.46690  0.60048  Biso   1.000  C
  H26      1.0000 0.76170  0.44360  0.58780  Biso   1.000  H
  C43      1.0000 0.77400  0.47160  0.51870  Biso   1.000  C
  H27      1.0000 0.78410  0.45060  0.53150  Biso   1.000  H
  C44      1.0000 0.73900  0.47420  0.52070  Biso   1.000  C
  H28      1.0000 0.72440  0.45680  0.53440  Biso   1.000  H
  O9       1.0000 0.24855  0.75210  0.67087  Biso   1.000  O
  O10      1.0000 0.29317  0.78780  0.69532  Biso   1.000  O
  C45      1.0000 0.27883  0.76978  0.66936  Biso   1.000  C
  C46      1.0000 0.29909  0.76878  0.63354  Biso   1.000  C
  C47      1.0000 0.28343  0.75420  0.60163  Biso   1.000  C
  H29      1.0000 0.25870  0.74460  0.60230  Biso   1.000  H
  C48      1.0000 0.33524  0.78340  0.63185  Biso   1.000  C
  H30      1.0000 0.34620  0.79430  0.65340  Biso   1.000  H
  C49      1.0000 0.30326  0.75320  0.56873  Biso   1.000  C
  H31      1.0000 0.29200  0.74330  0.54680  Biso   1.000  H
  C50      1.0000 0.33936  0.76650  0.56726  Biso   1.000  C
  C51      1.0000 0.36124  0.76480  0.53226  Biso   1.000  C
  C52      1.0000 0.35470  0.78200  0.59946  Biso   1.000  C
  H32      1.0000 0.37930  0.79190  0.59870  Biso   1.000  H
  C53      1.0000 0.39952  0.76260  0.53310  Biso   1.000  C
  H33      1.0000 0.41220  0.76170  0.55640  Biso   1.000  H
  C54      1.0000 0.48130  0.77400  0.52840  Biso   1.000  C
  H34      1.0000 0.46850  0.78410  0.54940  Biso   1.000  H
  C55      1.0000 0.47930  0.73900  0.52580  Biso   1.000  C
  H35      1.0000 0.46560  0.72440  0.54320  Biso   1.000  H
  O11      1.0000 0.24855  0.24790  0.32913  Biso   1.000  O
  O12      1.0000 0.29317  0.21220  0.30468  Biso   1.000  O
  C56      1.0000 0.27883  0.23022  0.33064  Biso   1.000  C
  C57      1.0000 0.29909  0.23122  0.36646  Biso   1.000  C
  C58      1.0000 0.28343  0.24580  0.39837  Biso   1.000  C
  H36      1.0000 0.25870  0.25540  0.39770  Biso   1.000  H
  C59      1.0000 0.33524  0.21660  0.36815  Biso   1.000  C
  H37      1.0000 0.34620  0.20570  0.34660  Biso   1.000  H
  C60      1.0000 0.30326  0.24680  0.43127  Biso   1.000  C
  H38      1.0000 0.29200  0.25670  0.45320  Biso   1.000  H
  C61      1.0000 0.33936  0.23350  0.43274  Biso   1.000  C
  C62      1.0000 0.36124  0.23520  0.46774  Biso   1.000  C
  C63      1.0000 0.35470  0.21800  0.40054  Biso   1.000  C
  H39      1.0000 0.37930  0.20810  0.40130  Biso   1.000  H
  C64      1.0000 0.39952  0.23740  0.46690  Biso   1.000  C
  H40      1.0000 0.41220  0.23830  0.44360  Biso   1.000  H
  C65      1.0000 0.48130  0.22600  0.47160  Biso   1.000  C
  H41      1.0000 0.46850  0.21590  0.45060  Biso   1.000  H
  C66      1.0000 0.47930  0.26100  0.47420  Biso   1.000  C
  H42      1.0000 0.46560  0.27560  0.45680  Biso   1.000  H
  O13      1.0000 0.75145  0.24790  0.67087  Biso   1.000  O
  O14      1.0000 0.70683  0.21220  0.69532  Biso   1.000  O
  C67      1.0000 0.72117  0.23022  0.66936  Biso   1.000  C
  C68      1.0000 0.70091  0.23122  0.63354  Biso   1.000  C
  C69      1.0000 0.71657  0.24580  0.60163  Biso   1.000  C
  H43      1.0000 0.74130  0.25540  0.60230  Biso   1.000  H
  C70      1.0000 0.66476  0.21660  0.63185  Biso   1.000  C
  H44      1.0000 0.65380  0.20570  0.65340  Biso   1.000  H
  C71      1.0000 0.69674  0.24680  0.56873  Biso   1.000  C
  H45      1.0000 0.70800  0.25670  0.54680  Biso   1.000  H
  C72      1.0000 0.66064  0.23350  0.56726  Biso   1.000  C
  C73      1.0000 0.63876  0.23520  0.53226  Biso   1.000  C
  C74      1.0000 0.64530  0.21800  0.59946  Biso   1.000  C
  H46      1.0000 0.62070  0.20810  0.59870  Biso   1.000  H
  C75      1.0000 0.60048  0.23740  0.53310  Biso   1.000  C
  H47      1.0000 0.58780  0.23830  0.55640  Biso   1.000  H
  C76      1.0000 0.51870  0.22600  0.52840  Biso   1.000  C
  H48      1.0000 0.53150  0.21590  0.54940  Biso   1.000  H
  C77      1.0000 0.52070  0.26100  0.52580  Biso   1.000  C
  H49      1.0000 0.53440  0.27560  0.54320  Biso   1.000  H
  O15      1.0000 0.75145  0.75210  0.32913  Biso   1.000  O
  O16      1.0000 0.70683  0.78780  0.30468  Biso   1.000  O
  C78      1.0000 0.72117  0.76978  0.33064  Biso   1.000  C
  C79      1.0000 0.70091  0.76878  0.36646  Biso   1.000  C
  C80      1.0000 0.71657  0.75420  0.39837  Biso   1.000  C
  H50      1.0000 0.74130  0.74460  0.39770  Biso   1.000  H
  C81      1.0000 0.66476  0.78340  0.36815  Biso   1.000  C
  H51      1.0000 0.65380  0.79430  0.34660  Biso   1.000  H
  C82      1.0000 0.69674  0.75320  0.43127  Biso   1.000  C
  H52      1.0000 0.70800  0.74330  0.45320  Biso   1.000  H
  C83      1.0000 0.66064  0.76650  0.43274  Biso   1.000  C
  C84      1.0000 0.63876  0.76480  0.46774  Biso   1.000  C
  C85      1.0000 0.64530  0.78200  0.40054  Biso   1.000  C
  H53      1.0000 0.62070  0.79190  0.40130  Biso   1.000  H
  C86      1.0000 0.60048  0.76260  0.46690  Biso   1.000  C
  H54      1.0000 0.58780  0.76170  0.44360  Biso   1.000  H
  C87      1.0000 0.51870  0.77400  0.47160  Biso   1.000  C
  H55      1.0000 0.53150  0.78410  0.45060  Biso   1.000  H
  C88      1.0000 0.52070  0.73900  0.47420  Biso   1.000  C
  H56      1.0000 0.53440  0.72440  0.45680  Biso   1.000  H
  O17      1.0000 0.67087  0.24855  0.75210  Biso   1.000  O
  O18      1.0000 0.69532  0.29317  0.78780  Biso   1.000  O
  C89      1.0000 0.66936  0.27883  0.76978  Biso   1.000  C
  C90      1.0000 0.63354  0.29909  0.76878  Biso   1.000  C
  C91      1.0000 0.60163  0.28343  0.75420  Biso   1.000  C
  H57      1.0000 0.60230  0.25870  0.74460  Biso   1.000  H
  C92      1.0000 0.63185  0.33524  0.78340  Biso   1.000  C
  H58      1.0000 0.65340  0.34620  0.79430  Biso   1.000  H
  C93      1.0000 0.56873  0.30326  0.75320  Biso   1.000  C
  H59      1.0000 0.54680  0.29200  0.74330  Biso   1.000  H
  C94      1.0000 0.56726  0.33936  0.76650  Biso   1.000  C
  C95      1.0000 0.53226  0.36124  0.76480  Biso   1.000  C
  C96      1.0000 0.59946  0.35470  0.78200  Biso   1.000  C
  H60      1.0000 0.59870  0.37930  0.79190  Biso   1.000  H
  C97      1.0000 0.53310  0.39952  0.76260  Biso   1.000  C
  H61      1.0000 0.55640  0.41220  0.76170  Biso   1.000  H
  C98      1.0000 0.52840  0.48130  0.77400  Biso   1.000  C
  H62      1.0000 0.54940  0.46850  0.78410  Biso   1.000  H
  C99      1.0000 0.52580  0.47930  0.73900  Biso   1.000  C
  H63      1.0000 0.54320  0.46560  0.72440  Biso   1.000  H
  O19      1.0000 0.32913  0.24855  0.24790  Biso   1.000  O
  O20      1.0000 0.30468  0.29317  0.21220  Biso   1.000  O
  C100     1.0000 0.33064  0.27883  0.23022  Biso   1.000  C
  C101     1.0000 0.36646  0.29909  0.23122  Biso   1.000  C
  C102     1.0000 0.39837  0.28343  0.24580  Biso   1.000  C
  H64      1.0000 0.39770  0.25870  0.25540  Biso   1.000  H
  C103     1.0000 0.36815  0.33524  0.21660  Biso   1.000  C
  H65      1.0000 0.34660  0.34620  0.20570  Biso   1.000  H
  C104     1.0000 0.43127  0.30326  0.24680  Biso   1.000  C
  H66      1.0000 0.45320  0.29200  0.25670  Biso   1.000  H
  C105     1.0000 0.43274  0.33936  0.23350  Biso   1.000  C
  C106     1.0000 0.46774  0.36124  0.23520  Biso   1.000  C
  C107     1.0000 0.40054  0.35470  0.21800  Biso   1.000  C
  H67      1.0000 0.40130  0.37930  0.20810  Biso   1.000  H
  C108     1.0000 0.46690  0.39952  0.23740  Biso   1.000  C
  H68      1.0000 0.44360  0.41220  0.23830  Biso   1.000  H
  C109     1.0000 0.47160  0.48130  0.22600  Biso   1.000  C
  H69      1.0000 0.45060  0.46850  0.21590  Biso   1.000  H
  C110     1.0000 0.47420  0.47930  0.26100  Biso   1.000  C
  H70      1.0000 0.45680  0.46560  0.27560  Biso   1.000  H
  O21      1.0000 0.67087  0.75145  0.24790  Biso   1.000  O
  O22      1.0000 0.69532  0.70683  0.21220  Biso   1.000  O
  C111     1.0000 0.66936  0.72117  0.23022  Biso   1.000  C
  C112     1.0000 0.63354  0.70091  0.23122  Biso   1.000  C
  C113     1.0000 0.60163  0.71657  0.24580  Biso   1.000  C
  H71      1.0000 0.60230  0.74130  0.25540  Biso   1.000  H
  C114     1.0000 0.63185  0.66476  0.21660  Biso   1.000  C
  H72      1.0000 0.65340  0.65380  0.20570  Biso   1.000  H
  C115     1.0000 0.56873  0.69674  0.24680  Biso   1.000  C
  H73      1.0000 0.54680  0.70800  0.25670  Biso   1.000  H
  C116     1.0000 0.56726  0.66064  0.23350  Biso   1.000  C
  C117     1.0000 0.53226  0.63876  0.23520  Biso   1.000  C
  C118     1.0000 0.59946  0.64530  0.21800  Biso   1.000  C
  H74      1.0000 0.59870  0.62070  0.20810  Biso   1.000  H
  C119     1.0000 0.53310  0.60048  0.23740  Biso   1.000  C
  H75      1.0000 0.55640  0.58780  0.23830  Biso   1.000  H
  C120     1.0000 0.52840  0.51870  0.22600  Biso   1.000  C
  H76      1.0000 0.54940  0.53150  0.21590  Biso   1.000  H
  C121     1.0000 0.52580  0.52070  0.26100  Biso   1.000  C
  H77      1.0000 0.54320  0.53440  0.27560  Biso   1.000  H
  O23      1.0000 0.32913  0.75145  0.75210  Biso   1.000  O
  O24      1.0000 0.30468  0.70683  0.78780  Biso   1.000  O
  C122     1.0000 0.33064  0.72117  0.76978  Biso   1.000  C
  C123     1.0000 0.36646  0.70091  0.76878  Biso   1.000  C
  C124     1.0000 0.39837  0.71657  0.75420  Biso   1.000  C
  H78      1.0000 0.39770  0.74130  0.74460  Biso   1.000  H
  C125     1.0000 0.36815  0.66476  0.78340  Biso   1.000  C
  H79      1.0000 0.34660  0.65380  0.79430  Biso   1.000  H
  C126     1.0000 0.43127  0.69674  0.75320  Biso   1.000  C
  H80      1.0000 0.45320  0.70800  0.74330  Biso   1.000  H
  C127     1.0000 0.43274  0.66064  0.76650  Biso   1.000  C
  C128     1.0000 0.46774  0.63876  0.76480  Biso   1.000  C
  C129     1.0000 0.40054  0.64530  0.78200  Biso   1.000  C
  H81      1.0000 0.40130  0.62070  0.79190  Biso   1.000  H
  C130     1.0000 0.46690  0.60048  0.76260  Biso   1.000  C
  H82      1.0000 0.44360  0.58780  0.76170  Biso   1.000  H
  C131     1.0000 0.47160  0.51870  0.77400  Biso   1.000  C
  H83      1.0000 0.45060  0.53150  0.78410  Biso   1.000  H
  C132     1.0000 0.47420  0.52070  0.73900  Biso   1.000  C
  H84      1.0000 0.45680  0.53440  0.72440  Biso   1.000  H
  O25      1.0000 0.17087  0.25210  0.25145  Biso   1.000  O
  O26      1.0000 0.19532  0.28780  0.20683  Biso   1.000  O
  C133     1.0000 0.16936  0.26978  0.22117  Biso   1.000  C
  C134     1.0000 0.13354  0.26878  0.20091  Biso   1.000  C
  C135     1.0000 0.10163  0.25420  0.21657  Biso   1.000  C
  H85      1.0000 0.10230  0.24460  0.24130  Biso   1.000  H
  C136     1.0000 0.13185  0.28340  0.16476  Biso   1.000  C
  H86      1.0000 0.15340  0.29430  0.15380  Biso   1.000  H
  C137     1.0000 0.06873  0.25320  0.19674  Biso   1.000  C
  H87      1.0000 0.04680  0.24330  0.20800  Biso   1.000  H
  C138     1.0000 0.06726  0.26650  0.16064  Biso   1.000  C
  C139     1.0000 0.03226  0.26480  0.13876  Biso   1.000  C
  C140     1.0000 0.09946  0.28200  0.14530  Biso   1.000  C
  H88      1.0000 0.09870  0.29190  0.12070  Biso   1.000  H
  C141     1.0000 0.03310  0.26260  0.10048  Biso   1.000  C
  H89      1.0000 0.05640  0.26170  0.08780  Biso   1.000  H
  C142     1.0000 0.02840  0.27400  0.01870  Biso   1.000  C
  H90      1.0000 0.04940  0.28410  0.03150  Biso   1.000  H
  C143     1.0000 0.02580  0.23900  0.02070  Biso   1.000  C
  H91      1.0000 0.04320  0.22440  0.03440  Biso   1.000  H
  O27      1.0000 0.82913  0.74790  0.25145  Biso   1.000  O
  O28      1.0000 0.80468  0.71220  0.20683  Biso   1.000  O
  C144     1.0000 0.83064  0.73022  0.22117  Biso   1.000  C
  C145     1.0000 0.86646  0.73122  0.20091  Biso   1.000  C
  C146     1.0000 0.89837  0.74580  0.21657  Biso   1.000  C
  H92      1.0000 0.89770  0.75540  0.24130  Biso   1.000  H
  C147     1.0000 0.86815  0.71660  0.16476  Biso   1.000  C
  H93      1.0000 0.84660  0.70570  0.15380  Biso   1.000  H
  C148     1.0000 0.93127  0.74680  0.19674  Biso   1.000  C
  H94      1.0000 0.95320  0.75670  0.20800  Biso   1.000  H
  C149     1.0000 0.93274  0.73350  0.16064  Biso   1.000  C
  C150     1.0000 0.96774  0.73520  0.13876  Biso   1.000  C
  C151     1.0000 0.90054  0.71800  0.14530  Biso   1.000  C
  H95      1.0000 0.90130  0.70810  0.12070  Biso   1.000  H
  C152     1.0000 0.96690  0.73740  0.10048  Biso   1.000  C
  H96      1.0000 0.94360  0.73830  0.08780  Biso   1.000  H
  C153     1.0000 0.97160  0.72600  0.01870  Biso   1.000  C
  H97      1.0000 0.95060  0.71590  0.03150  Biso   1.000  H
  C154     1.0000 0.97420  0.76100  0.02070  Biso   1.000  C
  H98      1.0000 0.95680  0.77560  0.03440  Biso   1.000  H
  O29      1.0000 0.17087  0.74790  0.74855  Biso   1.000  O
  O30      1.0000 0.19532  0.71220  0.79317  Biso   1.000  O
  C155     1.0000 0.16936  0.73022  0.77883  Biso   1.000  C
  C156     1.0000 0.13354  0.73122  0.79909  Biso   1.000  C
  C157     1.0000 0.10163  0.74580  0.78343  Biso   1.000  C
  H99      1.0000 0.10230  0.75540  0.75870  Biso   1.000  H
  C158     1.0000 0.13185  0.71660  0.83524  Biso   1.000  C
  H100     1.0000 0.15340  0.70570  0.84620  Biso   1.000  H
  C159     1.0000 0.06873  0.74680  0.80326  Biso   1.000  C
  H101     1.0000 0.04680  0.75670  0.79200  Biso   1.000  H
  C160     1.0000 0.06726  0.73350  0.83936  Biso   1.000  C
  C161     1.0000 0.03226  0.73520  0.86124  Biso   1.000  C
  C162     1.0000 0.09946  0.71800  0.85470  Biso   1.000  C
  H102     1.0000 0.09870  0.70810  0.87930  Biso   1.000  H
  C163     1.0000 0.03310  0.73740  0.89952  Biso   1.000  C
  H103     1.0000 0.05640  0.73830  0.91220  Biso   1.000  H
  C164     1.0000 0.02840  0.72600  0.98130  Biso   1.000  C
  H104     1.0000 0.04940  0.71590  0.96850  Biso   1.000  H
  C165     1.0000 0.02580  0.76100  0.97930  Biso   1.000  C
  H105     1.0000 0.04320  0.77560  0.96560  Biso   1.000  H
  O31      1.0000 0.82913  0.25210  0.74855  Biso   1.000  O
  O32      1.0000 0.80468  0.28780  0.79317  Biso   1.000  O
  C166     1.0000 0.83064  0.26978  0.77883  Biso   1.000  C
  C167     1.0000 0.86646  0.26878  0.79909  Biso   1.000  C
  C168     1.0000 0.89837  0.25420  0.78343  Biso   1.000  C
  H106     1.0000 0.89770  0.24460  0.75870  Biso   1.000  H
  C169     1.0000 0.86815  0.28340  0.83524  Biso   1.000  C
  H107     1.0000 0.84660  0.29430  0.84620  Biso   1.000  H
  C170     1.0000 0.93127  0.25320  0.80326  Biso   1.000  C
  H108     1.0000 0.95320  0.24330  0.79200  Biso   1.000  H
  C171     1.0000 0.93274  0.26650  0.83936  Biso   1.000  C
  C172     1.0000 0.96774  0.26480  0.86124  Biso   1.000  C
  C173     1.0000 0.90054  0.28200  0.85470  Biso   1.000  C
  H109     1.0000 0.90130  0.29190  0.87930  Biso   1.000  H
  C174     1.0000 0.96690  0.26260  0.89952  Biso   1.000  C
  H110     1.0000 0.94360  0.26170  0.91220  Biso   1.000  H
  C175     1.0000 0.97160  0.27400  0.98130  Biso   1.000  C
  H111     1.0000 0.95060  0.28410  0.96850  Biso   1.000  H
  C176     1.0000 0.97420  0.23900  0.97930  Biso   1.000  C
  H112     1.0000 0.95680  0.22440  0.96560  Biso   1.000  H
  O33      1.0000 0.25210  0.74855  0.82913  Biso   1.000  O
  O34      1.0000 0.28780  0.79317  0.80468  Biso   1.000  O
  C177     1.0000 0.26978  0.77883  0.83064  Biso   1.000  C
  C178     1.0000 0.26878  0.79909  0.86646  Biso   1.000  C
  C179     1.0000 0.25420  0.78343  0.89837  Biso   1.000  C
  H113     1.0000 0.24460  0.75870  0.89770  Biso   1.000  H
  C180     1.0000 0.28340  0.83524  0.86815  Biso   1.000  C
  H114     1.0000 0.29430  0.84620  0.84660  Biso   1.000  H
  C181     1.0000 0.25320  0.80326  0.93127  Biso   1.000  C
  H115     1.0000 0.24330  0.79200  0.95320  Biso   1.000  H
  C182     1.0000 0.26650  0.83936  0.93274  Biso   1.000  C
  C183     1.0000 0.26480  0.86124  0.96774  Biso   1.000  C
  C184     1.0000 0.28200  0.85470  0.90054  Biso   1.000  C
  H116     1.0000 0.29190  0.87930  0.90130  Biso   1.000  H
  C185     1.0000 0.26260  0.89952  0.96690  Biso   1.000  C
  H117     1.0000 0.26170  0.91220  0.94360  Biso   1.000  H
  C186     1.0000 0.27400  0.98130  0.97160  Biso   1.000  C
  H118     1.0000 0.28410  0.96850  0.95060  Biso   1.000  H
  C187     1.0000 0.23900  0.97930  0.97420  Biso   1.000  C
  H119     1.0000 0.22440  0.96560  0.95680  Biso   1.000  H
  O35      1.0000 0.74790  0.74855  0.17087  Biso   1.000  O
  O36      1.0000 0.71220  0.79317  0.19532  Biso   1.000  O
  C188     1.0000 0.73022  0.77883  0.16936  Biso   1.000  C
  C189     1.0000 0.73122  0.79909  0.13354  Biso   1.000  C
  C190     1.0000 0.74580  0.78343  0.10163  Biso   1.000  C
  H120     1.0000 0.75540  0.75870  0.10230  Biso   1.000  H
  C191     1.0000 0.71660  0.83524  0.13185  Biso   1.000  C
  H121     1.0000 0.70570  0.84620  0.15340  Biso   1.000  H
  C192     1.0000 0.74680  0.80326  0.06873  Biso   1.000  C
  H122     1.0000 0.75670  0.79200  0.04680  Biso   1.000  H
  C193     1.0000 0.73350  0.83936  0.06726  Biso   1.000  C
  C194     1.0000 0.73520  0.86124  0.03226  Biso   1.000  C
  C195     1.0000 0.71800  0.85470  0.09946  Biso   1.000  C
  H123     1.0000 0.70810  0.87930  0.09870  Biso   1.000  H
  C196     1.0000 0.73740  0.89952  0.03310  Biso   1.000  C
  H124     1.0000 0.73830  0.91220  0.05640  Biso   1.000  H
  C197     1.0000 0.72600  0.98130  0.02840  Biso   1.000  C
  H125     1.0000 0.71590  0.96850  0.04940  Biso   1.000  H
  C198     1.0000 0.76100  0.97930  0.02580  Biso   1.000  C
  H126     1.0000 0.77560  0.96560  0.04320  Biso   1.000  H
  O37      1.0000 0.74790  0.25145  0.82913  Biso   1.000  O
  O38      1.0000 0.71220  0.20683  0.80468  Biso   1.000  O
  C199     1.0000 0.73022  0.22117  0.83064  Biso   1.000  C
  C200     1.0000 0.73122  0.20091  0.86646  Biso   1.000  C
  C201     1.0000 0.74580  0.21657  0.89837  Biso   1.000  C
  H127     1.0000 0.75540  0.24130  0.89770  Biso   1.000  H
  C202     1.0000 0.71660  0.16476  0.86815  Biso   1.000  C
  H128     1.0000 0.70570  0.15380  0.84660  Biso   1.000  H
  C203     1.0000 0.74680  0.19674  0.93127  Biso   1.000  C
  H129     1.0000 0.75670  0.20800  0.95320  Biso   1.000  H
  C204     1.0000 0.73350  0.16064  0.93274  Biso   1.000  C
  C205     1.0000 0.73520  0.13876  0.96774  Biso   1.000  C
  C206     1.0000 0.71800  0.14530  0.90054  Biso   1.000  C
  H130     1.0000 0.70810  0.12070  0.90130  Biso   1.000  H
  C207     1.0000 0.73740  0.10048  0.96690  Biso   1.000  C
  H131     1.0000 0.73830  0.08780  0.94360  Biso   1.000  H
  C208     1.0000 0.72600  0.01870  0.97160  Biso   1.000  C
  H132     1.0000 0.71590  0.03150  0.95060  Biso   1.000  H
  C209     1.0000 0.76100  0.02070  0.97420  Biso   1.000  C
  H133     1.0000 0.77560  0.03440  0.95680  Biso   1.000  H
  O39      1.0000 0.25210  0.25145  0.17087  Biso   1.000  O
  O40      1.0000 0.28780  0.20683  0.19532  Biso   1.000  O
  C210     1.0000 0.26978  0.22117  0.16936  Biso   1.000  C
  C211     1.0000 0.26878  0.20091  0.13354  Biso   1.000  C
  C212     1.0000 0.25420  0.21657  0.10163  Biso   1.000  C
  H134     1.0000 0.24460  0.24130  0.10230  Biso   1.000  H
  C213     1.0000 0.28340  0.16476  0.13185  Biso   1.000  C
  H135     1.0000 0.29430  0.15380  0.15340  Biso   1.000  H
  C214     1.0000 0.25320  0.19674  0.06873  Biso   1.000  C
  H136     1.0000 0.24330  0.20800  0.04680  Biso   1.000  H
  C215     1.0000 0.26650  0.16064  0.06726  Biso   1.000  C
  C216     1.0000 0.26480  0.13876  0.03226  Biso   1.000  C
  C217     1.0000 0.28200  0.14530  0.09946  Biso   1.000  C
  H137     1.0000 0.29190  0.12070  0.09870  Biso   1.000  H
  C218     1.0000 0.26260  0.10048  0.03310  Biso   1.000  C
  H138     1.0000 0.26170  0.08780  0.05640  Biso   1.000  H
  C219     1.0000 0.27400  0.01870  0.02840  Biso   1.000  C
  H139     1.0000 0.28410  0.03150  0.04940  Biso   1.000  H
  C220     1.0000 0.23900  0.02070  0.02580  Biso   1.000  C
  H140     1.0000 0.22440  0.03440  0.04320  Biso   1.000  H
  O41      1.0000 0.74855  0.17087  0.74790  Biso   1.000  O
  O42      1.0000 0.79317  0.19532  0.71220  Biso   1.000  O
  C221     1.0000 0.77883  0.16936  0.73022  Biso   1.000  C
  C222     1.0000 0.79909  0.13354  0.73122  Biso   1.000  C
  C223     1.0000 0.78343  0.10163  0.74580  Biso   1.000  C
  H141     1.0000 0.75870  0.10230  0.75540  Biso   1.000  H
  C224     1.0000 0.83524  0.13185  0.71660  Biso   1.000  C
  H142     1.0000 0.84620  0.15340  0.70570  Biso   1.000  H
  C225     1.0000 0.80326  0.06873  0.74680  Biso   1.000  C
  H143     1.0000 0.79200  0.04680  0.75670  Biso   1.000  H
  C226     1.0000 0.83936  0.06726  0.73350  Biso   1.000  C
  C227     1.0000 0.86124  0.03226  0.73520  Biso   1.000  C
  C228     1.0000 0.85470  0.09946  0.71800  Biso   1.000  C
  H144     1.0000 0.87930  0.09870  0.70810  Biso   1.000  H
  C229     1.0000 0.89952  0.03310  0.73740  Biso   1.000  C
  H145     1.0000 0.91220  0.05640  0.73830  Biso   1.000  H
  C230     1.0000 0.98130  0.02840  0.72600  Biso   1.000  C
  H146     1.0000 0.96850  0.04940  0.71590  Biso   1.000  H
  C231     1.0000 0.97930  0.02580  0.76100  Biso   1.000  C
  H147     1.0000 0.96560  0.04320  0.77560  Biso   1.000  H
  O43      1.0000 0.74855  0.82913  0.25210  Biso   1.000  O
  O44      1.0000 0.79317  0.80468  0.28780  Biso   1.000  O
  C232     1.0000 0.77883  0.83064  0.26978  Biso   1.000  C
  C233     1.0000 0.79909  0.86646  0.26878  Biso   1.000  C
  C234     1.0000 0.78343  0.89837  0.25420  Biso   1.000  C
  H148     1.0000 0.75870  0.89770  0.24460  Biso   1.000  H
  C235     1.0000 0.83524  0.86815  0.28340  Biso   1.000  C
  H149     1.0000 0.84620  0.84660  0.29430  Biso   1.000  H
  C236     1.0000 0.80326  0.93127  0.25320  Biso   1.000  C
  H150     1.0000 0.79200  0.95320  0.24330  Biso   1.000  H
  C237     1.0000 0.83936  0.93274  0.26650  Biso   1.000  C
  C238     1.0000 0.86124  0.96774  0.26480  Biso   1.000  C
  C239     1.0000 0.85470  0.90054  0.28200  Biso   1.000  C
  H151     1.0000 0.87930  0.90130  0.29190  Biso   1.000  H
  C240     1.0000 0.89952  0.96690  0.26260  Biso   1.000  C
  H152     1.0000 0.91220  0.94360  0.26170  Biso   1.000  H
  C241     1.0000 0.98130  0.97160  0.27400  Biso   1.000  C
  H153     1.0000 0.96850  0.95060  0.28410  Biso   1.000  H
  C242     1.0000 0.97930  0.97420  0.23900  Biso   1.000  C
  H154     1.0000 0.96560  0.95680  0.22440  Biso   1.000  H
  O45      1.0000 0.25145  0.17087  0.25210  Biso   1.000  O
  O46      1.0000 0.20683  0.19532  0.28780  Biso   1.000  O
  C243     1.0000 0.22117  0.16936  0.26978  Biso   1.000  C
  C244     1.0000 0.20091  0.13354  0.26878  Biso   1.000  C
  C245     1.0000 0.21657  0.10163  0.25420  Biso   1.000  C
  H155     1.0000 0.24130  0.10230  0.24460  Biso   1.000  H
  C246     1.0000 0.16476  0.13185  0.28340  Biso   1.000  C
  H156     1.0000 0.15380  0.15340  0.29430  Biso   1.000  H
  C247     1.0000 0.19674  0.06873  0.25320  Biso   1.000  C
  H157     1.0000 0.20800  0.04680  0.24330  Biso   1.000  H
  C248     1.0000 0.16064  0.06726  0.26650  Biso   1.000  C
  C249     1.0000 0.13876  0.03226  0.26480  Biso   1.000  C
  C250     1.0000 0.14530  0.09946  0.28200  Biso   1.000  C
  H158     1.0000 0.12070  0.09870  0.29190  Biso   1.000  H
  C251     1.0000 0.10048  0.03310  0.26260  Biso   1.000  C
  H159     1.0000 0.08780  0.05640  0.26170  Biso   1.000  H
  C252     1.0000 0.01870  0.02840  0.27400  Biso   1.000  C
  H160     1.0000 0.03150  0.04940  0.28410  Biso   1.000  H
  C253     1.0000 0.02070  0.02580  0.23900  Biso   1.000  C
  H161     1.0000 0.03440  0.04320  0.22440  Biso   1.000  H
  O47      1.0000 0.25145  0.82913  0.74790  Biso   1.000  O
  O48      1.0000 0.20683  0.80468  0.71220  Biso   1.000  O
  C254     1.0000 0.22117  0.83064  0.73022  Biso   1.000  C
  C255     1.0000 0.20091  0.86646  0.73122  Biso   1.000  C
  C256     1.0000 0.21657  0.89837  0.74580  Biso   1.000  C
  H162     1.0000 0.24130  0.89770  0.75540  Biso   1.000  H
  C257     1.0000 0.16476  0.86815  0.71660  Biso   1.000  C
  H163     1.0000 0.15380  0.84660  0.70570  Biso   1.000  H
  C258     1.0000 0.19674  0.93127  0.74680  Biso   1.000  C
  H164     1.0000 0.20800  0.95320  0.75670  Biso   1.000  H
  C259     1.0000 0.16064  0.93274  0.73350  Biso   1.000  C
  C260     1.0000 0.13876  0.96774  0.73520  Biso   1.000  C
  C261     1.0000 0.14530  0.90054  0.71800  Biso   1.000  C
  H165     1.0000 0.12070  0.90130  0.70810  Biso   1.000  H
  C262     1.0000 0.10048  0.96690  0.73740  Biso   1.000  C
  H166     1.0000 0.08780  0.94360  0.73830  Biso   1.000  H
  C263     1.0000 0.01870  0.97160  0.72600  Biso   1.000  C
  H167     1.0000 0.03150  0.95060  0.71590  Biso   1.000  H
  C264     1.0000 0.02070  0.97420  0.76100  Biso   1.000  C
  H168     1.0000 0.03440  0.95680  0.77560  Biso   1.000  H
  O49      1.0000 0.24790  0.32913  0.75145  Biso   1.000  O
  O50      1.0000 0.21220  0.30468  0.70683  Biso   1.000  O
  C265     1.0000 0.23022  0.33064  0.72117  Biso   1.000  C
  C266     1.0000 0.23122  0.36646  0.70091  Biso   1.000  C
  C267     1.0000 0.24580  0.39837  0.71657  Biso   1.000  C
  H169     1.0000 0.25540  0.39770  0.74130  Biso   1.000  H
  C268     1.0000 0.21660  0.36815  0.66476  Biso   1.000  C
  H170     1.0000 0.20570  0.34660  0.65380  Biso   1.000  H
  C269     1.0000 0.24680  0.43127  0.69674  Biso   1.000  C
  H171     1.0000 0.25670  0.45320  0.70800  Biso   1.000  H
  C270     1.0000 0.23350  0.43274  0.66064  Biso   1.000  C
  C271     1.0000 0.23520  0.46774  0.63876  Biso   1.000  C
  C272     1.0000 0.21800  0.40054  0.64530  Biso   1.000  C
  H172     1.0000 0.20810  0.40130  0.62070  Biso   1.000  H
  C273     1.0000 0.23740  0.46690  0.60048  Biso   1.000  C
  H173     1.0000 0.23830  0.44360  0.58780  Biso   1.000  H
  C274     1.0000 0.22600  0.47160  0.51870  Biso   1.000  C
  H174     1.0000 0.21590  0.45060  0.53150  Biso   1.000  H
  C275     1.0000 0.26100  0.47420  0.52070  Biso   1.000  C
  H175     1.0000 0.27560  0.45680  0.53440  Biso   1.000  H
  O51      1.0000 0.75210  0.67087  0.75145  Biso   1.000  O
  O52      1.0000 0.78780  0.69532  0.70683  Biso   1.000  O
  C276     1.0000 0.76978  0.66936  0.72117  Biso   1.000  C
  C277     1.0000 0.76878  0.63354  0.70091  Biso   1.000  C
  C278     1.0000 0.75420  0.60163  0.71657  Biso   1.000  C
  H176     1.0000 0.74460  0.60230  0.74130  Biso   1.000  H
  C279     1.0000 0.78340  0.63185  0.66476  Biso   1.000  C
  H177     1.0000 0.79430  0.65340  0.65380  Biso   1.000  H
  C280     1.0000 0.75320  0.56873  0.69674  Biso   1.000  C
  H178     1.0000 0.74330  0.54680  0.70800  Biso   1.000  H
  C281     1.0000 0.76650  0.56726  0.66064  Biso   1.000  C
  C282     1.0000 0.76480  0.53226  0.63876  Biso   1.000  C
  C283     1.0000 0.78200  0.59946  0.64530  Biso   1.000  C
  H179     1.0000 0.79190  0.59870  0.62070  Biso   1.000  H
  C284     1.0000 0.76260  0.53310  0.60048  Biso   1.000  C
  H180     1.0000 0.76170  0.55640  0.58780  Biso   1.000  H
  C285     1.0000 0.77400  0.52840  0.51870  Biso   1.000  C
  H181     1.0000 0.78410  0.54940  0.53150  Biso   1.000  H
  C286     1.0000 0.73900  0.52580  0.52070  Biso   1.000  C
  H182     1.0000 0.72440  0.54320  0.53440  Biso   1.000  H
  O53      1.0000 0.75210  0.32913  0.24855  Biso   1.000  O
  O54      1.0000 0.78780  0.30468  0.29317  Biso   1.000  O
  C287     1.0000 0.76978  0.33064  0.27883  Biso   1.000  C
  C288     1.0000 0.76878  0.36646  0.29909  Biso   1.000  C
  C289     1.0000 0.75420  0.39837  0.28343  Biso   1.000  C
  H183     1.0000 0.74460  0.39770  0.25870  Biso   1.000  H
  C290     1.0000 0.78340  0.36815  0.33524  Biso   1.000  C
  H184     1.0000 0.79430  0.34660  0.34620  Biso   1.000  H
  C291     1.0000 0.75320  0.43127  0.30326  Biso   1.000  C
  H185     1.0000 0.74330  0.45320  0.29200  Biso   1.000  H
  C292     1.0000 0.76650  0.43274  0.33936  Biso   1.000  C
  C293     1.0000 0.76480  0.46774  0.36124  Biso   1.000  C
  C294     1.0000 0.78200  0.40054  0.35470  Biso   1.000  C
  H186     1.0000 0.79190  0.40130  0.37930  Biso   1.000  H
  C295     1.0000 0.76260  0.46690  0.39952  Biso   1.000  C
  H187     1.0000 0.76170  0.44360  0.41220  Biso   1.000  H
  C296     1.0000 0.77400  0.47160  0.48130  Biso   1.000  C
  H188     1.0000 0.78410  0.45060  0.46850  Biso   1.000  H
  C297     1.0000 0.73900  0.47420  0.47930  Biso   1.000  C
  H189     1.0000 0.72440  0.45680  0.46560  Biso   1.000  H
  O55      1.0000 0.24790  0.67087  0.24855  Biso   1.000  O
  O56      1.0000 0.21220  0.69532  0.29317  Biso   1.000  O
  C298     1.0000 0.23022  0.66936  0.27883  Biso   1.000  C
  C299     1.0000 0.23122  0.63354  0.29909  Biso   1.000  C
  C300     1.0000 0.24580  0.60163  0.28343  Biso   1.000  C
  H190     1.0000 0.25540  0.60230  0.25870  Biso   1.000  H
  C301     1.0000 0.21660  0.63185  0.33524  Biso   1.000  C
  H191     1.0000 0.20570  0.65340  0.34620  Biso   1.000  H
  C302     1.0000 0.24680  0.56873  0.30326  Biso   1.000  C
  H192     1.0000 0.25670  0.54680  0.29200  Biso   1.000  H
  C303     1.0000 0.23350  0.56726  0.33936  Biso   1.000  C
  C304     1.0000 0.23520  0.53226  0.36124  Biso   1.000  C
  C305     1.0000 0.21800  0.59946  0.35470  Biso   1.000  C
  H193     1.0000 0.20810  0.59870  0.37930  Biso   1.000  H
  C306     1.0000 0.23740  0.53310  0.39952  Biso   1.000  C
  H194     1.0000 0.23830  0.55640  0.41220  Biso   1.000  H
  C307     1.0000 0.22600  0.52840  0.48130  Biso   1.000  C
  H195     1.0000 0.21590  0.54940  0.46850  Biso   1.000  H
  C308     1.0000 0.26100  0.52580  0.47930  Biso   1.000  C
  H196     1.0000 0.27560  0.54320  0.46560  Biso   1.000  H
  O57      1.0000 0.75145  0.24790  0.32913  Biso   1.000  O
  O58      1.0000 0.70683  0.21220  0.30468  Biso   1.000  O
  C309     1.0000 0.72117  0.23022  0.33064  Biso   1.000  C
  C310     1.0000 0.70091  0.23122  0.36646  Biso   1.000  C
  C311     1.0000 0.71657  0.24580  0.39837  Biso   1.000  C
  H197     1.0000 0.74130  0.25540  0.39770  Biso   1.000  H
  C312     1.0000 0.66476  0.21660  0.36815  Biso   1.000  C
  H198     1.0000 0.65380  0.20570  0.34660  Biso   1.000  H
  C313     1.0000 0.69674  0.24680  0.43127  Biso   1.000  C
  H199     1.0000 0.70800  0.25670  0.45320  Biso   1.000  H
  C314     1.0000 0.66064  0.23350  0.43274  Biso   1.000  C
  C315     1.0000 0.63876  0.23520  0.46774  Biso   1.000  C
  C316     1.0000 0.64530  0.21800  0.40054  Biso   1.000  C
  H200     1.0000 0.62070  0.20810  0.40130  Biso   1.000  H
  C317     1.0000 0.60048  0.23740  0.46690  Biso   1.000  C
  H201     1.0000 0.58780  0.23830  0.44360  Biso   1.000  H
  C318     1.0000 0.51870  0.22600  0.47160  Biso   1.000  C
  H202     1.0000 0.53150  0.21590  0.45060  Biso   1.000  H
  C319     1.0000 0.52070  0.26100  0.47420  Biso   1.000  C
  H203     1.0000 0.53440  0.27560  0.45680  Biso   1.000  H
  O59      1.0000 0.75145  0.75210  0.67087  Biso   1.000  O
  O60      1.0000 0.70683  0.78780  0.69532  Biso   1.000  O
  C320     1.0000 0.72117  0.76978  0.66936  Biso   1.000  C
  C321     1.0000 0.70091  0.76878  0.63354  Biso   1.000  C
  C322     1.0000 0.71657  0.75420  0.60163  Biso   1.000  C
  H204     1.0000 0.74130  0.74460  0.60230  Biso   1.000  H
  C323     1.0000 0.66476  0.78340  0.63185  Biso   1.000  C
  H205     1.0000 0.65380  0.79430  0.65340  Biso   1.000  H
  C324     1.0000 0.69674  0.75320  0.56873  Biso   1.000  C
  H206     1.0000 0.70800  0.74330  0.54680  Biso   1.000  H
  C325     1.0000 0.66064  0.76650  0.56726  Biso   1.000  C
  C326     1.0000 0.63876  0.76480  0.53226  Biso   1.000  C
  C327     1.0000 0.64530  0.78200  0.59946  Biso   1.000  C
  H207     1.0000 0.62070  0.79190  0.59870  Biso   1.000  H
  C328     1.0000 0.60048  0.76260  0.53310  Biso   1.000  C
  H208     1.0000 0.58780  0.76170  0.55640  Biso   1.000  H
  C329     1.0000 0.51870  0.77400  0.52840  Biso   1.000  C
  H209     1.0000 0.53150  0.78410  0.54940  Biso   1.000  H
  C330     1.0000 0.52070  0.73900  0.52580  Biso   1.000  C
  H210     1.0000 0.53440  0.72440  0.54320  Biso   1.000  H
  O61      1.0000 0.24855  0.75210  0.32913  Biso   1.000  O
  O62      1.0000 0.29317  0.78780  0.30468  Biso   1.000  O
  C331     1.0000 0.27883  0.76978  0.33064  Biso   1.000  C
  C332     1.0000 0.29909  0.76878  0.36646  Biso   1.000  C
  C333     1.0000 0.28343  0.75420  0.39837  Biso   1.000  C
  H211     1.0000 0.25870  0.74460  0.39770  Biso   1.000  H
  C334     1.0000 0.33524  0.78340  0.36815  Biso   1.000  C
  H212     1.0000 0.34620  0.79430  0.34660  Biso   1.000  H
  C335     1.0000 0.30326  0.75320  0.43127  Biso   1.000  C
  H213     1.0000 0.29200  0.74330  0.45320  Biso   1.000  H
  C336     1.0000 0.33936  0.76650  0.43274  Biso   1.000  C
  C337     1.0000 0.36124  0.76480  0.46774  Biso   1.000  C
  C338     1.0000 0.35470  0.78200  0.40054  Biso   1.000  C
  H214     1.0000 0.37930  0.79190  0.40130  Biso   1.000  H
  C339     1.0000 0.39952  0.76260  0.46690  Biso   1.000  C
  H215     1.0000 0.41220  0.76170  0.44360  Biso   1.000  H
  C340     1.0000 0.48130  0.77400  0.47160  Biso   1.000  C
  H216     1.0000 0.46850  0.78410  0.45060  Biso   1.000  H
  C341     1.0000 0.47930  0.73900  0.47420  Biso   1.000  C
  H217     1.0000 0.46560  0.72440  0.45680  Biso   1.000  H
  O63      1.0000 0.24855  0.24790  0.67087  Biso   1.000  O
  O64      1.0000 0.29317  0.21220  0.69532  Biso   1.000  O
  C342     1.0000 0.27883  0.23022  0.66936  Biso   1.000  C
  C343     1.0000 0.29909  0.23122  0.63354  Biso   1.000  C
  C344     1.0000 0.28343  0.24580  0.60163  Biso   1.000  C
  H218     1.0000 0.25870  0.25540  0.60230  Biso   1.000  H
  C345     1.0000 0.33524  0.21660  0.63185  Biso   1.000  C
  H219     1.0000 0.34620  0.20570  0.65340  Biso   1.000  H
  C346     1.0000 0.30326  0.24680  0.56873  Biso   1.000  C
  H220     1.0000 0.29200  0.25670  0.54680  Biso   1.000  H
  C347     1.0000 0.33936  0.23350  0.56726  Biso   1.000  C
  C348     1.0000 0.36124  0.23520  0.53226  Biso   1.000  C
  C349     1.0000 0.35470  0.21800  0.59946  Biso   1.000  C
  H221     1.0000 0.37930  0.20810  0.59870  Biso   1.000  H
  C350     1.0000 0.39952  0.23740  0.53310  Biso   1.000  C
  H222     1.0000 0.41220  0.23830  0.55640  Biso   1.000  H
  C351     1.0000 0.48130  0.22600  0.52840  Biso   1.000  C
  H223     1.0000 0.46850  0.21590  0.54940  Biso   1.000  H
  C352     1.0000 0.47930  0.26100  0.52580  Biso   1.000  C
  H224     1.0000 0.46560  0.27560  0.54320  Biso   1.000  H
  O65      1.0000 0.32913  0.75145  0.24790  Biso   1.000  O
  O66      1.0000 0.30468  0.70683  0.21220  Biso   1.000  O
  C353     1.0000 0.33064  0.72117  0.23022  Biso   1.000  C
  C354     1.0000 0.36646  0.70091  0.23122  Biso   1.000  C
  C355     1.0000 0.39837  0.71657  0.24580  Biso   1.000  C
  H225     1.0000 0.39770  0.74130  0.25540  Biso   1.000  H
  C356     1.0000 0.36815  0.66476  0.21660  Biso   1.000  C
  H226     1.0000 0.34660  0.65380  0.20570  Biso   1.000  H
  C357     1.0000 0.43127  0.69674  0.24680  Biso   1.000  C
  H227     1.0000 0.45320  0.70800  0.25670  Biso   1.000  H
  C358     1.0000 0.43274  0.66064  0.23350  Biso   1.000  C
  C359     1.0000 0.46774  0.63876  0.23520  Biso   1.000  C
  C360     1.0000 0.40054  0.64530  0.21800  Biso   1.000  C
  H228     1.0000 0.40130  0.62070  0.20810  Biso   1.000  H
  C361     1.0000 0.46690  0.60048  0.23740  Biso   1.000  C
  H229     1.0000 0.44360  0.58780  0.23830  Biso   1.000  H
  C362     1.0000 0.47160  0.51870  0.22600  Biso   1.000  C
  H230     1.0000 0.45060  0.53150  0.21590  Biso   1.000  H
  C363     1.0000 0.47420  0.52070  0.26100  Biso   1.000  C
  H231     1.0000 0.45680  0.53440  0.27560  Biso   1.000  H
  O67      1.0000 0.67087  0.75145  0.75210  Biso   1.000  O
  O68      1.0000 0.69532  0.70683  0.78780  Biso   1.000  O
  C364     1.0000 0.66936  0.72117  0.76978  Biso   1.000  C
  C365     1.0000 0.63354  0.70091  0.76878  Biso   1.000  C
  C366     1.0000 0.60163  0.71657  0.75420  Biso   1.000  C
  H232     1.0000 0.60230  0.74130  0.74460  Biso   1.000  H
  C367     1.0000 0.63185  0.66476  0.78340  Biso   1.000  C
  H233     1.0000 0.65340  0.65380  0.79430  Biso   1.000  H
  C368     1.0000 0.56873  0.69674  0.75320  Biso   1.000  C
  H234     1.0000 0.54680  0.70800  0.74330  Biso   1.000  H
  C369     1.0000 0.56726  0.66064  0.76650  Biso   1.000  C
  C370     1.0000 0.53226  0.63876  0.76480  Biso   1.000  C
  C371     1.0000 0.59946  0.64530  0.78200  Biso   1.000  C
  H235     1.0000 0.59870  0.62070  0.79190  Biso   1.000  H
  C372     1.0000 0.53310  0.60048  0.76260  Biso   1.000  C
  H236     1.0000 0.55640  0.58780  0.76170  Biso   1.000  H
  C373     1.0000 0.52840  0.51870  0.77400  Biso   1.000  C
  H237     1.0000 0.54940  0.53150  0.78410  Biso   1.000  H
  C374     1.0000 0.52580  0.52070  0.73900  Biso   1.000  C
  H238     1.0000 0.54320  0.53440  0.72440  Biso   1.000  H
  O69      1.0000 0.32913  0.24855  0.75210  Biso   1.000  O
  O70      1.0000 0.30468  0.29317  0.78780  Biso   1.000  O
  C375     1.0000 0.33064  0.27883  0.76978  Biso   1.000  C
  C376     1.0000 0.36646  0.29909  0.76878  Biso   1.000  C
  C377     1.0000 0.39837  0.28343  0.75420  Biso   1.000  C
  H239     1.0000 0.39770  0.25870  0.74460  Biso   1.000  H
  C378     1.0000 0.36815  0.33524  0.78340  Biso   1.000  C
  H240     1.0000 0.34660  0.34620  0.79430  Biso   1.000  H
  C379     1.0000 0.43127  0.30326  0.75320  Biso   1.000  C
  H241     1.0000 0.45320  0.29200  0.74330  Biso   1.000  H
  C380     1.0000 0.43274  0.33936  0.76650  Biso   1.000  C
  C381     1.0000 0.46774  0.36124  0.76480  Biso   1.000  C
  C382     1.0000 0.40054  0.35470  0.78200  Biso   1.000  C
  H242     1.0000 0.40130  0.37930  0.79190  Biso   1.000  H
  C383     1.0000 0.46690  0.39952  0.76260  Biso   1.000  C
  H243     1.0000 0.44360  0.41220  0.76170  Biso   1.000  H
  C384     1.0000 0.47160  0.48130  0.77400  Biso   1.000  C
  H244     1.0000 0.45060  0.46850  0.78410  Biso   1.000  H
  C385     1.0000 0.47420  0.47930  0.73900  Biso   1.000  C
  H245     1.0000 0.45680  0.46560  0.72440  Biso   1.000  H
  O71      1.0000 0.67087  0.24855  0.24790  Biso   1.000  O
  O72      1.0000 0.69532  0.29317  0.21220  Biso   1.000  O
  C386     1.0000 0.66936  0.27883  0.23022  Biso   1.000  C
  C387     1.0000 0.63354  0.29909  0.23122  Biso   1.000  C
  C388     1.0000 0.60163  0.28343  0.24580  Biso   1.000  C
  H246     1.0000 0.60230  0.25870  0.25540  Biso   1.000  H
  C389     1.0000 0.63185  0.33524  0.21660  Biso   1.000  C
  H247     1.0000 0.65340  0.34620  0.20570  Biso   1.000  H
  C390     1.0000 0.56873  0.30326  0.24680  Biso   1.000  C
  H248     1.0000 0.54680  0.29200  0.25670  Biso   1.000  H
  C391     1.0000 0.56726  0.33936  0.23350  Biso   1.000  C
  C392     1.0000 0.53226  0.36124  0.23520  Biso   1.000  C
  C393     1.0000 0.59946  0.35470  0.21800  Biso   1.000  C
  H249     1.0000 0.59870  0.37930  0.20810  Biso   1.000  H
  C394     1.0000 0.53310  0.39952  0.23740  Biso   1.000  C
  H250     1.0000 0.55640  0.41220  0.23830  Biso   1.000  H
  C395     1.0000 0.52840  0.48130  0.22600  Biso   1.000  C
  H251     1.0000 0.54940  0.46850  0.21590  Biso   1.000  H
  C396     1.0000 0.52580  0.47930  0.26100  Biso   1.000  C
  H252     1.0000 0.54320  0.46560  0.27560  Biso   1.000  H
  O73      1.0000 0.82913  0.74790  0.74855  Biso   1.000  O
  O74      1.0000 0.80468  0.71220  0.79317  Biso   1.000  O
  C397     1.0000 0.83064  0.73022  0.77883  Biso   1.000  C
  C398     1.0000 0.86646  0.73122  0.79909  Biso   1.000  C
  C399     1.0000 0.89837  0.74580  0.78343  Biso   1.000  C
  H253     1.0000 0.89770  0.75540  0.75870  Biso   1.000  H
  C400     1.0000 0.86815  0.71660  0.83524  Biso   1.000  C
  H254     1.0000 0.84660  0.70570  0.84620  Biso   1.000  H
  C401     1.0000 0.93127  0.74680  0.80326  Biso   1.000  C
  H255     1.0000 0.95320  0.75670  0.79200  Biso   1.000  H
  C402     1.0000 0.93274  0.73350  0.83936  Biso   1.000  C
  C403     1.0000 0.96774  0.73520  0.86124  Biso   1.000  C
  C404     1.0000 0.90054  0.71800  0.85470  Biso   1.000  C
  H256     1.0000 0.90130  0.70810  0.87930  Biso   1.000  H
  C405     1.0000 0.96690  0.73740  0.89952  Biso   1.000  C
  H257     1.0000 0.94360  0.73830  0.91220  Biso   1.000  H
  C406     1.0000 0.97160  0.72600  0.98130  Biso   1.000  C
  H258     1.0000 0.95060  0.71590  0.96850  Biso   1.000  H
  C407     1.0000 0.97420  0.76100  0.97930  Biso   1.000  C
  H259     1.0000 0.95680  0.77560  0.96560  Biso   1.000  H
  O75      1.0000 0.17087  0.25210  0.74855  Biso   1.000  O
  O76      1.0000 0.19532  0.28780  0.79317  Biso   1.000  O
  C408     1.0000 0.16936  0.26978  0.77883  Biso   1.000  C
  C409     1.0000 0.13354  0.26878  0.79909  Biso   1.000  C
  C410     1.0000 0.10163  0.25420  0.78343  Biso   1.000  C
  H260     1.0000 0.10230  0.24460  0.75870  Biso   1.000  H
  C411     1.0000 0.13185  0.28340  0.83524  Biso   1.000  C
  H261     1.0000 0.15340  0.29430  0.84620  Biso   1.000  H
  C412     1.0000 0.06873  0.25320  0.80326  Biso   1.000  C
  H262     1.0000 0.04680  0.24330  0.79200  Biso   1.000  H
  C413     1.0000 0.06726  0.26650  0.83936  Biso   1.000  C
  C414     1.0000 0.03226  0.26480  0.86124  Biso   1.000  C
  C415     1.0000 0.09946  0.28200  0.85470  Biso   1.000  C
  H263     1.0000 0.09870  0.29190  0.87930  Biso   1.000  H
  C416     1.0000 0.03310  0.26260  0.89952  Biso   1.000  C
  H264     1.0000 0.05640  0.26170  0.91220  Biso   1.000  H
  C417     1.0000 0.02840  0.27400  0.98130  Biso   1.000  C
  H265     1.0000 0.04940  0.28410  0.96850  Biso   1.000  H
  C418     1.0000 0.02580  0.23900  0.97930  Biso   1.000  C
  H266     1.0000 0.04320  0.22440  0.96560  Biso   1.000  H
  O77      1.0000 0.82913  0.25210  0.25145  Biso   1.000  O
  O78      1.0000 0.80468  0.28780  0.20683  Biso   1.000  O
  C419     1.0000 0.83064  0.26978  0.22117  Biso   1.000  C
  C420     1.0000 0.86646  0.26878  0.20091  Biso   1.000  C
  C421     1.0000 0.89837  0.25420  0.21657  Biso   1.000  C
  H267     1.0000 0.89770  0.24460  0.24130  Biso   1.000  H
  C422     1.0000 0.86815  0.28340  0.16476  Biso   1.000  C
  H268     1.0000 0.84660  0.29430  0.15380  Biso   1.000  H
  C423     1.0000 0.93127  0.25320  0.19674  Biso   1.000  C
  H269     1.0000 0.95320  0.24330  0.20800  Biso   1.000  H
  C424     1.0000 0.93274  0.26650  0.16064  Biso   1.000  C
  C425     1.0000 0.96774  0.26480  0.13876  Biso   1.000  C
  C426     1.0000 0.90054  0.28200  0.14530  Biso   1.000  C
  H270     1.0000 0.90130  0.29190  0.12070  Biso   1.000  H
  C427     1.0000 0.96690  0.26260  0.10048  Biso   1.000  C
  H271     1.0000 0.94360  0.26170  0.08780  Biso   1.000  H
  C428     1.0000 0.97160  0.27400  0.01870  Biso   1.000  C
  H272     1.0000 0.95060  0.28410  0.03150  Biso   1.000  H
  C429     1.0000 0.97420  0.23900  0.02070  Biso   1.000  C
  H273     1.0000 0.95680  0.22440  0.03440  Biso   1.000  H
  O79      1.0000 0.17087  0.74790  0.25145  Biso   1.000  O
  O80      1.0000 0.19532  0.71220  0.20683  Biso   1.000  O
  C430     1.0000 0.16936  0.73022  0.22117  Biso   1.000  C
  C431     1.0000 0.13354  0.73122  0.20091  Biso   1.000  C
  C432     1.0000 0.10163  0.74580  0.21657  Biso   1.000  C
  H274     1.0000 0.10230  0.75540  0.24130  Biso   1.000  H
  C433     1.0000 0.13185  0.71660  0.16476  Biso   1.000  C
  H275     1.0000 0.15340  0.70570  0.15380  Biso   1.000  H
  C434     1.0000 0.06873  0.74680  0.19674  Biso   1.000  C
  H276     1.0000 0.04680  0.75670  0.20800  Biso   1.000  H
  C435     1.0000 0.06726  0.73350  0.16064  Biso   1.000  C
  C436     1.0000 0.03226  0.73520  0.13876  Biso   1.000  C
  C437     1.0000 0.09946  0.71800  0.14530  Biso   1.000  C
  H277     1.0000 0.09870  0.70810  0.12070  Biso   1.000  H
  C438     1.0000 0.03310  0.73740  0.10048  Biso   1.000  C
  H278     1.0000 0.05640  0.73830  0.08780  Biso   1.000  H
  C439     1.0000 0.02840  0.72600  0.01870  Biso   1.000  C
  H279     1.0000 0.04940  0.71590  0.03150  Biso   1.000  H
  C440     1.0000 0.02580  0.76100  0.02070  Biso   1.000  C
  H280     1.0000 0.04320  0.77560  0.03440  Biso   1.000  H
  O81      1.0000 0.74790  0.25145  0.17087  Biso   1.000  O
  O82      1.0000 0.71220  0.20683  0.19532  Biso   1.000  O
  C441     1.0000 0.73022  0.22117  0.16936  Biso   1.000  C
  C442     1.0000 0.73122  0.20091  0.13354  Biso   1.000  C
  C443     1.0000 0.74580  0.21657  0.10163  Biso   1.000  C
  H281     1.0000 0.75540  0.24130  0.10230  Biso   1.000  H
  C444     1.0000 0.71660  0.16476  0.13185  Biso   1.000  C
  H282     1.0000 0.70570  0.15380  0.15340  Biso   1.000  H
  C445     1.0000 0.74680  0.19674  0.06873  Biso   1.000  C
  H283     1.0000 0.75670  0.20800  0.04680  Biso   1.000  H
  C446     1.0000 0.73350  0.16064  0.06726  Biso   1.000  C
  C447     1.0000 0.73520  0.13876  0.03226  Biso   1.000  C
  C448     1.0000 0.71800  0.14530  0.09946  Biso   1.000  C
  H284     1.0000 0.70810  0.12070  0.09870  Biso   1.000  H
  C449     1.0000 0.73740  0.10048  0.03310  Biso   1.000  C
  H285     1.0000 0.73830  0.08780  0.05640  Biso   1.000  H
  C450     1.0000 0.72600  0.01870  0.02840  Biso   1.000  C
  H286     1.0000 0.71590  0.03150  0.04940  Biso   1.000  H
  C451     1.0000 0.76100  0.02070  0.02580  Biso   1.000  C
  H287     1.0000 0.77560  0.03440  0.04320  Biso   1.000  H
  O83      1.0000 0.25210  0.25145  0.82913  Biso   1.000  O
  O84      1.0000 0.28780  0.20683  0.80468  Biso   1.000  O
  C452     1.0000 0.26978  0.22117  0.83064  Biso   1.000  C
  C453     1.0000 0.26878  0.20091  0.86646  Biso   1.000  C
  C454     1.0000 0.25420  0.21657  0.89837  Biso   1.000  C
  H288     1.0000 0.24460  0.24130  0.89770  Biso   1.000  H
  C455     1.0000 0.28340  0.16476  0.86815  Biso   1.000  C
  H289     1.0000 0.29430  0.15380  0.84660  Biso   1.000  H
  C456     1.0000 0.25320  0.19674  0.93127  Biso   1.000  C
  H290     1.0000 0.24330  0.20800  0.95320  Biso   1.000  H
  C457     1.0000 0.26650  0.16064  0.93274  Biso   1.000  C
  C458     1.0000 0.26480  0.13876  0.96774  Biso   1.000  C
  C459     1.0000 0.28200  0.14530  0.90054  Biso   1.000  C
  H291     1.0000 0.29190  0.12070  0.90130  Biso   1.000  H
  C460     1.0000 0.26260  0.10048  0.96690  Biso   1.000  C
  H292     1.0000 0.26170  0.08780  0.94360  Biso   1.000  H
  C461     1.0000 0.27400  0.01870  0.97160  Biso   1.000  C
  H293     1.0000 0.28410  0.03150  0.95060  Biso   1.000  H
  C462     1.0000 0.23900  0.02070  0.97420  Biso   1.000  C
  H294     1.0000 0.22440  0.03440  0.95680  Biso   1.000  H
  O85      1.0000 0.25210  0.74855  0.17087  Biso   1.000  O
  O86      1.0000 0.28780  0.79317  0.19532  Biso   1.000  O
  C463     1.0000 0.26978  0.77883  0.16936  Biso   1.000  C
  C464     1.0000 0.26878  0.79909  0.13354  Biso   1.000  C
  C465     1.0000 0.25420  0.78343  0.10163  Biso   1.000  C
  H295     1.0000 0.24460  0.75870  0.10230  Biso   1.000  H
  C466     1.0000 0.28340  0.83524  0.13185  Biso   1.000  C
  H296     1.0000 0.29430  0.84620  0.15340  Biso   1.000  H
  C467     1.0000 0.25320  0.80326  0.06873  Biso   1.000  C
  H297     1.0000 0.24330  0.79200  0.04680  Biso   1.000  H
  C468     1.0000 0.26650  0.83936  0.06726  Biso   1.000  C
  C469     1.0000 0.26480  0.86124  0.03226  Biso   1.000  C
  C470     1.0000 0.28200  0.85470  0.09946  Biso   1.000  C
  H298     1.0000 0.29190  0.87930  0.09870  Biso   1.000  H
  C471     1.0000 0.26260  0.89952  0.03310  Biso   1.000  C
  H299     1.0000 0.26170  0.91220  0.05640  Biso   1.000  H
  C472     1.0000 0.27400  0.98130  0.02840  Biso   1.000  C
  H300     1.0000 0.28410  0.96850  0.04940  Biso   1.000  H
  C473     1.0000 0.23900  0.97930  0.02580  Biso   1.000  C
  H301     1.0000 0.22440  0.96560  0.04320  Biso   1.000  H
  O87      1.0000 0.74790  0.74855  0.82913  Biso   1.000  O
  O88      1.0000 0.71220  0.79317  0.80468  Biso   1.000  O
  C474     1.0000 0.73022  0.77883  0.83064  Biso   1.000  C
  C475     1.0000 0.73122  0.79909  0.86646  Biso   1.000  C
  C476     1.0000 0.74580  0.78343  0.89837  Biso   1.000  C
  H302     1.0000 0.75540  0.75870  0.89770  Biso   1.000  H
  C477     1.0000 0.71660  0.83524  0.86815  Biso   1.000  C
  H303     1.0000 0.70570  0.84620  0.84660  Biso   1.000  H
  C478     1.0000 0.74680  0.80326  0.93127  Biso   1.000  C
  H304     1.0000 0.75670  0.79200  0.95320  Biso   1.000  H
  C479     1.0000 0.73350  0.83936  0.93274  Biso   1.000  C
  C480     1.0000 0.73520  0.86124  0.96774  Biso   1.000  C
  C481     1.0000 0.71800  0.85470  0.90054  Biso   1.000  C
  H305     1.0000 0.70810  0.87930  0.90130  Biso   1.000  H
  C482     1.0000 0.73740  0.89952  0.96690  Biso   1.000  C
  H306     1.0000 0.73830  0.91220  0.94360  Biso   1.000  H
  C483     1.0000 0.72600  0.98130  0.97160  Biso   1.000  C
  H307     1.0000 0.71590  0.96850  0.95060  Biso   1.000  H
  C484     1.0000 0.76100  0.97930  0.97420  Biso   1.000  C
  H308     1.0000 0.77560  0.96560  0.95680  Biso   1.000  H
  O89      1.0000 0.25145  0.82913  0.25210  Biso   1.000  O
  O90      1.0000 0.20683  0.80468  0.28780  Biso   1.000  O
  C485     1.0000 0.22117  0.83064  0.26978  Biso   1.000  C
  C486     1.0000 0.20091  0.86646  0.26878  Biso   1.000  C
  C487     1.0000 0.21657  0.89837  0.25420  Biso   1.000  C
  H309     1.0000 0.24130  0.89770  0.24460  Biso   1.000  H
  C488     1.0000 0.16476  0.86815  0.28340  Biso   1.000  C
  H310     1.0000 0.15380  0.84660  0.29430  Biso   1.000  H
  C489     1.0000 0.19674  0.93127  0.25320  Biso   1.000  C
  H311     1.0000 0.20800  0.95320  0.24330  Biso   1.000  H
  C490     1.0000 0.16064  0.93274  0.26650  Biso   1.000  C
  C491     1.0000 0.13876  0.96774  0.26480  Biso   1.000  C
  C492     1.0000 0.14530  0.90054  0.28200  Biso   1.000  C
  H312     1.0000 0.12070  0.90130  0.29190  Biso   1.000  H
  C493     1.0000 0.10048  0.96690  0.26260  Biso   1.000  C
  H313     1.0000 0.08780  0.94360  0.26170  Biso   1.000  H
  C494     1.0000 0.01870  0.97160  0.27400  Biso   1.000  C
  H314     1.0000 0.03150  0.95060  0.28410  Biso   1.000  H
  C495     1.0000 0.02070  0.97420  0.23900  Biso   1.000  C
  H315     1.0000 0.03440  0.95680  0.22440  Biso   1.000  H
  O91      1.0000 0.25145  0.17087  0.74790  Biso   1.000  O
  O92      1.0000 0.20683  0.19532  0.71220  Biso   1.000  O
  C496     1.0000 0.22117  0.16936  0.73022  Biso   1.000  C
  C497     1.0000 0.20091  0.13354  0.73122  Biso   1.000  C
  C498     1.0000 0.21657  0.10163  0.74580  Biso   1.000  C
  H316     1.0000 0.24130  0.10230  0.75540  Biso   1.000  H
  C499     1.0000 0.16476  0.13185  0.71660  Biso   1.000  C
  H317     1.0000 0.15380  0.15340  0.70570  Biso   1.000  H
  C500     1.0000 0.19674  0.06873  0.74680  Biso   1.000  C
  H318     1.0000 0.20800  0.04680  0.75670  Biso   1.000  H
  C501     1.0000 0.16064  0.06726  0.73350  Biso   1.000  C
  C502     1.0000 0.13876  0.03226  0.73520  Biso   1.000  C
  C503     1.0000 0.14530  0.09946  0.71800  Biso   1.000  C
  H319     1.0000 0.12070  0.09870  0.70810  Biso   1.000  H
  C504     1.0000 0.10048  0.03310  0.73740  Biso   1.000  C
  H320     1.0000 0.08780  0.05640  0.73830  Biso   1.000  H
  C505     1.0000 0.01870  0.02840  0.72600  Biso   1.000  C
  H321     1.0000 0.03150  0.04940  0.71590  Biso   1.000  H
  C506     1.0000 0.02070  0.02580  0.76100  Biso   1.000  C
  H322     1.0000 0.03440  0.04320  0.77560  Biso   1.000  H
  O93      1.0000 0.74855  0.82913  0.74790  Biso   1.000  O
  O94      1.0000 0.79317  0.80468  0.71220  Biso   1.000  O
  C507     1.0000 0.77883  0.83064  0.73022  Biso   1.000  C
  C508     1.0000 0.79909  0.86646  0.73122  Biso   1.000  C
  C509     1.0000 0.78343  0.89837  0.74580  Biso   1.000  C
  H323     1.0000 0.75870  0.89770  0.75540  Biso   1.000  H
  C510     1.0000 0.83524  0.86815  0.71660  Biso   1.000  C
  H324     1.0000 0.84620  0.84660  0.70570  Biso   1.000  H
  C511     1.0000 0.80326  0.93127  0.74680  Biso   1.000  C
  H325     1.0000 0.79200  0.95320  0.75670  Biso   1.000  H
  C512     1.0000 0.83936  0.93274  0.73350  Biso   1.000  C
  C513     1.0000 0.86124  0.96774  0.73520  Biso   1.000  C
  C514     1.0000 0.85470  0.90054  0.71800  Biso   1.000  C
  H326     1.0000 0.87930  0.90130  0.70810  Biso   1.000  H
  C515     1.0000 0.89952  0.96690  0.73740  Biso   1.000  C
  H327     1.0000 0.91220  0.94360  0.73830  Biso   1.000  H
  C516     1.0000 0.98130  0.97160  0.72600  Biso   1.000  C
  H328     1.0000 0.96850  0.95060  0.71590  Biso   1.000  H
  C517     1.0000 0.97930  0.97420  0.76100  Biso   1.000  C
  H329     1.0000 0.96560  0.95680  0.77560  Biso   1.000  H
  O95      1.0000 0.74855  0.17087  0.25210  Biso   1.000  O
  O96      1.0000 0.79317  0.19532  0.28780  Biso   1.000  O
  C518     1.0000 0.77883  0.16936  0.26978  Biso   1.000  C
  C519     1.0000 0.79909  0.13354  0.26878  Biso   1.000  C
  C520     1.0000 0.78343  0.10163  0.25420  Biso   1.000  C
  H330     1.0000 0.75870  0.10230  0.24460  Biso   1.000  H
  C521     1.0000 0.83524  0.13185  0.28340  Biso   1.000  C
  H331     1.0000 0.84620  0.15340  0.29430  Biso   1.000  H
  C522     1.0000 0.80326  0.06873  0.25320  Biso   1.000  C
  H332     1.0000 0.79200  0.04680  0.24330  Biso   1.000  H
  C523     1.0000 0.83936  0.06726  0.26650  Biso   1.000  C
  C524     1.0000 0.86124  0.03226  0.26480  Biso   1.000  C
  C525     1.0000 0.85470  0.09946  0.28200  Biso   1.000  C
  H333     1.0000 0.87930  0.09870  0.29190  Biso   1.000  H
  C526     1.0000 0.89952  0.03310  0.26260  Biso   1.000  C
  H334     1.0000 0.91220  0.05640  0.26170  Biso   1.000  H
  C527     1.0000 0.98130  0.02840  0.27400  Biso   1.000  C
  H335     1.0000 0.96850  0.04940  0.28410  Biso   1.000  H
  C528     1.0000 0.97930  0.02580  0.23900  Biso   1.000  C
  H336     1.0000 0.96560  0.04320  0.22440  Biso   1.000  H
  Cr1      1.0000 0.75000  0.71250  0.21250  Biso   1.000  Cr
  Cr2      1.0000 0.25000  0.28750  0.21250  Biso   1.000  Cr
  Cr3      1.0000 0.25000  0.71250  0.78750  Biso   1.000  Cr
  Cr4      1.0000 0.75000  0.28750  0.78750  Biso   1.000  Cr
  Cr5      1.0000 0.21250  0.75000  0.71250  Biso   1.000  Cr
  Cr6      1.0000 0.21250  0.25000  0.28750  Biso   1.000  Cr
  Cr7      1.0000 0.78750  0.25000  0.71250  Biso   1.000  Cr
  Cr8      1.0000 0.78750  0.75000  0.28750  Biso   1.000  Cr
  Cr9      1.0000 0.71250  0.21250  0.75000  Biso   1.000  Cr
  Cr10     1.0000 0.28750  0.21250  0.25000  Biso   1.000  Cr
  Cr11     1.0000 0.71250  0.78750  0.25000  Biso   1.000  Cr
  Cr12     1.0000 0.28750  0.78750  0.75000  Biso   1.000  Cr
  Cr13     1.0000 0.25000  0.28750  0.78750  Biso   1.000  Cr
  Cr14     1.0000 0.75000  0.71250  0.78750  Biso   1.000  Cr
  Cr15     1.0000 0.75000  0.28750  0.21250  Biso   1.000  Cr
  Cr16     1.0000 0.25000  0.71250  0.21250  Biso   1.000  Cr
  Cr17     1.0000 0.78750  0.25000  0.28750  Biso   1.000  Cr
  Cr18     1.0000 0.78750  0.75000  0.71250  Biso   1.000  Cr
  Cr19     1.0000 0.21250  0.75000  0.28750  Biso   1.000  Cr
  Cr20     1.0000 0.21250  0.25000  0.71250  Biso   1.000  Cr
  Cr21     1.0000 0.28750  0.78750  0.25000  Biso   1.000  Cr
  Cr22     1.0000 0.71250  0.78750  0.75000  Biso   1.000  Cr
  Cr23     1.0000 0.28750  0.21250  0.75000  Biso   1.000  Cr
  Cr24     1.0000 0.71250  0.21250  0.25000  Biso   1.000  Cr
  O97      1.0000 0.75000  0.75000  0.25000  Biso   1.000  O
  O98      1.0000 0.25000  0.25000  0.25000  Biso   1.000  O
  O99      1.0000 0.25000  0.75000  0.75000  Biso   1.000  O
  O100     1.0000 0.75000  0.25000  0.75000  Biso   1.000  O
  O101     1.0000 0.25000  0.25000  0.75000  Biso   1.000  O
  O102     1.0000 0.75000  0.75000  0.75000  Biso   1.000  O
  O103     1.0000 0.75000  0.25000  0.25000  Biso   1.000  O
  O104     1.0000 0.25000  0.75000  0.25000  Biso   1.000  O
  N1       1.0000 0.76520  0.50000  0.34202  Biso   1.000  N
  C529     1.0000 0.76160  0.50000  0.41990  Biso   1.000  C
  C530     1.0000 0.76060  0.50000  0.46120  Biso   1.000  C
  N2       1.0000 0.23480  0.50000  0.34202  Biso   1.000  N
  C531     1.0000 0.23840  0.50000  0.41990  Biso   1.000  C
  C532     1.0000 0.23940  0.50000  0.46120  Biso   1.000  C
  N3       1.0000 0.23480  0.50000  0.65798  Biso   1.000  N
  C533     1.0000 0.23840  0.50000  0.58010  Biso   1.000  C
  C534     1.0000 0.23940  0.50000  0.53880  Biso   1.000  C
  N4       1.0000 0.76520  0.50000  0.65798  Biso   1.000  N
  C535     1.0000 0.76160  0.50000  0.58010  Biso   1.000  C
  C536     1.0000 0.76060  0.50000  0.53880  Biso   1.000  C
  N5       1.0000 0.34202  0.76520  0.50000  Biso   1.000  N
  C537     1.0000 0.41990  0.76160  0.50000  Biso   1.000  C
  C538     1.0000 0.46120  0.76060  0.50000  Biso   1.000  C
  N6       1.0000 0.34202  0.23480  0.50000  Biso   1.000  N
  C539     1.0000 0.41990  0.23840  0.50000  Biso   1.000  C
  C540     1.0000 0.46120  0.23940  0.50000  Biso   1.000  C
  N7       1.0000 0.65798  0.23480  0.50000  Biso   1.000  N
  C541     1.0000 0.58010  0.23840  0.50000  Biso   1.000  C
  C542     1.0000 0.53880  0.23940  0.50000  Biso   1.000  C
  N8       1.0000 0.65798  0.76520  0.50000  Biso   1.000  N
  C543     1.0000 0.58010  0.76160  0.50000  Biso   1.000  C
  C544     1.0000 0.53880  0.76060  0.50000  Biso   1.000  C
  N9       1.0000 0.50000  0.34202  0.76520  Biso   1.000  N
  C545     1.0000 0.50000  0.41990  0.76160  Biso   1.000  C
  C546     1.0000 0.50000  0.46120  0.76060  Biso   1.000  C
  N10      1.0000 0.50000  0.34202  0.23480  Biso   1.000  N
  C547     1.0000 0.50000  0.41990  0.23840  Biso   1.000  C
  C548     1.0000 0.50000  0.46120  0.23940  Biso   1.000  C
  N11      1.0000 0.50000  0.65798  0.23480  Biso   1.000  N
  C549     1.0000 0.50000  0.58010  0.23840  Biso   1.000  C
  C550     1.0000 0.50000  0.53880  0.23940  Biso   1.000  C
  N12      1.0000 0.50000  0.65798  0.76520  Biso   1.000  N
  C551     1.0000 0.50000  0.58010  0.76160  Biso   1.000  C
  C552     1.0000 0.50000  0.53880  0.76060  Biso   1.000  C
  N13      1.0000 0.00000  0.26520  0.15798  Biso   1.000  N
  C553     1.0000 0.00000  0.26160  0.08010  Biso   1.000  C
  C554     1.0000 0.00000  0.26060  0.03880  Biso   1.000  C
  N14      1.0000 0.00000  0.73480  0.15798  Biso   1.000  N
  C555     1.0000 0.00000  0.73840  0.08010  Biso   1.000  C
  C556     1.0000 0.00000  0.73940  0.03880  Biso   1.000  C
  N15      1.0000 0.00000  0.73480  0.84202  Biso   1.000  N
  C557     1.0000 0.00000  0.73840  0.91990  Biso   1.000  C
  C558     1.0000 0.00000  0.73940  0.96120  Biso   1.000  C
  N16      1.0000 0.00000  0.26520  0.84202  Biso   1.000  N
  C559     1.0000 0.00000  0.26160  0.91990  Biso   1.000  C
  C560     1.0000 0.00000  0.26060  0.96120  Biso   1.000  C
  N17      1.0000 0.26520  0.84202  0.00000  Biso   1.000  N
  C561     1.0000 0.26160  0.91990  0.00000  Biso   1.000  C
  C562     1.0000 0.26060  0.96120  0.00000  Biso   1.000  C
  N18      1.0000 0.73480  0.84202  0.00000  Biso   1.000  N
  C563     1.0000 0.73840  0.91990  0.00000  Biso   1.000  C
  C564     1.0000 0.73940  0.96120  0.00000  Biso   1.000  C
  N19      1.0000 0.73480  0.15798  0.00000  Biso   1.000  N
  C565     1.0000 0.73840  0.08010  0.00000  Biso   1.000  C
  C566     1.0000 0.73940  0.03880  0.00000  Biso   1.000  C
  N20      1.0000 0.26520  0.15798  0.00000  Biso   1.000  N
  C567     1.0000 0.26160  0.08010  0.00000  Biso   1.000  C
  C568     1.0000 0.26060  0.03880  0.00000  Biso   1.000  C
  N21      1.0000 0.84202  0.00000  0.73480  Biso   1.000  N
  C569     1.0000 0.91990  0.00000  0.73840  Biso   1.000  C
  C570     1.0000 0.96120  0.00000  0.73940  Biso   1.000  C
  N22      1.0000 0.84202  0.00000  0.26520  Biso   1.000  N
  C571     1.0000 0.91990  0.00000  0.26160  Biso   1.000  C
  C572     1.0000 0.96120  0.00000  0.26060  Biso   1.000  C
  N23      1.0000 0.15798  0.00000  0.26520  Biso   1.000  N
  C573     1.0000 0.08010  0.00000  0.26160  Biso   1.000  C
  C574     1.0000 0.03880  0.00000  0.26060  Biso   1.000  C
  N24      1.0000 0.15798  0.00000  0.73480  Biso   1.000  N
  C575     1.0000 0.08010  0.00000  0.73840  Biso   1.000  C
  C576     1.0000 0.03880  0.00000  0.73940  Biso   1.000  C
