data_image0
_cell_length_a       19.65
_cell_length_b       37.98
_cell_length_c       28.82
_cell_angle_alpha    90
_cell_angle_beta     94.57
_cell_angle_gamma    90

_symmetry_space_group_name_H-M    "P 1"
_symmetry_int_tables_number       1

loop_
  _symmetry_equiv_pos_as_xyz
  'x, y, z'

loop_
  _atom_site_label
  _atom_site_occupancy
  _atom_site_fract_x
  _atom_site_fract_y
  _atom_site_fract_z
  _atom_site_thermal_displace_type
  _atom_site_B_iso_or_equiv
  _atom_site_type_symbol
  Zn1      1.0000 0.65820  0.79120  0.47650  Biso   1.000  Zn
  Zn2      1.0000 0.75580  0.78270  0.56830  Biso   1.000  Zn
  Zn3      1.0000 0.80530  0.82640  0.48210  Biso   1.000  Zn
  Zn4      1.0000 0.78820  0.75640  0.97630  Biso   1.000  Zn
  Cu1      1.0000 0.12920  0.54860  0.72250  Biso   1.000  Cu
  Cu2      1.0000 0.47860  0.91700  0.67380  Biso   1.000  Cu
  Cu3      1.0000 0.17000  0.73080  0.67860  Biso   1.000  Cu
  C1       1.0000 0.30550  0.75800  0.83470  Biso   1.000  C
  C2       1.0000 0.22940  0.74450  0.76840  Biso   1.000  C
  C3       1.0000 0.23910  0.74820  0.81640  Biso   1.000  C
  C4       1.0000 0.18490  0.74280  0.84380  Biso   1.000  C
  C5       1.0000 0.12090  0.73390  0.82310  Biso   1.000  C
  C6       1.0000 0.11120  0.73030  0.77500  Biso   1.000  C
  N1       1.0000 0.16540  0.73560  0.74760  Biso   1.000  N
  C7       1.0000 0.33740  0.76860  0.76890  Biso   1.000  C
  C8       1.0000 0.28120  0.75460  0.74240  Biso   1.000  C
  C9       1.0000 0.33660  0.76850  0.81950  Biso   1.000  C
  N2       1.0000 0.07760  0.50790  0.74820  Biso   1.000  N
  N3       1.0000 0.03200  0.56220  0.70290  Biso   1.000  N
  C10      1.0000 0.88400  0.58150  0.69900  Biso   1.000  C
  C11      1.0000 0.94700  0.60050  0.66990  Biso   1.000  C
  C12      1.0000 0.01560  0.58880  0.67840  Biso   1.000  C
  C13      1.0000 0.09450  0.48090  0.77980  Biso   1.000  C
  C14      1.0000 0.05880  0.46180  0.80930  Biso   1.000  C
  C15      1.0000 0.06770  0.61130  0.65520  Biso   1.000  C
  C16      1.0000 0.98580  0.47500  0.82080  Biso   1.000  C
  C17      1.0000 0.97840  0.53800  0.72340  Biso   1.000  C
  C18      1.0000 0.91770  0.55430  0.72850  Biso   1.000  C
  C19      1.0000 0.87640  0.53520  0.76510  Biso   1.000  C
  C20      1.0000 0.00580  0.51070  0.74900  Biso   1.000  C
  C21      1.0000 0.97000  0.49530  0.78340  Biso   1.000  C
  C22      1.0000 0.89380  0.51130  0.77860  Biso   1.000  C
  C23      1.0000 0.43870  0.99860  0.66260  Biso   1.000  C
  C24      1.0000 0.42820  0.02770  0.68720  Biso   1.000  C
  C25      1.0000 0.43550  0.02790  0.73120  Biso   1.000  C
  C26      1.0000 0.46510  0.00730  0.81240  Biso   1.000  C
  C27      1.0000 0.46250  0.97110  0.73150  Biso   1.000  C
  C28      1.0000 0.49200  0.97470  0.83890  Biso   1.000  C
  C29      1.0000 0.95780  0.71910  0.90940  Biso   1.000  C
  C30      1.0000 0.97850  0.75250  0.89650  Biso   1.000  C
  C31      1.0000 0.66990  0.76700  0.91360  Biso   1.000  C
  C32      1.0000 0.03740  0.75520  0.86730  Biso   1.000  C
  C33      1.0000 0.07180  0.72560  0.85310  Biso   1.000  C
  C34      1.0000 0.05120  0.69220  0.86600  Biso   1.000  C
  C35      1.0000 0.99610  0.68840  0.89300  Biso   1.000  C
  C36      1.0000 0.60370  0.78700  0.56740  Biso   1.000  C
  C37      1.0000 0.16780  0.34200  0.92200  Biso   1.000  C
  C38      1.0000 0.82860  0.71650  0.56580  Biso   1.000  C
  C39      1.0000 0.89700  0.71630  0.93490  Biso   1.000  C
  C40      1.0000 0.32900  0.14420  0.57660  Biso   1.000  C
  C41      1.0000 0.35020  0.11230  0.60130  Biso   1.000  C
  C42      1.0000 0.41280  0.11600  0.62690  Biso   1.000  C
  C43      1.0000 0.43850  0.08860  0.65510  Biso   1.000  C
  C44      1.0000 0.40170  0.05750  0.65760  Biso   1.000  C
  C45      1.0000 0.33910  0.05380  0.63200  Biso   1.000  C
  C46      1.0000 0.31340  0.08120  0.60390  Biso   1.000  C
  C47      1.0000 0.13750  0.37360  0.89100  Biso   1.000  C
  C48      1.0000 0.12430  0.36920  0.84320  Biso   1.000  C
  C49      1.0000 0.10360  0.39780  0.81540  Biso   1.000  C
  C50      1.0000 0.09600  0.43070  0.83530  Biso   1.000  C
  C51      1.0000 0.10920  0.43510  0.88310  Biso   1.000  C
  C52      1.0000 0.13000  0.40660  0.91090  Biso   1.000  C
  C53      1.0000 0.86310  0.68840  0.59810  Biso   1.000  C
  C54      1.0000 0.86440  0.68730  0.64630  Biso   1.000  C
  C55      1.0000 0.88580  0.65690  0.67010  Biso   1.000  C
  C56      1.0000 0.90580  0.62770  0.64560  Biso   1.000  C
  C57      1.0000 0.90440  0.62880  0.59740  Biso   1.000  C
  C58      1.0000 0.88310  0.65920  0.57360  Biso   1.000  C
  C59      1.0000 0.27270  0.55460  0.70090  Biso   1.000  C
  C60      1.0000 0.27420  0.56170  0.75030  Biso   1.000  C
  C61      1.0000 0.21080  0.56720  0.81500  Biso   1.000  C
  C62      1.0000 0.27100  0.57010  0.84380  Biso   1.000  C
  C63      1.0000 0.33280  0.57120  0.82490  Biso   1.000  C
  C64      1.0000 0.33530  0.56670  0.77640  Biso   1.000  C
  C65      1.0000 0.39850  0.56820  0.75410  Biso   1.000  C
  C66      1.0000 0.39760  0.56420  0.70790  Biso   1.000  C
  C67      1.0000 0.33600  0.55710  0.67920  Biso   1.000  C
  C68      1.0000 0.33040  0.55280  0.63050  Biso   1.000  C
  C69      1.0000 0.26870  0.54570  0.60720  Biso   1.000  C
  C70      1.0000 0.21000  0.54290  0.63150  Biso   1.000  C
  C71      1.0000 0.52670  0.89070  0.58920  Biso   1.000  C
  C72      1.0000 0.45290  0.89340  0.58480  Biso   1.000  C
  C73      1.0000 0.35480  0.90640  0.62200  Biso   1.000  C
  C74      1.0000 0.41620  0.88420  0.54390  Biso   1.000  C
  C75      1.0000 0.31440  0.89530  0.58270  Biso   1.000  C
  C76      1.0000 0.34420  0.88550  0.54320  Biso   1.000  C
  C77      1.0000 0.45070  0.87480  0.50330  Biso   1.000  C
  C78      1.0000 0.51900  0.87440  0.50590  Biso   1.000  C
  C79      1.0000 0.66530  0.88980  0.59610  Biso   1.000  C
  C80      1.0000 0.62810  0.89710  0.63440  Biso   1.000  C
  C81      1.0000 0.63210  0.88260  0.55370  Biso   1.000  C
  C82      1.0000 0.56020  0.88210  0.54810  Biso   1.000  C
  C83      1.0000 0.54760  0.78260  0.59680  Biso   1.000  C
  C84      1.0000 0.48500  0.79660  0.58000  Biso   1.000  C
  C85      1.0000 0.42960  0.79500  0.60710  Biso   1.000  C
  C86      1.0000 0.43680  0.77950  0.65090  Biso   1.000  C
  C87      1.0000 0.49930  0.76560  0.66760  Biso   1.000  C
  C88      1.0000 0.55480  0.76710  0.64060  Biso   1.000  C
  C89      1.0000 0.62850  0.80550  0.89810  Biso   1.000  C
  C90      1.0000 0.55910  0.80230  0.88520  Biso   1.000  C
  C91      1.0000 0.52560  0.82820  0.85790  Biso   1.000  C
  C92      1.0000 0.56140  0.85720  0.84370  Biso   1.000  C
  C93      1.0000 0.63080  0.86040  0.85650  Biso   1.000  C
  C94      1.0000 0.66440  0.83450  0.88380  Biso   1.000  C
  C95      1.0000 0.52210  0.85060  0.73800  Biso   1.000  C
  C96      1.0000 0.51930  0.87730  0.77360  Biso   1.000  C
  C97      1.0000 0.53210  0.88390  0.82090  Biso   1.000  C
  C98      1.0000 0.52330  0.91760  0.83810  Biso   1.000  C
  C99      1.0000 0.50160  0.94470  0.80800  Biso   1.000  C
  C100     1.0000 0.48950  0.93810  0.76160  Biso   1.000  C
  C101     1.0000 0.31210  0.75750  0.66350  Biso   1.000  C
  C102     1.0000 0.38050  0.76630  0.68070  Biso   1.000  C
  C103     1.0000 0.40230  0.76820  0.72710  Biso   1.000  C
  C104     1.0000 0.05350  0.71450  0.75170  Biso   1.000  C
  C105     1.0000 0.29380  0.75250  0.61620  Biso   1.000  C
  C106     1.0000 0.04940  0.77570  0.64250  Biso   1.000  C
  C107     1.0000 0.99130  0.78500  0.60480  Biso   1.000  C
  C108     1.0000 0.97890  0.76510  0.57260  Biso   1.000  C
  C109     1.0000 0.01770  0.73630  0.56470  Biso   1.000  C
  C110     1.0000 0.06900  0.72850  0.59920  Biso   1.000  C
  C111     1.0000 0.11000  0.69910  0.59490  Biso   1.000  C
  C112     1.0000 0.09980  0.67740  0.55610  Biso   1.000  C
  C113     1.0000 0.04850  0.68520  0.52160  Biso   1.000  C
  C114     1.0000 0.00750  0.71470  0.52590  Biso   1.000  C
  C115     1.0000 0.15180  0.64680  0.55460  Biso   1.000  C
  C116     1.0000 0.19940  0.64320  0.58700  Biso   1.000  C
  C117     1.0000 0.20790  0.66520  0.63340  Biso   1.000  C
  C118     1.0000 0.45790  0.00230  0.76040  Biso   1.000  C
  N4       1.0000 0.21470  0.54920  0.67080  Biso   1.000  N
  N5       1.0000 0.22930  0.56430  0.76160  Biso   1.000  N
  N6       1.0000 0.55920  0.90340  0.62440  Biso   1.000  N
  N7       1.0000 0.46510  0.97120  0.68800  Biso   1.000  N
  N8       1.0000 0.50480  0.91000  0.73530  Biso   1.000  N
  N9       1.0000 0.41620  0.89540  0.62560  Biso   1.000  N
  N10      1.0000 0.26600  0.75070  0.69100  Biso   1.000  N
  N11      1.0000 0.08650  0.74870  0.63330  Biso   1.000  N
  N12      1.0000 0.16450  0.68720  0.62860  Biso   1.000  N
  O1       1.0000 0.59850  0.79590  0.53000  Biso   1.000  O
  O2       1.0000 0.36140  0.16280  0.55660  Biso   1.000  O
  O3       1.0000 0.62000  0.74740  0.93520  Biso   1.000  O
  O4       1.0000 0.80490  0.74020  0.59030  Biso   1.000  O
  O5       1.0000 0.88150  0.68580  0.94780  Biso   1.000  O
  O6       1.0000 0.16400  0.34780  0.96000  Biso   1.000  O
  O7       1.0000 0.72170  0.77490  0.94210  Biso   1.000  O
  O8       1.0000 0.81530  0.71660  0.52390  Biso   1.000  O
  O9       1.0000 0.19250  0.31910  0.90110  Biso   1.000  O
  O10      1.0000 0.25670  0.14480  0.55600  Biso   1.000  O
  O11      1.0000 0.66600  0.78630  0.58830  Biso   1.000  O
  O12      1.0000 0.87560  0.74350  0.95150  Biso   1.000  O
  O13      1.0000 0.75040  0.78600  0.49960  Biso   1.000  O
  C119     1.0000 0.42860  0.98760  0.61390  Biso   1.000  C
  C120     1.0000 0.23100  0.92000  0.65400  Biso   1.000  C
  C121     1.0000 0.30100  0.91000  0.65300  Biso   1.000  C
  C122     1.0000 0.34500  0.91700  0.69300  Biso   1.000  C
  C123     1.0000 0.31800  0.92500  0.73500  Biso   1.000  C
  C124     1.0000 0.24900  0.93100  0.73700  Biso   1.000  C
  C125     1.0000 0.20500  0.92700  0.69600  Biso   1.000  C
  C126     1.0000 0.14300  0.57700  0.83800  Biso   1.000  C
  C127     1.0000 0.13000  0.55700  0.87700  Biso   1.000  C
  C128     1.0000 0.06000  0.55200  0.88800  Biso   1.000  C
  C129     1.0000 0.00900  0.56500  0.85900  Biso   1.000  C
  C130     1.0000 0.02200  0.58400  0.82000  Biso   1.000  C
  C131     1.0000 0.08900  0.59000  0.80900  Biso   1.000  C
  C132     1.0000 0.01200  0.52200  0.56600  Biso   1.000  C
  C133     1.0000 0.03600  0.50400  0.60600  Biso   1.000  C
  C134     1.0000 0.10200  0.51100  0.62500  Biso   1.000  C
  C135     1.0000 0.14300  0.53400  0.60500  Biso   1.000  C
  C136     1.0000 0.11900  0.55200  0.56500  Biso   1.000  C
  C137     1.0000 0.05300  0.54600  0.54500  Biso   1.000  C
  C138     1.0000 0.68000  0.92400  0.77200  Biso   1.000  C
  C139     1.0000 0.72200  0.89800  0.75200  Biso   1.000  C
  C140     1.0000 0.71100  0.89100  0.70500  Biso   1.000  C
  C141     1.0000 0.66200  0.91000  0.67800  Biso   1.000  C
  C142     1.0000 0.62400  0.93600  0.69800  Biso   1.000  C
  C143     1.0000 0.64000  0.94300  0.74500  Biso   1.000  C
  C144     1.0000 0.06200  0.79700  0.68500  Biso   1.000  C
  C145     1.0000 0.12900  0.80800  0.69600  Biso   1.000  C
  C146     1.0000 0.14700  0.82500  0.73700  Biso   1.000  C
  C147     1.0000 0.09800  0.83200  0.76800  Biso   1.000  C
  C148     1.0000 0.03000  0.82200  0.75700  Biso   1.000  C
  C149     1.0000 0.01200  0.80400  0.71600  Biso   1.000  C
  C150     1.0000 0.25600  0.65800  0.67000  Biso   1.000  C
  C151     1.0000 0.23200  0.66000  0.71400  Biso   1.000  C
  C152     1.0000 0.27700  0.66000  0.75400  Biso   1.000  C
  C153     1.0000 0.34600  0.65800  0.75000  Biso   1.000  C
  C154     1.0000 0.37100  0.65500  0.70600  Biso   1.000  C
  C155     1.0000 0.32600  0.65600  0.66600  Biso   1.000  C
  O14      1.0000 0.72900  0.93100  0.81400  Biso   1.000  O
  O15      1.0000 0.10000  0.83900  0.81100  Biso   1.000  O
  C156     1.0000 0.25600  0.95100  0.87700  Biso   1.000  C
  C157     1.0000 0.28000  0.92400  0.83900  Biso   1.000  C
  O16      1.0000 0.95100  0.53100  0.54100  Biso   1.000  O
  O17      1.0000 0.25000  0.93800  0.79200  Biso   1.000  O
  C158     1.0000 0.68000  0.95300  0.83000  Biso   1.000  C
  Zn5      1.0000 0.34180  0.29120  0.02350  Biso   1.000  Zn
  Zn6      1.0000 0.24420  0.28270  0.93170  Biso   1.000  Zn
  Zn7      1.0000 0.19470  0.32640  0.01790  Biso   1.000  Zn
  Zn8      1.0000 0.21180  0.25640  0.52370  Biso   1.000  Zn
  Cu4      1.0000 0.87080  0.04860  0.77750  Biso   1.000  Cu
  Cu5      1.0000 0.52140  0.41700  0.82620  Biso   1.000  Cu
  Cu6      1.0000 0.83000  0.23080  0.82140  Biso   1.000  Cu
  C159     1.0000 0.69450  0.25800  0.66530  Biso   1.000  C
  C160     1.0000 0.77060  0.24450  0.73160  Biso   1.000  C
  C161     1.0000 0.76090  0.24820  0.68360  Biso   1.000  C
  C162     1.0000 0.81510  0.24280  0.65620  Biso   1.000  C
  C163     1.0000 0.87910  0.23390  0.67690  Biso   1.000  C
  C164     1.0000 0.88880  0.23030  0.72500  Biso   1.000  C
  N13      1.0000 0.83460  0.23560  0.75240  Biso   1.000  N
  C165     1.0000 0.66260  0.26860  0.73110  Biso   1.000  C
  C166     1.0000 0.71880  0.25460  0.75760  Biso   1.000  C
  C167     1.0000 0.66340  0.26850  0.68050  Biso   1.000  C
  N14      1.0000 0.92240  0.00790  0.75180  Biso   1.000  N
  N15      1.0000 0.96800  0.06220  0.79710  Biso   1.000  N
  C168     1.0000 0.11600  0.08150  0.80100  Biso   1.000  C
  C169     1.0000 0.05300  0.10050  0.83010  Biso   1.000  C
  C170     1.0000 0.98440  0.08880  0.82160  Biso   1.000  C
  C171     1.0000 0.90550  0.98090  0.72020  Biso   1.000  C
  C172     1.0000 0.94120  0.96180  0.69070  Biso   1.000  C
  C173     1.0000 0.93230  0.11130  0.84480  Biso   1.000  C
  C174     1.0000 0.01420  0.97500  0.67920  Biso   1.000  C
  C175     1.0000 0.02160  0.03800  0.77660  Biso   1.000  C
  C176     1.0000 0.08230  0.05430  0.77150  Biso   1.000  C
  C177     1.0000 0.12360  0.03520  0.73490  Biso   1.000  C
  C178     1.0000 0.99420  0.01070  0.75100  Biso   1.000  C
  C179     1.0000 0.03000  0.99530  0.71660  Biso   1.000  C
  C180     1.0000 0.10620  0.01130  0.72140  Biso   1.000  C
  C181     1.0000 0.56130  0.49860  0.83740  Biso   1.000  C
  C182     1.0000 0.57180  0.52770  0.81280  Biso   1.000  C
  C183     1.0000 0.56450  0.52790  0.76880  Biso   1.000  C
  C184     1.0000 0.53490  0.50730  0.68760  Biso   1.000  C
  C185     1.0000 0.53750  0.47110  0.76850  Biso   1.000  C
  C186     1.0000 0.50800  0.47470  0.66110  Biso   1.000  C
  C187     1.0000 0.04220  0.21910  0.59060  Biso   1.000  C
  C188     1.0000 0.02150  0.25250  0.60350  Biso   1.000  C
  C189     1.0000 0.33010  0.26700  0.58640  Biso   1.000  C
  C190     1.0000 0.96260  0.25520  0.63270  Biso   1.000  C
  C191     1.0000 0.92820  0.22560  0.64690  Biso   1.000  C
  C192     1.0000 0.94880  0.19220  0.63400  Biso   1.000  C
  C193     1.0000 0.00390  0.18840  0.60700  Biso   1.000  C
  C194     1.0000 0.39630  0.28700  0.93260  Biso   1.000  C
  C195     1.0000 0.83220  0.84200  0.57800  Biso   1.000  C
  C196     1.0000 0.17140  0.21650  0.93420  Biso   1.000  C
  C197     1.0000 0.10300  0.21630  0.56510  Biso   1.000  C
  C198     1.0000 0.67100  0.64420  0.92340  Biso   1.000  C
  C199     1.0000 0.64980  0.61230  0.89870  Biso   1.000  C
  C200     1.0000 0.58720  0.61600  0.87310  Biso   1.000  C
  C201     1.0000 0.56150  0.58860  0.84490  Biso   1.000  C
  C202     1.0000 0.59830  0.55750  0.84240  Biso   1.000  C
  C203     1.0000 0.66090  0.55380  0.86800  Biso   1.000  C
  C204     1.0000 0.68660  0.58120  0.89610  Biso   1.000  C
  C205     1.0000 0.86250  0.87360  0.60900  Biso   1.000  C
  C206     1.0000 0.87570  0.86920  0.65680  Biso   1.000  C
  C207     1.0000 0.89640  0.89780  0.68460  Biso   1.000  C
  C208     1.0000 0.90400  0.93070  0.66470  Biso   1.000  C
  C209     1.0000 0.89080  0.93510  0.61690  Biso   1.000  C
  C210     1.0000 0.87000  0.90660  0.58910  Biso   1.000  C
  C211     1.0000 0.13690  0.18840  0.90190  Biso   1.000  C
  C212     1.0000 0.13560  0.18730  0.85370  Biso   1.000  C
  C213     1.0000 0.11420  0.15690  0.82990  Biso   1.000  C
  C214     1.0000 0.09420  0.12770  0.85440  Biso   1.000  C
  C215     1.0000 0.09560  0.12880  0.90260  Biso   1.000  C
  C216     1.0000 0.11690  0.15920  0.92640  Biso   1.000  C
  C217     1.0000 0.72730  0.05460  0.79910  Biso   1.000  C
  C218     1.0000 0.72580  0.06170  0.74970  Biso   1.000  C
  C219     1.0000 0.78920  0.06720  0.68500  Biso   1.000  C
  C220     1.0000 0.72900  0.07010  0.65620  Biso   1.000  C
  C221     1.0000 0.66720  0.07120  0.67510  Biso   1.000  C
  C222     1.0000 0.66470  0.06670  0.72360  Biso   1.000  C
  C223     1.0000 0.60150  0.06820  0.74590  Biso   1.000  C
  C224     1.0000 0.60240  0.06420  0.79210  Biso   1.000  C
  C225     1.0000 0.66400  0.05710  0.82080  Biso   1.000  C
  C226     1.0000 0.66960  0.05280  0.86950  Biso   1.000  C
  C227     1.0000 0.73130  0.04570  0.89280  Biso   1.000  C
  C228     1.0000 0.79000  0.04290  0.86850  Biso   1.000  C
  C229     1.0000 0.47330  0.39070  0.91080  Biso   1.000  C
  C230     1.0000 0.54710  0.39340  0.91520  Biso   1.000  C
  C231     1.0000 0.64520  0.40640  0.87800  Biso   1.000  C
  C232     1.0000 0.58380  0.38420  0.95610  Biso   1.000  C
  C233     1.0000 0.68560  0.39530  0.91730  Biso   1.000  C
  C234     1.0000 0.65580  0.38550  0.95680  Biso   1.000  C
  C235     1.0000 0.54930  0.37480  0.99670  Biso   1.000  C
  C236     1.0000 0.48100  0.37440  0.99410  Biso   1.000  C
  C237     1.0000 0.33470  0.38980  0.90390  Biso   1.000  C
  C238     1.0000 0.37190  0.39710  0.86560  Biso   1.000  C
  C239     1.0000 0.36790  0.38260  0.94630  Biso   1.000  C
  C240     1.0000 0.43980  0.38210  0.95190  Biso   1.000  C
  C241     1.0000 0.45240  0.28260  0.90320  Biso   1.000  C
  C242     1.0000 0.51500  0.29660  0.92000  Biso   1.000  C
  C243     1.0000 0.57040  0.29500  0.89290  Biso   1.000  C
  C244     1.0000 0.56320  0.27950  0.84910  Biso   1.000  C
  C245     1.0000 0.50070  0.26560  0.83240  Biso   1.000  C
  C246     1.0000 0.44520  0.26710  0.85940  Biso   1.000  C
  C247     1.0000 0.37150  0.30550  0.60190  Biso   1.000  C
  C248     1.0000 0.44090  0.30230  0.61480  Biso   1.000  C
  C249     1.0000 0.47440  0.32820  0.64210  Biso   1.000  C
  C250     1.0000 0.43860  0.35720  0.65630  Biso   1.000  C
  C251     1.0000 0.36920  0.36040  0.64350  Biso   1.000  C
  C252     1.0000 0.33560  0.33450  0.61620  Biso   1.000  C
  C253     1.0000 0.47790  0.35060  0.76200  Biso   1.000  C
  C254     1.0000 0.48070  0.37730  0.72640  Biso   1.000  C
  C255     1.0000 0.46790  0.38390  0.67910  Biso   1.000  C
  C256     1.0000 0.47670  0.41760  0.66190  Biso   1.000  C
  C257     1.0000 0.49840  0.44470  0.69200  Biso   1.000  C
  C258     1.0000 0.51050  0.43810  0.73840  Biso   1.000  C
  C259     1.0000 0.68790  0.25750  0.83650  Biso   1.000  C
  C260     1.0000 0.61950  0.26630  0.81930  Biso   1.000  C
  C261     1.0000 0.59770  0.26820  0.77290  Biso   1.000  C
  C262     1.0000 0.94650  0.21450  0.74830  Biso   1.000  C
  C263     1.0000 0.70620  0.25250  0.88380  Biso   1.000  C
  C264     1.0000 0.95060  0.27570  0.85750  Biso   1.000  C
  C265     1.0000 0.00870  0.28500  0.89520  Biso   1.000  C
  C266     1.0000 0.02110  0.26510  0.92740  Biso   1.000  C
  C267     1.0000 0.98230  0.23630  0.93530  Biso   1.000  C
  C268     1.0000 0.93100  0.22850  0.90080  Biso   1.000  C
  C269     1.0000 0.89000  0.19910  0.90510  Biso   1.000  C
  C270     1.0000 0.90020  0.17740  0.94390  Biso   1.000  C
  C271     1.0000 0.95150  0.18520  0.97840  Biso   1.000  C
  C272     1.0000 0.99250  0.21470  0.97410  Biso   1.000  C
  C273     1.0000 0.84820  0.14680  0.94540  Biso   1.000  C
  C274     1.0000 0.80060  0.14320  0.91300  Biso   1.000  C
  C275     1.0000 0.79210  0.16520  0.86660  Biso   1.000  C
  C276     1.0000 0.54210  0.50230  0.73960  Biso   1.000  C
  N16      1.0000 0.78530  0.04920  0.82920  Biso   1.000  N
  N17      1.0000 0.77070  0.06430  0.73840  Biso   1.000  N
  N18      1.0000 0.44080  0.40340  0.87560  Biso   1.000  N
  N19      1.0000 0.53490  0.47120  0.81200  Biso   1.000  N
  N20      1.0000 0.49520  0.41000  0.76470  Biso   1.000  N
  N21      1.0000 0.58380  0.39540  0.87440  Biso   1.000  N
  N22      1.0000 0.73400  0.25070  0.80900  Biso   1.000  N
  N23      1.0000 0.91350  0.24870  0.86670  Biso   1.000  N
  N24      1.0000 0.83550  0.18720  0.87140  Biso   1.000  N
  O18      1.0000 0.40150  0.29590  0.97000  Biso   1.000  O
  O19      1.0000 0.63860  0.66280  0.94340  Biso   1.000  O
  O20      1.0000 0.38000  0.24740  0.56480  Biso   1.000  O
  O21      1.0000 0.19510  0.24020  0.90970  Biso   1.000  O
  O22      1.0000 0.11850  0.18580  0.55220  Biso   1.000  O
  O23      1.0000 0.83600  0.84780  0.54000  Biso   1.000  O
  O24      1.0000 0.27830  0.27490  0.55790  Biso   1.000  O
  O25      1.0000 0.18470  0.21660  0.97610  Biso   1.000  O
  O26      1.0000 0.80750  0.81910  0.59890  Biso   1.000  O
  O27      1.0000 0.74330  0.64480  0.94400  Biso   1.000  O
  O28      1.0000 0.33400  0.28630  0.91170  Biso   1.000  O
  O29      1.0000 0.12440  0.24350  0.54850  Biso   1.000  O
  O30      1.0000 0.24960  0.28600  0.00040  Biso   1.000  O
  C277     1.0000 0.57140  0.48760  0.88610  Biso   1.000  C
  C278     1.0000 0.76900  0.42000  0.84600  Biso   1.000  C
  C279     1.0000 0.69900  0.41000  0.84700  Biso   1.000  C
  C280     1.0000 0.65500  0.41700  0.80700  Biso   1.000  C
  C281     1.0000 0.68200  0.42500  0.76500  Biso   1.000  C
  C282     1.0000 0.75100  0.43100  0.76300  Biso   1.000  C
  C283     1.0000 0.79500  0.42700  0.80400  Biso   1.000  C
  C284     1.0000 0.85700  0.07700  0.66200  Biso   1.000  C
  C285     1.0000 0.87000  0.05700  0.62300  Biso   1.000  C
  C286     1.0000 0.94000  0.05200  0.61200  Biso   1.000  C
  C287     1.0000 0.99100  0.06500  0.64100  Biso   1.000  C
  C288     1.0000 0.97800  0.08400  0.68000  Biso   1.000  C
  C289     1.0000 0.91100  0.09000  0.69100  Biso   1.000  C
  C290     1.0000 0.98800  0.02200  0.93400  Biso   1.000  C
  C291     1.0000 0.96400  0.00400  0.89400  Biso   1.000  C
  C292     1.0000 0.89800  0.01100  0.87500  Biso   1.000  C
  C293     1.0000 0.85700  0.03400  0.89500  Biso   1.000  C
  C294     1.0000 0.88100  0.05200  0.93500  Biso   1.000  C
  C295     1.0000 0.94700  0.04600  0.95500  Biso   1.000  C
  C296     1.0000 0.32000  0.42400  0.72800  Biso   1.000  C
  C297     1.0000 0.27800  0.39800  0.74800  Biso   1.000  C
  C298     1.0000 0.28900  0.39100  0.79500  Biso   1.000  C
  C299     1.0000 0.33800  0.41000  0.82200  Biso   1.000  C
  C300     1.0000 0.37600  0.43600  0.80200  Biso   1.000  C
  C301     1.0000 0.36000  0.44300  0.75500  Biso   1.000  C
  C302     1.0000 0.93800  0.29700  0.81500  Biso   1.000  C
  C303     1.0000 0.87100  0.30800  0.80400  Biso   1.000  C
  C304     1.0000 0.85300  0.32500  0.76300  Biso   1.000  C
  C305     1.0000 0.90200  0.33200  0.73200  Biso   1.000  C
  C306     1.0000 0.97000  0.32200  0.74300  Biso   1.000  C
  C307     1.0000 0.98800  0.30400  0.78400  Biso   1.000  C
  C308     1.0000 0.74400  0.15800  0.83000  Biso   1.000  C
  C309     1.0000 0.76800  0.16000  0.78600  Biso   1.000  C
  C310     1.0000 0.72300  0.16000  0.74600  Biso   1.000  C
  C311     1.0000 0.65400  0.15800  0.75000  Biso   1.000  C
  C312     1.0000 0.62900  0.15500  0.79400  Biso   1.000  C
  C313     1.0000 0.67400  0.15600  0.83400  Biso   1.000  C
  O31      1.0000 0.27100  0.43100  0.68600  Biso   1.000  O
  O32      1.0000 0.90000  0.33900  0.68900  Biso   1.000  O
  C314     1.0000 0.74400  0.45100  0.62300  Biso   1.000  C
  C315     1.0000 0.72000  0.42400  0.66100  Biso   1.000  C
  O33      1.0000 0.04900  0.03100  0.95900  Biso   1.000  O
  O34      1.0000 0.75000  0.43800  0.70800  Biso   1.000  O
  C316     1.0000 0.32000  0.45300  0.67000  Biso   1.000  C
  Zn9      1.0000 0.34180  0.20880  0.52350  Biso   1.000  Zn
  Zn10     1.0000 0.24420  0.21730  0.43170  Biso   1.000  Zn
  Zn11     1.0000 0.19470  0.17360  0.51790  Biso   1.000  Zn
  Zn12     1.0000 0.21180  0.24360  0.02370  Biso   1.000  Zn
  Cu7      1.0000 0.87080  0.45140  0.27750  Biso   1.000  Cu
  Cu8      1.0000 0.52140  0.08300  0.32620  Biso   1.000  Cu
  Cu9      1.0000 0.83000  0.26920  0.32140  Biso   1.000  Cu
  C317     1.0000 0.69450  0.24200  0.16530  Biso   1.000  C
  C318     1.0000 0.77060  0.25550  0.23160  Biso   1.000  C
  C319     1.0000 0.76090  0.25180  0.18360  Biso   1.000  C
  C320     1.0000 0.81510  0.25720  0.15620  Biso   1.000  C
  C321     1.0000 0.87910  0.26610  0.17690  Biso   1.000  C
  C322     1.0000 0.88880  0.26970  0.22500  Biso   1.000  C
  N25      1.0000 0.83460  0.26440  0.25240  Biso   1.000  N
  C323     1.0000 0.66260  0.23140  0.23110  Biso   1.000  C
  C324     1.0000 0.71880  0.24540  0.25760  Biso   1.000  C
  C325     1.0000 0.66340  0.23150  0.18050  Biso   1.000  C
  N26      1.0000 0.92240  0.49210  0.25180  Biso   1.000  N
  N27      1.0000 0.96800  0.43780  0.29710  Biso   1.000  N
  C326     1.0000 0.11600  0.41850  0.30100  Biso   1.000  C
  C327     1.0000 0.05300  0.39950  0.33010  Biso   1.000  C
  C328     1.0000 0.98440  0.41120  0.32160  Biso   1.000  C
  C329     1.0000 0.90550  0.51910  0.22020  Biso   1.000  C
  C330     1.0000 0.94120  0.53820  0.19070  Biso   1.000  C
  C331     1.0000 0.93230  0.38870  0.34480  Biso   1.000  C
  C332     1.0000 0.01420  0.52500  0.17920  Biso   1.000  C
  C333     1.0000 0.02160  0.46200  0.27660  Biso   1.000  C
  C334     1.0000 0.08230  0.44570  0.27150  Biso   1.000  C
  C335     1.0000 0.12360  0.46480  0.23490  Biso   1.000  C
  C336     1.0000 0.99420  0.48930  0.25100  Biso   1.000  C
  C337     1.0000 0.03000  0.50470  0.21660  Biso   1.000  C
  C338     1.0000 0.10620  0.48870  0.22140  Biso   1.000  C
  C339     1.0000 0.56130  0.00140  0.33740  Biso   1.000  C
  C340     1.0000 0.57180  0.97230  0.31280  Biso   1.000  C
  C341     1.0000 0.56450  0.97210  0.26880  Biso   1.000  C
  C342     1.0000 0.53490  0.99270  0.18760  Biso   1.000  C
  C343     1.0000 0.53750  0.02890  0.26850  Biso   1.000  C
  C344     1.0000 0.50800  0.02530  0.16110  Biso   1.000  C
  C345     1.0000 0.04220  0.28090  0.09060  Biso   1.000  C
  C346     1.0000 0.02150  0.24750  0.10350  Biso   1.000  C
  C347     1.0000 0.33010  0.23300  0.08640  Biso   1.000  C
  C348     1.0000 0.96260  0.24480  0.13270  Biso   1.000  C
  C349     1.0000 0.92820  0.27440  0.14690  Biso   1.000  C
  C350     1.0000 0.94880  0.30780  0.13400  Biso   1.000  C
  C351     1.0000 0.00390  0.31160  0.10700  Biso   1.000  C
  C352     1.0000 0.39630  0.21300  0.43260  Biso   1.000  C
  C353     1.0000 0.83220  0.65800  0.07800  Biso   1.000  C
  C354     1.0000 0.17140  0.28350  0.43420  Biso   1.000  C
  C355     1.0000 0.10300  0.28370  0.06510  Biso   1.000  C
  C356     1.0000 0.67100  0.85580  0.42340  Biso   1.000  C
  C357     1.0000 0.64980  0.88770  0.39870  Biso   1.000  C
  C358     1.0000 0.58720  0.88400  0.37310  Biso   1.000  C
  C359     1.0000 0.56150  0.91140  0.34490  Biso   1.000  C
  C360     1.0000 0.59830  0.94250  0.34240  Biso   1.000  C
  C361     1.0000 0.66090  0.94620  0.36800  Biso   1.000  C
  C362     1.0000 0.68660  0.91880  0.39610  Biso   1.000  C
  C363     1.0000 0.86250  0.62640  0.10900  Biso   1.000  C
  C364     1.0000 0.87570  0.63080  0.15680  Biso   1.000  C
  C365     1.0000 0.89640  0.60220  0.18460  Biso   1.000  C
  C366     1.0000 0.90400  0.56930  0.16470  Biso   1.000  C
  C367     1.0000 0.89080  0.56490  0.11690  Biso   1.000  C
  C368     1.0000 0.87000  0.59340  0.08910  Biso   1.000  C
  C369     1.0000 0.13690  0.31160  0.40190  Biso   1.000  C
  C370     1.0000 0.13560  0.31270  0.35370  Biso   1.000  C
  C371     1.0000 0.11420  0.34310  0.32990  Biso   1.000  C
  C372     1.0000 0.09420  0.37230  0.35440  Biso   1.000  C
  C373     1.0000 0.09560  0.37120  0.40260  Biso   1.000  C
  C374     1.0000 0.11690  0.34080  0.42640  Biso   1.000  C
  C375     1.0000 0.72730  0.44540  0.29910  Biso   1.000  C
  C376     1.0000 0.72580  0.43830  0.24970  Biso   1.000  C
  C377     1.0000 0.78920  0.43280  0.18500  Biso   1.000  C
  C378     1.0000 0.72900  0.42990  0.15620  Biso   1.000  C
  C379     1.0000 0.66720  0.42880  0.17510  Biso   1.000  C
  C380     1.0000 0.66470  0.43330  0.22360  Biso   1.000  C
  C381     1.0000 0.60150  0.43180  0.24590  Biso   1.000  C
  C382     1.0000 0.60240  0.43580  0.29210  Biso   1.000  C
  C383     1.0000 0.66400  0.44290  0.32080  Biso   1.000  C
  C384     1.0000 0.66960  0.44720  0.36950  Biso   1.000  C
  C385     1.0000 0.73130  0.45430  0.39280  Biso   1.000  C
  C386     1.0000 0.79000  0.45710  0.36850  Biso   1.000  C
  C387     1.0000 0.47330  0.10930  0.41080  Biso   1.000  C
  C388     1.0000 0.54710  0.10660  0.41520  Biso   1.000  C
  C389     1.0000 0.64520  0.09360  0.37800  Biso   1.000  C
  C390     1.0000 0.58380  0.11580  0.45610  Biso   1.000  C
  C391     1.0000 0.68560  0.10470  0.41730  Biso   1.000  C
  C392     1.0000 0.65580  0.11450  0.45680  Biso   1.000  C
  C393     1.0000 0.54930  0.12520  0.49670  Biso   1.000  C
  C394     1.0000 0.48100  0.12560  0.49410  Biso   1.000  C
  C395     1.0000 0.33470  0.11020  0.40390  Biso   1.000  C
  C396     1.0000 0.37190  0.10290  0.36560  Biso   1.000  C
  C397     1.0000 0.36790  0.11740  0.44630  Biso   1.000  C
  C398     1.0000 0.43980  0.11790  0.45190  Biso   1.000  C
  C399     1.0000 0.45240  0.21740  0.40320  Biso   1.000  C
  C400     1.0000 0.51500  0.20340  0.42000  Biso   1.000  C
  C401     1.0000 0.57040  0.20500  0.39290  Biso   1.000  C
  C402     1.0000 0.56320  0.22050  0.34910  Biso   1.000  C
  C403     1.0000 0.50070  0.23440  0.33240  Biso   1.000  C
  C404     1.0000 0.44520  0.23290  0.35940  Biso   1.000  C
  C405     1.0000 0.37150  0.19450  0.10190  Biso   1.000  C
  C406     1.0000 0.44090  0.19770  0.11480  Biso   1.000  C
  C407     1.0000 0.47440  0.17180  0.14210  Biso   1.000  C
  C408     1.0000 0.43860  0.14280  0.15630  Biso   1.000  C
  C409     1.0000 0.36920  0.13960  0.14350  Biso   1.000  C
  C410     1.0000 0.33560  0.16550  0.11620  Biso   1.000  C
  C411     1.0000 0.47790  0.14940  0.26200  Biso   1.000  C
  C412     1.0000 0.48070  0.12270  0.22640  Biso   1.000  C
  C413     1.0000 0.46790  0.11610  0.17910  Biso   1.000  C
  C414     1.0000 0.47670  0.08240  0.16190  Biso   1.000  C
  C415     1.0000 0.49840  0.05530  0.19200  Biso   1.000  C
  C416     1.0000 0.51050  0.06190  0.23840  Biso   1.000  C
  C417     1.0000 0.68790  0.24250  0.33650  Biso   1.000  C
  C418     1.0000 0.61950  0.23370  0.31930  Biso   1.000  C
  C419     1.0000 0.59770  0.23180  0.27290  Biso   1.000  C
  C420     1.0000 0.94650  0.28550  0.24830  Biso   1.000  C
  C421     1.0000 0.70620  0.24750  0.38380  Biso   1.000  C
  C422     1.0000 0.95060  0.22430  0.35750  Biso   1.000  C
  C423     1.0000 0.00870  0.21500  0.39520  Biso   1.000  C
  C424     1.0000 0.02110  0.23490  0.42740  Biso   1.000  C
  C425     1.0000 0.98230  0.26370  0.43530  Biso   1.000  C
  C426     1.0000 0.93100  0.27150  0.40080  Biso   1.000  C
  C427     1.0000 0.89000  0.30090  0.40510  Biso   1.000  C
  C428     1.0000 0.90020  0.32260  0.44390  Biso   1.000  C
  C429     1.0000 0.95150  0.31480  0.47840  Biso   1.000  C
  C430     1.0000 0.99250  0.28530  0.47410  Biso   1.000  C
  C431     1.0000 0.84820  0.35320  0.44540  Biso   1.000  C
  C432     1.0000 0.80060  0.35680  0.41300  Biso   1.000  C
  C433     1.0000 0.79210  0.33480  0.36660  Biso   1.000  C
  C434     1.0000 0.54210  0.99770  0.23960  Biso   1.000  C
  N28      1.0000 0.78530  0.45080  0.32920  Biso   1.000  N
  N29      1.0000 0.77070  0.43570  0.23840  Biso   1.000  N
  N30      1.0000 0.44080  0.09660  0.37560  Biso   1.000  N
  N31      1.0000 0.53490  0.02880  0.31200  Biso   1.000  N
  N32      1.0000 0.49520  0.09000  0.26470  Biso   1.000  N
  N33      1.0000 0.58380  0.10460  0.37440  Biso   1.000  N
  N34      1.0000 0.73400  0.24930  0.30900  Biso   1.000  N
  N35      1.0000 0.91350  0.25130  0.36670  Biso   1.000  N
  N36      1.0000 0.83550  0.31280  0.37140  Biso   1.000  N
  O35      1.0000 0.40150  0.20410  0.47000  Biso   1.000  O
  O36      1.0000 0.63860  0.83720  0.44340  Biso   1.000  O
  O37      1.0000 0.38000  0.25260  0.06480  Biso   1.000  O
  O38      1.0000 0.19510  0.25980  0.40970  Biso   1.000  O
  O39      1.0000 0.11850  0.31420  0.05220  Biso   1.000  O
  O40      1.0000 0.83600  0.65220  0.04000  Biso   1.000  O
  O41      1.0000 0.27830  0.22510  0.05790  Biso   1.000  O
  O42      1.0000 0.18470  0.28340  0.47610  Biso   1.000  O
  O43      1.0000 0.80750  0.68090  0.09890  Biso   1.000  O
  O44      1.0000 0.74330  0.85520  0.44400  Biso   1.000  O
  O45      1.0000 0.33400  0.21370  0.41170  Biso   1.000  O
  O46      1.0000 0.12440  0.25650  0.04850  Biso   1.000  O
  O47      1.0000 0.24960  0.21400  0.50040  Biso   1.000  O
  C435     1.0000 0.57140  0.01240  0.38610  Biso   1.000  C
  C436     1.0000 0.76900  0.08000  0.34600  Biso   1.000  C
  C437     1.0000 0.69900  0.09000  0.34700  Biso   1.000  C
  C438     1.0000 0.65500  0.08300  0.30700  Biso   1.000  C
  C439     1.0000 0.68200  0.07500  0.26500  Biso   1.000  C
  C440     1.0000 0.75100  0.06900  0.26300  Biso   1.000  C
  C441     1.0000 0.79500  0.07300  0.30400  Biso   1.000  C
  C442     1.0000 0.85700  0.42300  0.16200  Biso   1.000  C
  C443     1.0000 0.87000  0.44300  0.12300  Biso   1.000  C
  C444     1.0000 0.94000  0.44800  0.11200  Biso   1.000  C
  C445     1.0000 0.99100  0.43500  0.14100  Biso   1.000  C
  C446     1.0000 0.97800  0.41600  0.18000  Biso   1.000  C
  C447     1.0000 0.91100  0.41000  0.19100  Biso   1.000  C
  C448     1.0000 0.98800  0.47800  0.43400  Biso   1.000  C
  C449     1.0000 0.96400  0.49600  0.39400  Biso   1.000  C
  C450     1.0000 0.89800  0.48900  0.37500  Biso   1.000  C
  C451     1.0000 0.85700  0.46600  0.39500  Biso   1.000  C
  C452     1.0000 0.88100  0.44800  0.43500  Biso   1.000  C
  C453     1.0000 0.94700  0.45400  0.45500  Biso   1.000  C
  C454     1.0000 0.32000  0.07600  0.22800  Biso   1.000  C
  C455     1.0000 0.27800  0.10200  0.24800  Biso   1.000  C
  C456     1.0000 0.28900  0.10900  0.29500  Biso   1.000  C
  C457     1.0000 0.33800  0.09000  0.32200  Biso   1.000  C
  C458     1.0000 0.37600  0.06400  0.30200  Biso   1.000  C
  C459     1.0000 0.36000  0.05700  0.25500  Biso   1.000  C
  C460     1.0000 0.93800  0.20300  0.31500  Biso   1.000  C
  C461     1.0000 0.87100  0.19200  0.30400  Biso   1.000  C
  C462     1.0000 0.85300  0.17500  0.26300  Biso   1.000  C
  C463     1.0000 0.90200  0.16800  0.23200  Biso   1.000  C
  C464     1.0000 0.97000  0.17800  0.24300  Biso   1.000  C
  C465     1.0000 0.98800  0.19600  0.28400  Biso   1.000  C
  C466     1.0000 0.74400  0.34200  0.33000  Biso   1.000  C
  C467     1.0000 0.76800  0.34000  0.28600  Biso   1.000  C
  C468     1.0000 0.72300  0.34000  0.24600  Biso   1.000  C
  C469     1.0000 0.65400  0.34200  0.25000  Biso   1.000  C
  C470     1.0000 0.62900  0.34500  0.29400  Biso   1.000  C
  C471     1.0000 0.67400  0.34400  0.33400  Biso   1.000  C
  O48      1.0000 0.27100  0.06900  0.18600  Biso   1.000  O
  O49      1.0000 0.90000  0.16100  0.18900  Biso   1.000  O
  C472     1.0000 0.74400  0.04900  0.12300  Biso   1.000  C
  C473     1.0000 0.72000  0.07600  0.16100  Biso   1.000  C
  O50      1.0000 0.04900  0.46900  0.45900  Biso   1.000  O
  O51      1.0000 0.75000  0.06200  0.20800  Biso   1.000  O
  C474     1.0000 0.32000  0.04700  0.17000  Biso   1.000  C
  Zn13     1.0000 0.65820  0.70880  0.97650  Biso   1.000  Zn
  Zn14     1.0000 0.75580  0.71730  0.06830  Biso   1.000  Zn
  Zn15     1.0000 0.80530  0.67360  0.98210  Biso   1.000  Zn
  Zn16     1.0000 0.78820  0.74360  0.47630  Biso   1.000  Zn
  Cu10     1.0000 0.12920  0.95140  0.22250  Biso   1.000  Cu
  Cu11     1.0000 0.47860  0.58300  0.17380  Biso   1.000  Cu
  Cu12     1.0000 0.17000  0.76920  0.17860  Biso   1.000  Cu
  C475     1.0000 0.30550  0.74200  0.33470  Biso   1.000  C
  C476     1.0000 0.22940  0.75550  0.26840  Biso   1.000  C
  C477     1.0000 0.23910  0.75180  0.31640  Biso   1.000  C
  C478     1.0000 0.18490  0.75720  0.34380  Biso   1.000  C
  C479     1.0000 0.12090  0.76610  0.32310  Biso   1.000  C
  C480     1.0000 0.11120  0.76970  0.27500  Biso   1.000  C
  N37      1.0000 0.16540  0.76440  0.24760  Biso   1.000  N
  C481     1.0000 0.33740  0.73140  0.26890  Biso   1.000  C
  C482     1.0000 0.28120  0.74540  0.24240  Biso   1.000  C
  C483     1.0000 0.33660  0.73150  0.31950  Biso   1.000  C
  N38      1.0000 0.07760  0.99210  0.24820  Biso   1.000  N
  N39      1.0000 0.03200  0.93780  0.20290  Biso   1.000  N
  C484     1.0000 0.88400  0.91850  0.19900  Biso   1.000  C
  C485     1.0000 0.94700  0.89950  0.16990  Biso   1.000  C
  C486     1.0000 0.01560  0.91120  0.17840  Biso   1.000  C
  C487     1.0000 0.09450  0.01910  0.27980  Biso   1.000  C
  C488     1.0000 0.05880  0.03820  0.30930  Biso   1.000  C
  C489     1.0000 0.06770  0.88870  0.15520  Biso   1.000  C
  C490     1.0000 0.98580  0.02500  0.32080  Biso   1.000  C
  C491     1.0000 0.97840  0.96200  0.22340  Biso   1.000  C
  C492     1.0000 0.91770  0.94570  0.22850  Biso   1.000  C
  C493     1.0000 0.87640  0.96480  0.26510  Biso   1.000  C
  C494     1.0000 0.00580  0.98930  0.24900  Biso   1.000  C
  C495     1.0000 0.97000  0.00470  0.28340  Biso   1.000  C
  C496     1.0000 0.89380  0.98870  0.27860  Biso   1.000  C
  C497     1.0000 0.43870  0.50140  0.16260  Biso   1.000  C
  C498     1.0000 0.42820  0.47230  0.18720  Biso   1.000  C
  C499     1.0000 0.43550  0.47210  0.23120  Biso   1.000  C
  C500     1.0000 0.46510  0.49270  0.31240  Biso   1.000  C
  C501     1.0000 0.46250  0.52890  0.23150  Biso   1.000  C
  C502     1.0000 0.49200  0.52530  0.33890  Biso   1.000  C
  C503     1.0000 0.95780  0.78090  0.40940  Biso   1.000  C
  C504     1.0000 0.97850  0.74750  0.39650  Biso   1.000  C
  C505     1.0000 0.66990  0.73300  0.41360  Biso   1.000  C
  C506     1.0000 0.03740  0.74480  0.36730  Biso   1.000  C
  C507     1.0000 0.07180  0.77440  0.35310  Biso   1.000  C
  C508     1.0000 0.05120  0.80780  0.36600  Biso   1.000  C
  C509     1.0000 0.99610  0.81160  0.39300  Biso   1.000  C
  C510     1.0000 0.60370  0.71300  0.06740  Biso   1.000  C
  C511     1.0000 0.16780  0.15800  0.42200  Biso   1.000  C
  C512     1.0000 0.82860  0.78350  0.06580  Biso   1.000  C
  C513     1.0000 0.89700  0.78370  0.43490  Biso   1.000  C
  C514     1.0000 0.32900  0.35580  0.07660  Biso   1.000  C
  C515     1.0000 0.35020  0.38770  0.10130  Biso   1.000  C
  C516     1.0000 0.41280  0.38400  0.12690  Biso   1.000  C
  C517     1.0000 0.43850  0.41140  0.15510  Biso   1.000  C
  C518     1.0000 0.40170  0.44250  0.15760  Biso   1.000  C
  C519     1.0000 0.33910  0.44620  0.13200  Biso   1.000  C
  C520     1.0000 0.31340  0.41880  0.10390  Biso   1.000  C
  C521     1.0000 0.13750  0.12640  0.39100  Biso   1.000  C
  C522     1.0000 0.12430  0.13080  0.34320  Biso   1.000  C
  C523     1.0000 0.10360  0.10220  0.31540  Biso   1.000  C
  C524     1.0000 0.09600  0.06930  0.33530  Biso   1.000  C
  C525     1.0000 0.10920  0.06490  0.38310  Biso   1.000  C
  C526     1.0000 0.13000  0.09340  0.41090  Biso   1.000  C
  C527     1.0000 0.86310  0.81160  0.09810  Biso   1.000  C
  C528     1.0000 0.86440  0.81270  0.14630  Biso   1.000  C
  C529     1.0000 0.88580  0.84310  0.17010  Biso   1.000  C
  C530     1.0000 0.90580  0.87230  0.14560  Biso   1.000  C
  C531     1.0000 0.90440  0.87120  0.09740  Biso   1.000  C
  C532     1.0000 0.88310  0.84080  0.07360  Biso   1.000  C
  C533     1.0000 0.27270  0.94540  0.20090  Biso   1.000  C
  C534     1.0000 0.27420  0.93830  0.25030  Biso   1.000  C
  C535     1.0000 0.21080  0.93280  0.31500  Biso   1.000  C
  C536     1.0000 0.27100  0.92990  0.34380  Biso   1.000  C
  C537     1.0000 0.33280  0.92880  0.32490  Biso   1.000  C
  C538     1.0000 0.33530  0.93330  0.27640  Biso   1.000  C
  C539     1.0000 0.39850  0.93180  0.25410  Biso   1.000  C
  C540     1.0000 0.39760  0.93580  0.20790  Biso   1.000  C
  C541     1.0000 0.33600  0.94290  0.17920  Biso   1.000  C
  C542     1.0000 0.33040  0.94720  0.13050  Biso   1.000  C
  C543     1.0000 0.26870  0.95430  0.10720  Biso   1.000  C
  C544     1.0000 0.21000  0.95710  0.13150  Biso   1.000  C
  C545     1.0000 0.52670  0.60930  0.08920  Biso   1.000  C
  C546     1.0000 0.45290  0.60660  0.08480  Biso   1.000  C
  C547     1.0000 0.35480  0.59360  0.12200  Biso   1.000  C
  C548     1.0000 0.41620  0.61580  0.04390  Biso   1.000  C
  C549     1.0000 0.31440  0.60470  0.08270  Biso   1.000  C
  C550     1.0000 0.34420  0.61450  0.04320  Biso   1.000  C
  C551     1.0000 0.45070  0.62520  0.00330  Biso   1.000  C
  C552     1.0000 0.51900  0.62560  0.00590  Biso   1.000  C
  C553     1.0000 0.66530  0.61020  0.09610  Biso   1.000  C
  C554     1.0000 0.62810  0.60290  0.13440  Biso   1.000  C
  C555     1.0000 0.63210  0.61740  0.05370  Biso   1.000  C
  C556     1.0000 0.56020  0.61790  0.04810  Biso   1.000  C
  C557     1.0000 0.54760  0.71740  0.09680  Biso   1.000  C
  C558     1.0000 0.48500  0.70340  0.08000  Biso   1.000  C
  C559     1.0000 0.42960  0.70500  0.10710  Biso   1.000  C
  C560     1.0000 0.43680  0.72050  0.15090  Biso   1.000  C
  C561     1.0000 0.49930  0.73440  0.16760  Biso   1.000  C
  C562     1.0000 0.55480  0.73290  0.14060  Biso   1.000  C
  C563     1.0000 0.62850  0.69450  0.39810  Biso   1.000  C
  C564     1.0000 0.55910  0.69770  0.38520  Biso   1.000  C
  C565     1.0000 0.52560  0.67180  0.35790  Biso   1.000  C
  C566     1.0000 0.56140  0.64280  0.34370  Biso   1.000  C
  C567     1.0000 0.63080  0.63960  0.35650  Biso   1.000  C
  C568     1.0000 0.66440  0.66550  0.38380  Biso   1.000  C
  C569     1.0000 0.52210  0.64940  0.23800  Biso   1.000  C
  C570     1.0000 0.51930  0.62270  0.27360  Biso   1.000  C
  C571     1.0000 0.53210  0.61610  0.32090  Biso   1.000  C
  C572     1.0000 0.52330  0.58240  0.33810  Biso   1.000  C
  C573     1.0000 0.50160  0.55530  0.30800  Biso   1.000  C
  C574     1.0000 0.48950  0.56190  0.26160  Biso   1.000  C
  C575     1.0000 0.31210  0.74250  0.16350  Biso   1.000  C
  C576     1.0000 0.38050  0.73370  0.18070  Biso   1.000  C
  C577     1.0000 0.40230  0.73180  0.22710  Biso   1.000  C
  C578     1.0000 0.05350  0.78550  0.25170  Biso   1.000  C
  C579     1.0000 0.29380  0.74750  0.11620  Biso   1.000  C
  C580     1.0000 0.04940  0.72430  0.14250  Biso   1.000  C
  C581     1.0000 0.99130  0.71500  0.10480  Biso   1.000  C
  C582     1.0000 0.97890  0.73490  0.07260  Biso   1.000  C
  C583     1.0000 0.01770  0.76370  0.06470  Biso   1.000  C
  C584     1.0000 0.06900  0.77150  0.09920  Biso   1.000  C
  C585     1.0000 0.11000  0.80090  0.09490  Biso   1.000  C
  C586     1.0000 0.09980  0.82260  0.05610  Biso   1.000  C
  C587     1.0000 0.04850  0.81480  0.02160  Biso   1.000  C
  C588     1.0000 0.00750  0.78530  0.02590  Biso   1.000  C
  C589     1.0000 0.15180  0.85320  0.05460  Biso   1.000  C
  C590     1.0000 0.19940  0.85680  0.08700  Biso   1.000  C
  C591     1.0000 0.20790  0.83480  0.13340  Biso   1.000  C
  C592     1.0000 0.45790  0.49770  0.26040  Biso   1.000  C
  N40      1.0000 0.21470  0.95080  0.17080  Biso   1.000  N
  N41      1.0000 0.22930  0.93570  0.26160  Biso   1.000  N
  N42      1.0000 0.55920  0.59660  0.12440  Biso   1.000  N
  N43      1.0000 0.46510  0.52880  0.18800  Biso   1.000  N
  N44      1.0000 0.50480  0.59000  0.23530  Biso   1.000  N
  N45      1.0000 0.41620  0.60460  0.12560  Biso   1.000  N
  N46      1.0000 0.26600  0.74930  0.19100  Biso   1.000  N
  N47      1.0000 0.08650  0.75130  0.13330  Biso   1.000  N
  N48      1.0000 0.16450  0.81280  0.12860  Biso   1.000  N
  O52      1.0000 0.59850  0.70410  0.03000  Biso   1.000  O
  O53      1.0000 0.36140  0.33720  0.05660  Biso   1.000  O
  O54      1.0000 0.62000  0.75260  0.43520  Biso   1.000  O
  O55      1.0000 0.80490  0.75980  0.09030  Biso   1.000  O
  O56      1.0000 0.88150  0.81420  0.44780  Biso   1.000  O
  O57      1.0000 0.16400  0.15220  0.46000  Biso   1.000  O
  O58      1.0000 0.72170  0.72510  0.44210  Biso   1.000  O
  O59      1.0000 0.81530  0.78340  0.02390  Biso   1.000  O
  O60      1.0000 0.19250  0.18090  0.40110  Biso   1.000  O
  O61      1.0000 0.25670  0.35520  0.05600  Biso   1.000  O
  O62      1.0000 0.66600  0.71370  0.08830  Biso   1.000  O
  O63      1.0000 0.87560  0.75650  0.45150  Biso   1.000  O
  O64      1.0000 0.75040  0.71400  0.99960  Biso   1.000  O
  C593     1.0000 0.42860  0.51240  0.11390  Biso   1.000  C
  C594     1.0000 0.23100  0.58000  0.15400  Biso   1.000  C
  C595     1.0000 0.30100  0.59000  0.15300  Biso   1.000  C
  C596     1.0000 0.34500  0.58300  0.19300  Biso   1.000  C
  C597     1.0000 0.31800  0.57500  0.23500  Biso   1.000  C
  C598     1.0000 0.24900  0.56900  0.23700  Biso   1.000  C
  C599     1.0000 0.20500  0.57300  0.19600  Biso   1.000  C
  C600     1.0000 0.14300  0.92300  0.33800  Biso   1.000  C
  C601     1.0000 0.13000  0.94300  0.37700  Biso   1.000  C
  C602     1.0000 0.06000  0.94800  0.38800  Biso   1.000  C
  C603     1.0000 0.00900  0.93500  0.35900  Biso   1.000  C
  C604     1.0000 0.02200  0.91600  0.32000  Biso   1.000  C
  C605     1.0000 0.08900  0.91000  0.30900  Biso   1.000  C
  C606     1.0000 0.01200  0.97800  0.06600  Biso   1.000  C
  C607     1.0000 0.03600  0.99600  0.10600  Biso   1.000  C
  C608     1.0000 0.10200  0.98900  0.12500  Biso   1.000  C
  C609     1.0000 0.14300  0.96600  0.10500  Biso   1.000  C
  C610     1.0000 0.11900  0.94800  0.06500  Biso   1.000  C
  C611     1.0000 0.05300  0.95400  0.04500  Biso   1.000  C
  C612     1.0000 0.68000  0.57600  0.27200  Biso   1.000  C
  C613     1.0000 0.72200  0.60200  0.25200  Biso   1.000  C
  C614     1.0000 0.71100  0.60900  0.20500  Biso   1.000  C
  C615     1.0000 0.66200  0.59000  0.17800  Biso   1.000  C
  C616     1.0000 0.62400  0.56400  0.19800  Biso   1.000  C
  C617     1.0000 0.64000  0.55700  0.24500  Biso   1.000  C
  C618     1.0000 0.06200  0.70300  0.18500  Biso   1.000  C
  C619     1.0000 0.12900  0.69200  0.19600  Biso   1.000  C
  C620     1.0000 0.14700  0.67500  0.23700  Biso   1.000  C
  C621     1.0000 0.09800  0.66800  0.26800  Biso   1.000  C
  C622     1.0000 0.03000  0.67800  0.25700  Biso   1.000  C
  C623     1.0000 0.01200  0.69600  0.21600  Biso   1.000  C
  C624     1.0000 0.25600  0.84200  0.17000  Biso   1.000  C
  C625     1.0000 0.23200  0.84000  0.21400  Biso   1.000  C
  C626     1.0000 0.27700  0.84000  0.25400  Biso   1.000  C
  C627     1.0000 0.34600  0.84200  0.25000  Biso   1.000  C
  C628     1.0000 0.37100  0.84500  0.20600  Biso   1.000  C
  C629     1.0000 0.32600  0.84400  0.16600  Biso   1.000  C
  O65      1.0000 0.72900  0.56900  0.31400  Biso   1.000  O
  O66      1.0000 0.10000  0.66100  0.31100  Biso   1.000  O
  C630     1.0000 0.25600  0.54900  0.37700  Biso   1.000  C
  C631     1.0000 0.28000  0.57600  0.33900  Biso   1.000  C
  O67      1.0000 0.95100  0.96900  0.04100  Biso   1.000  O
  O68      1.0000 0.25000  0.56200  0.29200  Biso   1.000  O
  C632     1.0000 0.68000  0.54700  0.33000  Biso   1.000  C
