data_image0
_cell_length_a       26.2
_cell_length_b       17.465
_cell_length_c       17.275
_cell_angle_alpha    90
_cell_angle_beta     118.183
_cell_angle_gamma    90

_symmetry_space_group_name_H-M    "P 1"
_symmetry_int_tables_number       1

loop_
  _symmetry_equiv_pos_as_xyz
  'x, y, z'

loop_
  _atom_site_label
  _atom_site_occupancy
  _atom_site_fract_x
  _atom_site_fract_y
  _atom_site_fract_z
  _atom_site_thermal_displace_type
  _atom_site_B_iso_or_equiv
  _atom_site_type_symbol
  Co1      1.0000 0.17809  0.59423  0.23947  Biso   1.000  Co
  O1       1.0000 0.46448  0.45980  0.39810  Biso   1.000  O
  O2       1.0000 0.63522  0.46204  0.36490  Biso   1.000  O
  O3       1.0000 0.61061  0.27100  0.54090  Biso   1.000  O
  O4       1.0000 0.08820  0.60640  0.20210  Biso   1.000  O
  N1       1.0000 0.01430  0.68240  0.20560  Biso   1.000  N
  N2       1.0000 0.00920  0.51480  0.12300  Biso   1.000  N
  N3       1.0000 0.26830  0.57530  0.28040  Biso   1.000  N
  N4       1.0000 0.18950  0.71290  0.27480  Biso   1.000  N
  N5       1.0000 0.15630  0.47640  0.19990  Biso   1.000  N
  C1       1.0000 0.51740  0.43060  0.41460  Biso   1.000  C
  C2       1.0000 0.55190  0.46340  0.38280  Biso   1.000  C
  H1       1.0000 0.54040  0.50880  0.34830  Biso   1.000  H
  C3       1.0000 0.60460  0.42720  0.40330  Biso   1.000  C
  C4       1.0000 0.62300  0.36340  0.45530  Biso   1.000  C
  H2       1.0000 0.65890  0.33980  0.46870  Biso   1.000  H
  C5       1.0000 0.58770  0.33410  0.48800  Biso   1.000  C
  C6       1.0000 0.53480  0.36640  0.46810  Biso   1.000  C
  H3       1.0000 0.51100  0.34520  0.49040  Biso   1.000  H
  C7       1.0000 0.44510  0.52620  0.34590  Biso   1.000  C
  H4       1.0000 0.44690  0.51840  0.29050  Biso   1.000  H
  H5       1.0000 0.47040  0.57000  0.37740  Biso   1.000  H
  C8       1.0000 0.29820  0.52010  0.33780  Biso   1.000  C
  H6       1.0000 0.27920  0.49160  0.36360  Biso   1.000  H
  C9       1.0000 0.35510  0.50240  0.36150  Biso   1.000  C
  H7       1.0000 0.37420  0.46220  0.40220  Biso   1.000  H
  C10      1.0000 0.38400  0.54320  0.32590  Biso   1.000  C
  C11      1.0000 0.35390  0.60170  0.26870  Biso   1.000  C
  H8       1.0000 0.37220  0.63180  0.24320  Biso   1.000  H
  C12      1.0000 0.29740  0.61660  0.24850  Biso   1.000  C
  H9       1.0000 0.27810  0.65810  0.21020  Biso   1.000  H
  C13      1.0000 0.69160  0.43230  0.38910  Biso   1.000  C
  H10      1.0000 0.71300  0.42640  0.45370  Biso   1.000  H
  H11      1.0000 0.71290  0.46980  0.37220  Biso   1.000  H
  C14      1.0000 0.14820  0.76470  0.23180  Biso   1.000  C
  H12      1.0000 0.11770  0.75180  0.17540  Biso   1.000  H
  C15      1.0000 0.14760  0.83680  0.26590  Biso   1.000  C
  H13      1.0000 0.11750  0.87210  0.23290  Biso   1.000  H
  C16      1.0000 0.69060  0.35630  0.34700  Biso   1.000  C
  C17      1.0000 0.73430  0.30370  0.39090  Biso   1.000  C
  H14      1.0000 0.76560  0.31590  0.44680  Biso   1.000  H
  C18      1.0000 0.23230  0.73320  0.35300  Biso   1.000  C
  H15      1.0000 0.26270  0.69770  0.38410  Biso   1.000  H
  C19      1.0000 0.57800  0.23860  0.58040  Biso   1.000  C
  H16      1.0000 0.57720  0.27440  0.62430  Biso   1.000  H
  H17      1.0000 0.53760  0.22850  0.53510  Biso   1.000  H
  C20      1.0000 0.12740  0.43300  0.23080  Biso   1.000  C
  H18      1.0000 0.12340  0.45120  0.27950  Biso   1.000  H
  C21      1.0000 0.10330  0.36290  0.19450  Biso   1.000  C
  H19      1.0000 0.08370  0.33410  0.21920  Biso   1.000  H
  C22      1.0000 0.60720  0.16530  0.62380  Biso   1.000  C
  C23      1.0000 0.63830  0.12190  0.59340  Biso   1.000  C
  H20      1.0000 0.64330  0.13950  0.54530  Biso   1.000  H
  C24      1.0000 0.16190  0.44680  0.13320  Biso   1.000  C
  H21      1.0000 0.18360  0.47490  0.11160  Biso   1.000  H
  C25      1.0000 0.06780  0.66380  0.23910  Biso   1.000  C
  H22      1.0000 0.09500  0.68940  0.29080  Biso   1.000  H
  C26      1.0000 0.05100  0.56060  0.12530  Biso   1.000  C
  H23      1.0000 0.05660  0.56340  0.07490  Biso   1.000  H
  C27      1.0000 0.97430  0.65090  0.11650  Biso   1.000  C
  H24      1.0000 0.99360  0.65190  0.07980  Biso   1.000  H
  H25      1.0000 0.93910  0.68210  0.08910  Biso   1.000  H
  H26      1.0000 0.96410  0.59800  0.12230  Biso   1.000  H
  C28      1.0000 0.00120  0.49740  0.19840  Biso   1.000  C
  H27      1.0000 0.03460  0.51580  0.25180  Biso   1.000  H
  H28      1.0000 0.99740  0.44190  0.20240  Biso   1.000  H
  H29      1.0000 0.96600  0.52270  0.19200  Biso   1.000  H
  H30      1.0000 0.02510  0.73160  0.31340  Biso   1.000  H
  H31      1.0000 0.95950  0.73080  0.23650  Biso   1.000  H
  H32      1.0000 0.00530  0.78850  0.23150  Biso   1.000  H
  C29      1.0000 0.97140  0.47390  0.04220  Biso   1.000  C
  H33      1.0000 0.98300  0.48530  0.99720  Biso   1.000  H
  H34      1.0000 0.93130  0.49020  0.02150  Biso   1.000  H
  H35      1.0000 0.97460  0.41870  0.05380  Biso   1.000  H
  Co2      1.0000 0.67809  0.09423  0.23947  Biso   1.000  Co
  O5       1.0000 0.96448  0.95980  0.39810  Biso   1.000  O
  O6       1.0000 0.13522  0.96204  0.36490  Biso   1.000  O
  O7       1.0000 0.11061  0.77100  0.54090  Biso   1.000  O
  O8       1.0000 0.58820  0.10640  0.20210  Biso   1.000  O
  N6       1.0000 0.51430  0.18240  0.20560  Biso   1.000  N
  N7       1.0000 0.50920  0.01480  0.12300  Biso   1.000  N
  N8       1.0000 0.76830  0.07530  0.28040  Biso   1.000  N
  N9       1.0000 0.68950  0.21290  0.27480  Biso   1.000  N
  N10      1.0000 0.65630  0.97640  0.19990  Biso   1.000  N
  C30      1.0000 0.01740  0.93060  0.41460  Biso   1.000  C
  C31      1.0000 0.05190  0.96340  0.38280  Biso   1.000  C
  H36      1.0000 0.04040  0.00880  0.34830  Biso   1.000  H
  C32      1.0000 0.10460  0.92720  0.40330  Biso   1.000  C
  C33      1.0000 0.12300  0.86340  0.45530  Biso   1.000  C
  H37      1.0000 0.15890  0.83980  0.46870  Biso   1.000  H
  C34      1.0000 0.08770  0.83410  0.48800  Biso   1.000  C
  C35      1.0000 0.03480  0.86640  0.46810  Biso   1.000  C
  H38      1.0000 0.01100  0.84520  0.49040  Biso   1.000  H
  C36      1.0000 0.94510  0.02620  0.34590  Biso   1.000  C
  H39      1.0000 0.94690  0.01840  0.29050  Biso   1.000  H
  H40      1.0000 0.97040  0.07000  0.37740  Biso   1.000  H
  C37      1.0000 0.79820  0.02010  0.33780  Biso   1.000  C
  H41      1.0000 0.77920  0.99160  0.36360  Biso   1.000  H
  C38      1.0000 0.85510  0.00240  0.36150  Biso   1.000  C
  H42      1.0000 0.87420  0.96220  0.40220  Biso   1.000  H
  C39      1.0000 0.88400  0.04320  0.32590  Biso   1.000  C
  C40      1.0000 0.85390  0.10170  0.26870  Biso   1.000  C
  H43      1.0000 0.87220  0.13180  0.24320  Biso   1.000  H
  C41      1.0000 0.79740  0.11660  0.24850  Biso   1.000  C
  H44      1.0000 0.77810  0.15810  0.21020  Biso   1.000  H
  C42      1.0000 0.19160  0.93230  0.38910  Biso   1.000  C
  H45      1.0000 0.21300  0.92640  0.45370  Biso   1.000  H
  H46      1.0000 0.21290  0.96980  0.37220  Biso   1.000  H
  C43      1.0000 0.64820  0.26470  0.23180  Biso   1.000  C
  H47      1.0000 0.61770  0.25180  0.17540  Biso   1.000  H
  C44      1.0000 0.64760  0.33680  0.26590  Biso   1.000  C
  H48      1.0000 0.61750  0.37210  0.23290  Biso   1.000  H
  C45      1.0000 0.19060  0.85630  0.34700  Biso   1.000  C
  C46      1.0000 0.23430  0.80370  0.39090  Biso   1.000  C
  H49      1.0000 0.26560  0.81590  0.44680  Biso   1.000  H
  C47      1.0000 0.73230  0.23320  0.35300  Biso   1.000  C
  H50      1.0000 0.76270  0.19770  0.38410  Biso   1.000  H
  C48      1.0000 0.07800  0.73860  0.58040  Biso   1.000  C
  H51      1.0000 0.07720  0.77440  0.62430  Biso   1.000  H
  H52      1.0000 0.03760  0.72850  0.53510  Biso   1.000  H
  C49      1.0000 0.62740  0.93300  0.23080  Biso   1.000  C
  H53      1.0000 0.62340  0.95120  0.27950  Biso   1.000  H
  C50      1.0000 0.60330  0.86290  0.19450  Biso   1.000  C
  H54      1.0000 0.58370  0.83410  0.21920  Biso   1.000  H
  C51      1.0000 0.10720  0.66530  0.62380  Biso   1.000  C
  C52      1.0000 0.13830  0.62190  0.59340  Biso   1.000  C
  H55      1.0000 0.14330  0.63950  0.54530  Biso   1.000  H
  C53      1.0000 0.66190  0.94680  0.13320  Biso   1.000  C
  H56      1.0000 0.68360  0.97490  0.11160  Biso   1.000  H
  C54      1.0000 0.56780  0.16380  0.23910  Biso   1.000  C
  H57      1.0000 0.59500  0.18940  0.29080  Biso   1.000  H
  C55      1.0000 0.55100  0.06060  0.12530  Biso   1.000  C
  H58      1.0000 0.55660  0.06340  0.07490  Biso   1.000  H
  C56      1.0000 0.47430  0.15090  0.11650  Biso   1.000  C
  H59      1.0000 0.49360  0.15190  0.07980  Biso   1.000  H
  H60      1.0000 0.43910  0.18210  0.08910  Biso   1.000  H
  H61      1.0000 0.46410  0.09800  0.12230  Biso   1.000  H
  C57      1.0000 0.50120  0.99740  0.19840  Biso   1.000  C
  H62      1.0000 0.53460  0.01580  0.25180  Biso   1.000  H
  H63      1.0000 0.49740  0.94190  0.20240  Biso   1.000  H
  H64      1.0000 0.46600  0.02270  0.19200  Biso   1.000  H
  H65      1.0000 0.52510  0.23160  0.31340  Biso   1.000  H
  H66      1.0000 0.45950  0.23080  0.23650  Biso   1.000  H
  H67      1.0000 0.50530  0.28850  0.23150  Biso   1.000  H
  C58      1.0000 0.47140  0.97390  0.04220  Biso   1.000  C
  H68      1.0000 0.48300  0.98530  0.99720  Biso   1.000  H
  H69      1.0000 0.43130  0.99020  0.02150  Biso   1.000  H
  H70      1.0000 0.47460  0.91870  0.05380  Biso   1.000  H
  Co3      1.0000 0.82191  0.59423  0.26053  Biso   1.000  Co
  O9       1.0000 0.53552  0.45980  0.10190  Biso   1.000  O
  O10      1.0000 0.36478  0.46204  0.13510  Biso   1.000  O
  O11      1.0000 0.38939  0.27100  0.95910  Biso   1.000  O
  O12      1.0000 0.91180  0.60640  0.29790  Biso   1.000  O
  N11      1.0000 0.98570  0.68240  0.29440  Biso   1.000  N
  N12      1.0000 0.99080  0.51480  0.37700  Biso   1.000  N
  N13      1.0000 0.73170  0.57530  0.21960  Biso   1.000  N
  N14      1.0000 0.81050  0.71290  0.22520  Biso   1.000  N
  N15      1.0000 0.84370  0.47640  0.30010  Biso   1.000  N
  C59      1.0000 0.48260  0.43060  0.08540  Biso   1.000  C
  C60      1.0000 0.44810  0.46340  0.11720  Biso   1.000  C
  H71      1.0000 0.45960  0.50880  0.15170  Biso   1.000  H
  C61      1.0000 0.39540  0.42720  0.09670  Biso   1.000  C
  C62      1.0000 0.37700  0.36340  0.04470  Biso   1.000  C
  H72      1.0000 0.34110  0.33980  0.03130  Biso   1.000  H
  C63      1.0000 0.41230  0.33410  0.01200  Biso   1.000  C
  C64      1.0000 0.46520  0.36640  0.03190  Biso   1.000  C
  H73      1.0000 0.48900  0.34520  0.00960  Biso   1.000  H
  C65      1.0000 0.55490  0.52620  0.15410  Biso   1.000  C
  H74      1.0000 0.55310  0.51840  0.20950  Biso   1.000  H
  H75      1.0000 0.52960  0.57000  0.12260  Biso   1.000  H
  C66      1.0000 0.70180  0.52010  0.16220  Biso   1.000  C
  H76      1.0000 0.72080  0.49160  0.13640  Biso   1.000  H
  C67      1.0000 0.64490  0.50240  0.13850  Biso   1.000  C
  H77      1.0000 0.62580  0.46220  0.09780  Biso   1.000  H
  C68      1.0000 0.61600  0.54320  0.17410  Biso   1.000  C
  C69      1.0000 0.64610  0.60170  0.23130  Biso   1.000  C
  H78      1.0000 0.62780  0.63180  0.25680  Biso   1.000  H
  C70      1.0000 0.70260  0.61660  0.25150  Biso   1.000  C
  H79      1.0000 0.72190  0.65810  0.28980  Biso   1.000  H
  C71      1.0000 0.30840  0.43230  0.11090  Biso   1.000  C
  H80      1.0000 0.28700  0.42640  0.04630  Biso   1.000  H
  H81      1.0000 0.28710  0.46980  0.12780  Biso   1.000  H
  C72      1.0000 0.85180  0.76470  0.26820  Biso   1.000  C
  H82      1.0000 0.88230  0.75180  0.32460  Biso   1.000  H
  C73      1.0000 0.85240  0.83680  0.23410  Biso   1.000  C
  H83      1.0000 0.88250  0.87210  0.26710  Biso   1.000  H
  C74      1.0000 0.30940  0.35630  0.15300  Biso   1.000  C
  C75      1.0000 0.26570  0.30370  0.10910  Biso   1.000  C
  H84      1.0000 0.23440  0.31590  0.05320  Biso   1.000  H
  C76      1.0000 0.76770  0.73320  0.14700  Biso   1.000  C
  H85      1.0000 0.73730  0.69770  0.11590  Biso   1.000  H
  C77      1.0000 0.42200  0.23860  0.91960  Biso   1.000  C
  H86      1.0000 0.42280  0.27440  0.87570  Biso   1.000  H
  H87      1.0000 0.46240  0.22850  0.96490  Biso   1.000  H
  C78      1.0000 0.87260  0.43300  0.26920  Biso   1.000  C
  H88      1.0000 0.87660  0.45120  0.22050  Biso   1.000  H
  C79      1.0000 0.89670  0.36290  0.30550  Biso   1.000  C
  H89      1.0000 0.91630  0.33410  0.28080  Biso   1.000  H
  C80      1.0000 0.39280  0.16530  0.87620  Biso   1.000  C
  C81      1.0000 0.36170  0.12190  0.90660  Biso   1.000  C
  H90      1.0000 0.35670  0.13950  0.95470  Biso   1.000  H
  C82      1.0000 0.83810  0.44680  0.36680  Biso   1.000  C
  H91      1.0000 0.81640  0.47490  0.38840  Biso   1.000  H
  C83      1.0000 0.93220  0.66380  0.26090  Biso   1.000  C
  H92      1.0000 0.90500  0.68940  0.20920  Biso   1.000  H
  C84      1.0000 0.94900  0.56060  0.37470  Biso   1.000  C
  H93      1.0000 0.94340  0.56340  0.42510  Biso   1.000  H
  C85      1.0000 0.02570  0.65090  0.38350  Biso   1.000  C
  H94      1.0000 0.00640  0.65190  0.42020  Biso   1.000  H
  H95      1.0000 0.06090  0.68210  0.41090  Biso   1.000  H
  H96      1.0000 0.03590  0.59800  0.37770  Biso   1.000  H
  C86      1.0000 0.99880  0.49740  0.30160  Biso   1.000  C
  H97      1.0000 0.96540  0.51580  0.24820  Biso   1.000  H
  H98      1.0000 0.00260  0.44190  0.29760  Biso   1.000  H
  H99      1.0000 0.03400  0.52270  0.30800  Biso   1.000  H
  H100     1.0000 0.97490  0.73160  0.18660  Biso   1.000  H
  H101     1.0000 0.04050  0.73080  0.26350  Biso   1.000  H
  H102     1.0000 0.99470  0.78850  0.26850  Biso   1.000  H
  C87      1.0000 0.02860  0.47390  0.45780  Biso   1.000  C
  H103     1.0000 0.01700  0.48530  0.50280  Biso   1.000  H
  H104     1.0000 0.06870  0.49020  0.47850  Biso   1.000  H
  H105     1.0000 0.02540  0.41870  0.44620  Biso   1.000  H
  Co4      1.0000 0.32191  0.09423  0.26053  Biso   1.000  Co
  O13      1.0000 0.03552  0.95980  0.10190  Biso   1.000  O
  O14      1.0000 0.86478  0.96204  0.13510  Biso   1.000  O
  O15      1.0000 0.88939  0.77100  0.95910  Biso   1.000  O
  O16      1.0000 0.41180  0.10640  0.29790  Biso   1.000  O
  N16      1.0000 0.48570  0.18240  0.29440  Biso   1.000  N
  N17      1.0000 0.49080  0.01480  0.37700  Biso   1.000  N
  N18      1.0000 0.23170  0.07530  0.21960  Biso   1.000  N
  N19      1.0000 0.31050  0.21290  0.22520  Biso   1.000  N
  N20      1.0000 0.34370  0.97640  0.30010  Biso   1.000  N
  C88      1.0000 0.98260  0.93060  0.08540  Biso   1.000  C
  C89      1.0000 0.94810  0.96340  0.11720  Biso   1.000  C
  H106     1.0000 0.95960  0.00880  0.15170  Biso   1.000  H
  C90      1.0000 0.89540  0.92720  0.09670  Biso   1.000  C
  C91      1.0000 0.87700  0.86340  0.04470  Biso   1.000  C
  H107     1.0000 0.84110  0.83980  0.03130  Biso   1.000  H
  C92      1.0000 0.91230  0.83410  0.01200  Biso   1.000  C
  C93      1.0000 0.96520  0.86640  0.03190  Biso   1.000  C
  H108     1.0000 0.98900  0.84520  0.00960  Biso   1.000  H
  C94      1.0000 0.05490  0.02620  0.15410  Biso   1.000  C
  H109     1.0000 0.05310  0.01840  0.20950  Biso   1.000  H
  H110     1.0000 0.02960  0.07000  0.12260  Biso   1.000  H
  C95      1.0000 0.20180  0.02010  0.16220  Biso   1.000  C
  H111     1.0000 0.22080  0.99160  0.13640  Biso   1.000  H
  C96      1.0000 0.14490  0.00240  0.13850  Biso   1.000  C
  H112     1.0000 0.12580  0.96220  0.09780  Biso   1.000  H
  C97      1.0000 0.11600  0.04320  0.17410  Biso   1.000  C
  C98      1.0000 0.14610  0.10170  0.23130  Biso   1.000  C
  H113     1.0000 0.12780  0.13180  0.25680  Biso   1.000  H
  C99      1.0000 0.20260  0.11660  0.25150  Biso   1.000  C
  H114     1.0000 0.22190  0.15810  0.28980  Biso   1.000  H
  C100     1.0000 0.80840  0.93230  0.11090  Biso   1.000  C
  H115     1.0000 0.78700  0.92640  0.04630  Biso   1.000  H
  H116     1.0000 0.78710  0.96980  0.12780  Biso   1.000  H
  C101     1.0000 0.35180  0.26470  0.26820  Biso   1.000  C
  H117     1.0000 0.38230  0.25180  0.32460  Biso   1.000  H
  C102     1.0000 0.35240  0.33680  0.23410  Biso   1.000  C
  H118     1.0000 0.38250  0.37210  0.26710  Biso   1.000  H
  C103     1.0000 0.80940  0.85630  0.15300  Biso   1.000  C
  C104     1.0000 0.76570  0.80370  0.10910  Biso   1.000  C
  H119     1.0000 0.73440  0.81590  0.05320  Biso   1.000  H
  C105     1.0000 0.26770  0.23320  0.14700  Biso   1.000  C
  H120     1.0000 0.23730  0.19770  0.11590  Biso   1.000  H
  C106     1.0000 0.92200  0.73860  0.91960  Biso   1.000  C
  H121     1.0000 0.92280  0.77440  0.87570  Biso   1.000  H
  H122     1.0000 0.96240  0.72850  0.96490  Biso   1.000  H
  C107     1.0000 0.37260  0.93300  0.26920  Biso   1.000  C
  H123     1.0000 0.37660  0.95120  0.22050  Biso   1.000  H
  C108     1.0000 0.39670  0.86290  0.30550  Biso   1.000  C
  H124     1.0000 0.41630  0.83410  0.28080  Biso   1.000  H
  C109     1.0000 0.89280  0.66530  0.87620  Biso   1.000  C
  C110     1.0000 0.86170  0.62190  0.90660  Biso   1.000  C
  H125     1.0000 0.85670  0.63950  0.95470  Biso   1.000  H
  C111     1.0000 0.33810  0.94680  0.36680  Biso   1.000  C
  H126     1.0000 0.31640  0.97490  0.38840  Biso   1.000  H
  C112     1.0000 0.43220  0.16380  0.26090  Biso   1.000  C
  H127     1.0000 0.40500  0.18940  0.20920  Biso   1.000  H
  C113     1.0000 0.44900  0.06060  0.37470  Biso   1.000  C
  H128     1.0000 0.44340  0.06340  0.42510  Biso   1.000  H
  C114     1.0000 0.52570  0.15090  0.38350  Biso   1.000  C
  H129     1.0000 0.50640  0.15190  0.42020  Biso   1.000  H
  H130     1.0000 0.56090  0.18210  0.41090  Biso   1.000  H
  H131     1.0000 0.53590  0.09800  0.37770  Biso   1.000  H
  C115     1.0000 0.49880  0.99740  0.30160  Biso   1.000  C
  H132     1.0000 0.46540  0.01580  0.24820  Biso   1.000  H
  H133     1.0000 0.50260  0.94190  0.29760  Biso   1.000  H
  H134     1.0000 0.53400  0.02270  0.30800  Biso   1.000  H
  H135     1.0000 0.47490  0.23160  0.18660  Biso   1.000  H
  H136     1.0000 0.54050  0.23080  0.26350  Biso   1.000  H
  H137     1.0000 0.49470  0.28850  0.26850  Biso   1.000  H
  C116     1.0000 0.52860  0.97390  0.45780  Biso   1.000  C
  H138     1.0000 0.51700  0.98530  0.50280  Biso   1.000  H
  H139     1.0000 0.56870  0.99020  0.47850  Biso   1.000  H
  H140     1.0000 0.52540  0.91870  0.44620  Biso   1.000  H
  Co5      1.0000 0.82191  0.40577  0.76053  Biso   1.000  Co
  O17      1.0000 0.53552  0.54020  0.60190  Biso   1.000  O
  O18      1.0000 0.36478  0.53796  0.63510  Biso   1.000  O
  O19      1.0000 0.38939  0.72900  0.45910  Biso   1.000  O
  O20      1.0000 0.91180  0.39360  0.79790  Biso   1.000  O
  N21      1.0000 0.98570  0.31760  0.79440  Biso   1.000  N
  N22      1.0000 0.99080  0.48520  0.87700  Biso   1.000  N
  N23      1.0000 0.73170  0.42470  0.71960  Biso   1.000  N
  N24      1.0000 0.81050  0.28710  0.72520  Biso   1.000  N
  N25      1.0000 0.84370  0.52360  0.80010  Biso   1.000  N
  C117     1.0000 0.48260  0.56940  0.58540  Biso   1.000  C
  C118     1.0000 0.44810  0.53660  0.61720  Biso   1.000  C
  H141     1.0000 0.45960  0.49120  0.65170  Biso   1.000  H
  C119     1.0000 0.39540  0.57280  0.59670  Biso   1.000  C
  C120     1.0000 0.37700  0.63660  0.54470  Biso   1.000  C
  H142     1.0000 0.34110  0.66020  0.53130  Biso   1.000  H
  C121     1.0000 0.41230  0.66590  0.51200  Biso   1.000  C
  C122     1.0000 0.46520  0.63360  0.53190  Biso   1.000  C
  H143     1.0000 0.48900  0.65480  0.50960  Biso   1.000  H
  C123     1.0000 0.55490  0.47380  0.65410  Biso   1.000  C
  H144     1.0000 0.55310  0.48160  0.70950  Biso   1.000  H
  H145     1.0000 0.52960  0.43000  0.62260  Biso   1.000  H
  C124     1.0000 0.70180  0.47990  0.66220  Biso   1.000  C
  H146     1.0000 0.72080  0.50840  0.63640  Biso   1.000  H
  C125     1.0000 0.64490  0.49760  0.63850  Biso   1.000  C
  H147     1.0000 0.62580  0.53780  0.59780  Biso   1.000  H
  C126     1.0000 0.61600  0.45680  0.67410  Biso   1.000  C
  C127     1.0000 0.64610  0.39830  0.73130  Biso   1.000  C
  H148     1.0000 0.62780  0.36820  0.75680  Biso   1.000  H
  C128     1.0000 0.70260  0.38340  0.75150  Biso   1.000  C
  H149     1.0000 0.72190  0.34190  0.78980  Biso   1.000  H
  C129     1.0000 0.30840  0.56770  0.61090  Biso   1.000  C
  H150     1.0000 0.28700  0.57360  0.54630  Biso   1.000  H
  H151     1.0000 0.28710  0.53020  0.62780  Biso   1.000  H
  C130     1.0000 0.85180  0.23530  0.76820  Biso   1.000  C
  H152     1.0000 0.88230  0.24820  0.82460  Biso   1.000  H
  C131     1.0000 0.85240  0.16320  0.73410  Biso   1.000  C
  H153     1.0000 0.88250  0.12790  0.76710  Biso   1.000  H
  C132     1.0000 0.30940  0.64370  0.65300  Biso   1.000  C
  C133     1.0000 0.26570  0.69630  0.60910  Biso   1.000  C
  H154     1.0000 0.23440  0.68410  0.55320  Biso   1.000  H
  C134     1.0000 0.76770  0.26680  0.64700  Biso   1.000  C
  H155     1.0000 0.73730  0.30230  0.61590  Biso   1.000  H
  C135     1.0000 0.42200  0.76140  0.41960  Biso   1.000  C
  H156     1.0000 0.42280  0.72560  0.37570  Biso   1.000  H
  H157     1.0000 0.46240  0.77150  0.46490  Biso   1.000  H
  C136     1.0000 0.87260  0.56700  0.76920  Biso   1.000  C
  H158     1.0000 0.87660  0.54880  0.72050  Biso   1.000  H
  C137     1.0000 0.89670  0.63710  0.80550  Biso   1.000  C
  H159     1.0000 0.91630  0.66590  0.78080  Biso   1.000  H
  C138     1.0000 0.39280  0.83470  0.37620  Biso   1.000  C
  C139     1.0000 0.36170  0.87810  0.40660  Biso   1.000  C
  H160     1.0000 0.35670  0.86050  0.45470  Biso   1.000  H
  C140     1.0000 0.83810  0.55320  0.86680  Biso   1.000  C
  H161     1.0000 0.81640  0.52510  0.88840  Biso   1.000  H
  C141     1.0000 0.93220  0.33620  0.76090  Biso   1.000  C
  H162     1.0000 0.90500  0.31060  0.70920  Biso   1.000  H
  C142     1.0000 0.94900  0.43940  0.87470  Biso   1.000  C
  H163     1.0000 0.94340  0.43660  0.92510  Biso   1.000  H
  C143     1.0000 0.02570  0.34910  0.88350  Biso   1.000  C
  H164     1.0000 0.00640  0.34810  0.92020  Biso   1.000  H
  H165     1.0000 0.06090  0.31790  0.91090  Biso   1.000  H
  H166     1.0000 0.03590  0.40200  0.87770  Biso   1.000  H
  C144     1.0000 0.99880  0.50260  0.80160  Biso   1.000  C
  H167     1.0000 0.96540  0.48420  0.74820  Biso   1.000  H
  H168     1.0000 0.00260  0.55810  0.79760  Biso   1.000  H
  H169     1.0000 0.03400  0.47730  0.80800  Biso   1.000  H
  H170     1.0000 0.97490  0.26840  0.68660  Biso   1.000  H
  H171     1.0000 0.04050  0.26920  0.76350  Biso   1.000  H
  H172     1.0000 0.99470  0.21150  0.76850  Biso   1.000  H
  C145     1.0000 0.02860  0.52610  0.95780  Biso   1.000  C
  H173     1.0000 0.01700  0.51470  0.00280  Biso   1.000  H
  H174     1.0000 0.06870  0.50980  0.97850  Biso   1.000  H
  H175     1.0000 0.02540  0.58130  0.94620  Biso   1.000  H
  Co6      1.0000 0.32191  0.90577  0.76053  Biso   1.000  Co
  O21      1.0000 0.03552  0.04020  0.60190  Biso   1.000  O
  O22      1.0000 0.86478  0.03796  0.63510  Biso   1.000  O
  O23      1.0000 0.88939  0.22900  0.45910  Biso   1.000  O
  O24      1.0000 0.41180  0.89360  0.79790  Biso   1.000  O
  N26      1.0000 0.48570  0.81760  0.79440  Biso   1.000  N
  N27      1.0000 0.49080  0.98520  0.87700  Biso   1.000  N
  N28      1.0000 0.23170  0.92470  0.71960  Biso   1.000  N
  N29      1.0000 0.31050  0.78710  0.72520  Biso   1.000  N
  N30      1.0000 0.34370  0.02360  0.80010  Biso   1.000  N
  C146     1.0000 0.98260  0.06940  0.58540  Biso   1.000  C
  C147     1.0000 0.94810  0.03660  0.61720  Biso   1.000  C
  H176     1.0000 0.95960  0.99120  0.65170  Biso   1.000  H
  C148     1.0000 0.89540  0.07280  0.59670  Biso   1.000  C
  C149     1.0000 0.87700  0.13660  0.54470  Biso   1.000  C
  H177     1.0000 0.84110  0.16020  0.53130  Biso   1.000  H
  C150     1.0000 0.91230  0.16590  0.51200  Biso   1.000  C
  C151     1.0000 0.96520  0.13360  0.53190  Biso   1.000  C
  H178     1.0000 0.98900  0.15480  0.50960  Biso   1.000  H
  C152     1.0000 0.05490  0.97380  0.65410  Biso   1.000  C
  H179     1.0000 0.05310  0.98160  0.70950  Biso   1.000  H
  H180     1.0000 0.02960  0.93000  0.62260  Biso   1.000  H
  C153     1.0000 0.20180  0.97990  0.66220  Biso   1.000  C
  H181     1.0000 0.22080  0.00840  0.63640  Biso   1.000  H
  C154     1.0000 0.14490  0.99760  0.63850  Biso   1.000  C
  H182     1.0000 0.12580  0.03780  0.59780  Biso   1.000  H
  C155     1.0000 0.11600  0.95680  0.67410  Biso   1.000  C
  C156     1.0000 0.14610  0.89830  0.73130  Biso   1.000  C
  H183     1.0000 0.12780  0.86820  0.75680  Biso   1.000  H
  C157     1.0000 0.20260  0.88340  0.75150  Biso   1.000  C
  H184     1.0000 0.22190  0.84190  0.78980  Biso   1.000  H
  C158     1.0000 0.80840  0.06770  0.61090  Biso   1.000  C
  H185     1.0000 0.78700  0.07360  0.54630  Biso   1.000  H
  H186     1.0000 0.78710  0.03020  0.62780  Biso   1.000  H
  C159     1.0000 0.35180  0.73530  0.76820  Biso   1.000  C
  H187     1.0000 0.38230  0.74820  0.82460  Biso   1.000  H
  C160     1.0000 0.35240  0.66320  0.73410  Biso   1.000  C
  H188     1.0000 0.38250  0.62790  0.76710  Biso   1.000  H
  C161     1.0000 0.80940  0.14370  0.65300  Biso   1.000  C
  C162     1.0000 0.76570  0.19630  0.60910  Biso   1.000  C
  H189     1.0000 0.73440  0.18410  0.55320  Biso   1.000  H
  C163     1.0000 0.26770  0.76680  0.64700  Biso   1.000  C
  H190     1.0000 0.23730  0.80230  0.61590  Biso   1.000  H
  C164     1.0000 0.92200  0.26140  0.41960  Biso   1.000  C
  H191     1.0000 0.92280  0.22560  0.37570  Biso   1.000  H
  H192     1.0000 0.96240  0.27150  0.46490  Biso   1.000  H
  C165     1.0000 0.37260  0.06700  0.76920  Biso   1.000  C
  H193     1.0000 0.37660  0.04880  0.72050  Biso   1.000  H
  C166     1.0000 0.39670  0.13710  0.80550  Biso   1.000  C
  H194     1.0000 0.41630  0.16590  0.78080  Biso   1.000  H
  C167     1.0000 0.89280  0.33470  0.37620  Biso   1.000  C
  C168     1.0000 0.86170  0.37810  0.40660  Biso   1.000  C
  H195     1.0000 0.85670  0.36050  0.45470  Biso   1.000  H
  C169     1.0000 0.33810  0.05320  0.86680  Biso   1.000  C
  H196     1.0000 0.31640  0.02510  0.88840  Biso   1.000  H
  C170     1.0000 0.43220  0.83620  0.76090  Biso   1.000  C
  H197     1.0000 0.40500  0.81060  0.70920  Biso   1.000  H
  C171     1.0000 0.44900  0.93940  0.87470  Biso   1.000  C
  H198     1.0000 0.44340  0.93660  0.92510  Biso   1.000  H
  C172     1.0000 0.52570  0.84910  0.88350  Biso   1.000  C
  H199     1.0000 0.50640  0.84810  0.92020  Biso   1.000  H
  H200     1.0000 0.56090  0.81790  0.91090  Biso   1.000  H
  H201     1.0000 0.53590  0.90200  0.87770  Biso   1.000  H
  C173     1.0000 0.49880  0.00260  0.80160  Biso   1.000  C
  H202     1.0000 0.46540  0.98420  0.74820  Biso   1.000  H
  H203     1.0000 0.50260  0.05810  0.79760  Biso   1.000  H
  H204     1.0000 0.53400  0.97730  0.80800  Biso   1.000  H
  H205     1.0000 0.47490  0.76840  0.68660  Biso   1.000  H
  H206     1.0000 0.54050  0.76920  0.76350  Biso   1.000  H
  H207     1.0000 0.49470  0.71150  0.76850  Biso   1.000  H
  C174     1.0000 0.52860  0.02610  0.95780  Biso   1.000  C
  H208     1.0000 0.51700  0.01470  0.00280  Biso   1.000  H
  H209     1.0000 0.56870  0.00980  0.97850  Biso   1.000  H
  H210     1.0000 0.52540  0.08130  0.94620  Biso   1.000  H
  Co7      1.0000 0.17809  0.40577  0.73947  Biso   1.000  Co
  O25      1.0000 0.46448  0.54020  0.89810  Biso   1.000  O
  O26      1.0000 0.63522  0.53796  0.86490  Biso   1.000  O
  O27      1.0000 0.61061  0.72900  0.04090  Biso   1.000  O
  O28      1.0000 0.08820  0.39360  0.70210  Biso   1.000  O
  N31      1.0000 0.01430  0.31760  0.70560  Biso   1.000  N
  N32      1.0000 0.00920  0.48520  0.62300  Biso   1.000  N
  N33      1.0000 0.26830  0.42470  0.78040  Biso   1.000  N
  N34      1.0000 0.18950  0.28710  0.77480  Biso   1.000  N
  N35      1.0000 0.15630  0.52360  0.69990  Biso   1.000  N
  C175     1.0000 0.51740  0.56940  0.91460  Biso   1.000  C
  C176     1.0000 0.55190  0.53660  0.88280  Biso   1.000  C
  H211     1.0000 0.54040  0.49120  0.84830  Biso   1.000  H
  C177     1.0000 0.60460  0.57280  0.90330  Biso   1.000  C
  C178     1.0000 0.62300  0.63660  0.95530  Biso   1.000  C
  H212     1.0000 0.65890  0.66020  0.96870  Biso   1.000  H
  C179     1.0000 0.58770  0.66590  0.98800  Biso   1.000  C
  C180     1.0000 0.53480  0.63360  0.96810  Biso   1.000  C
  H213     1.0000 0.51100  0.65480  0.99040  Biso   1.000  H
  C181     1.0000 0.44510  0.47380  0.84590  Biso   1.000  C
  H214     1.0000 0.44690  0.48160  0.79050  Biso   1.000  H
  H215     1.0000 0.47040  0.43000  0.87740  Biso   1.000  H
  C182     1.0000 0.29820  0.47990  0.83780  Biso   1.000  C
  H216     1.0000 0.27920  0.50840  0.86360  Biso   1.000  H
  C183     1.0000 0.35510  0.49760  0.86150  Biso   1.000  C
  H217     1.0000 0.37420  0.53780  0.90220  Biso   1.000  H
  C184     1.0000 0.38400  0.45680  0.82590  Biso   1.000  C
  C185     1.0000 0.35390  0.39830  0.76870  Biso   1.000  C
  H218     1.0000 0.37220  0.36820  0.74320  Biso   1.000  H
  C186     1.0000 0.29740  0.38340  0.74850  Biso   1.000  C
  H219     1.0000 0.27810  0.34190  0.71020  Biso   1.000  H
  C187     1.0000 0.69160  0.56770  0.88910  Biso   1.000  C
  H220     1.0000 0.71300  0.57360  0.95370  Biso   1.000  H
  H221     1.0000 0.71290  0.53020  0.87220  Biso   1.000  H
  C188     1.0000 0.14820  0.23530  0.73180  Biso   1.000  C
  H222     1.0000 0.11770  0.24820  0.67540  Biso   1.000  H
  C189     1.0000 0.14760  0.16320  0.76590  Biso   1.000  C
  H223     1.0000 0.11750  0.12790  0.73290  Biso   1.000  H
  C190     1.0000 0.69060  0.64370  0.84700  Biso   1.000  C
  C191     1.0000 0.73430  0.69630  0.89090  Biso   1.000  C
  H224     1.0000 0.76560  0.68410  0.94680  Biso   1.000  H
  C192     1.0000 0.23230  0.26680  0.85300  Biso   1.000  C
  H225     1.0000 0.26270  0.30230  0.88410  Biso   1.000  H
  C193     1.0000 0.57800  0.76140  0.08040  Biso   1.000  C
  H226     1.0000 0.57720  0.72560  0.12430  Biso   1.000  H
  H227     1.0000 0.53760  0.77150  0.03510  Biso   1.000  H
  C194     1.0000 0.12740  0.56700  0.73080  Biso   1.000  C
  H228     1.0000 0.12340  0.54880  0.77950  Biso   1.000  H
  C195     1.0000 0.10330  0.63710  0.69450  Biso   1.000  C
  H229     1.0000 0.08370  0.66590  0.71920  Biso   1.000  H
  C196     1.0000 0.60720  0.83470  0.12380  Biso   1.000  C
  C197     1.0000 0.63830  0.87810  0.09340  Biso   1.000  C
  H230     1.0000 0.64330  0.86050  0.04530  Biso   1.000  H
  C198     1.0000 0.16190  0.55320  0.63320  Biso   1.000  C
  H231     1.0000 0.18360  0.52510  0.61160  Biso   1.000  H
  C199     1.0000 0.06780  0.33620  0.73910  Biso   1.000  C
  H232     1.0000 0.09500  0.31060  0.79080  Biso   1.000  H
  C200     1.0000 0.05100  0.43940  0.62530  Biso   1.000  C
  H233     1.0000 0.05660  0.43660  0.57490  Biso   1.000  H
  C201     1.0000 0.97430  0.34910  0.61650  Biso   1.000  C
  H234     1.0000 0.99360  0.34810  0.57980  Biso   1.000  H
  H235     1.0000 0.93910  0.31790  0.58910  Biso   1.000  H
  H236     1.0000 0.96410  0.40200  0.62230  Biso   1.000  H
  C202     1.0000 0.00120  0.50260  0.69840  Biso   1.000  C
  H237     1.0000 0.03460  0.48420  0.75180  Biso   1.000  H
  H238     1.0000 0.99740  0.55810  0.70240  Biso   1.000  H
  H239     1.0000 0.96600  0.47730  0.69200  Biso   1.000  H
  H240     1.0000 0.02510  0.26840  0.81340  Biso   1.000  H
  H241     1.0000 0.95950  0.26920  0.73650  Biso   1.000  H
  H242     1.0000 0.00530  0.21150  0.73150  Biso   1.000  H
  C203     1.0000 0.97140  0.52610  0.54220  Biso   1.000  C
  H243     1.0000 0.98300  0.51470  0.49720  Biso   1.000  H
  H244     1.0000 0.93130  0.50980  0.52150  Biso   1.000  H
  H245     1.0000 0.97460  0.58130  0.55380  Biso   1.000  H
  Co8      1.0000 0.67809  0.90577  0.73947  Biso   1.000  Co
  O29      1.0000 0.96448  0.04020  0.89810  Biso   1.000  O
  O30      1.0000 0.13522  0.03796  0.86490  Biso   1.000  O
  O31      1.0000 0.11061  0.22900  0.04090  Biso   1.000  O
  O32      1.0000 0.58820  0.89360  0.70210  Biso   1.000  O
  N36      1.0000 0.51430  0.81760  0.70560  Biso   1.000  N
  N37      1.0000 0.50920  0.98520  0.62300  Biso   1.000  N
  N38      1.0000 0.76830  0.92470  0.78040  Biso   1.000  N
  N39      1.0000 0.68950  0.78710  0.77480  Biso   1.000  N
  N40      1.0000 0.65630  0.02360  0.69990  Biso   1.000  N
  C204     1.0000 0.01740  0.06940  0.91460  Biso   1.000  C
  C205     1.0000 0.05190  0.03660  0.88280  Biso   1.000  C
  H246     1.0000 0.04040  0.99120  0.84830  Biso   1.000  H
  C206     1.0000 0.10460  0.07280  0.90330  Biso   1.000  C
  C207     1.0000 0.12300  0.13660  0.95530  Biso   1.000  C
  H247     1.0000 0.15890  0.16020  0.96870  Biso   1.000  H
  C208     1.0000 0.08770  0.16590  0.98800  Biso   1.000  C
  C209     1.0000 0.03480  0.13360  0.96810  Biso   1.000  C
  H248     1.0000 0.01100  0.15480  0.99040  Biso   1.000  H
  C210     1.0000 0.94510  0.97380  0.84590  Biso   1.000  C
  H249     1.0000 0.94690  0.98160  0.79050  Biso   1.000  H
  H250     1.0000 0.97040  0.93000  0.87740  Biso   1.000  H
  C211     1.0000 0.79820  0.97990  0.83780  Biso   1.000  C
  H251     1.0000 0.77920  0.00840  0.86360  Biso   1.000  H
  C212     1.0000 0.85510  0.99760  0.86150  Biso   1.000  C
  H252     1.0000 0.87420  0.03780  0.90220  Biso   1.000  H
  C213     1.0000 0.88400  0.95680  0.82590  Biso   1.000  C
  C214     1.0000 0.85390  0.89830  0.76870  Biso   1.000  C
  H253     1.0000 0.87220  0.86820  0.74320  Biso   1.000  H
  C215     1.0000 0.79740  0.88340  0.74850  Biso   1.000  C
  H254     1.0000 0.77810  0.84190  0.71020  Biso   1.000  H
  C216     1.0000 0.19160  0.06770  0.88910  Biso   1.000  C
  H255     1.0000 0.21300  0.07360  0.95370  Biso   1.000  H
  H256     1.0000 0.21290  0.03020  0.87220  Biso   1.000  H
  C217     1.0000 0.64820  0.73530  0.73180  Biso   1.000  C
  H257     1.0000 0.61770  0.74820  0.67540  Biso   1.000  H
  C218     1.0000 0.64760  0.66320  0.76590  Biso   1.000  C
  H258     1.0000 0.61750  0.62790  0.73290  Biso   1.000  H
  C219     1.0000 0.19060  0.14370  0.84700  Biso   1.000  C
  C220     1.0000 0.23430  0.19630  0.89090  Biso   1.000  C
  H259     1.0000 0.26560  0.18410  0.94680  Biso   1.000  H
  C221     1.0000 0.73230  0.76680  0.85300  Biso   1.000  C
  H260     1.0000 0.76270  0.80230  0.88410  Biso   1.000  H
  C222     1.0000 0.07800  0.26140  0.08040  Biso   1.000  C
  H261     1.0000 0.07720  0.22560  0.12430  Biso   1.000  H
  H262     1.0000 0.03760  0.27150  0.03510  Biso   1.000  H
  C223     1.0000 0.62740  0.06700  0.73080  Biso   1.000  C
  H263     1.0000 0.62340  0.04880  0.77950  Biso   1.000  H
  C224     1.0000 0.60330  0.13710  0.69450  Biso   1.000  C
  H264     1.0000 0.58370  0.16590  0.71920  Biso   1.000  H
  C225     1.0000 0.10720  0.33470  0.12380  Biso   1.000  C
  C226     1.0000 0.13830  0.37810  0.09340  Biso   1.000  C
  H265     1.0000 0.14330  0.36050  0.04530  Biso   1.000  H
  C227     1.0000 0.66190  0.05320  0.63320  Biso   1.000  C
  H266     1.0000 0.68360  0.02510  0.61160  Biso   1.000  H
  C228     1.0000 0.56780  0.83620  0.73910  Biso   1.000  C
  H267     1.0000 0.59500  0.81060  0.79080  Biso   1.000  H
  C229     1.0000 0.55100  0.93940  0.62530  Biso   1.000  C
  H268     1.0000 0.55660  0.93660  0.57490  Biso   1.000  H
  C230     1.0000 0.47430  0.84910  0.61650  Biso   1.000  C
  H269     1.0000 0.49360  0.84810  0.57980  Biso   1.000  H
  H270     1.0000 0.43910  0.81790  0.58910  Biso   1.000  H
  H271     1.0000 0.46410  0.90200  0.62230  Biso   1.000  H
  C231     1.0000 0.50120  0.00260  0.69840  Biso   1.000  C
  H272     1.0000 0.53460  0.98420  0.75180  Biso   1.000  H
  H273     1.0000 0.49740  0.05810  0.70240  Biso   1.000  H
  H274     1.0000 0.46600  0.97730  0.69200  Biso   1.000  H
  H275     1.0000 0.52510  0.76840  0.81340  Biso   1.000  H
  H276     1.0000 0.45950  0.76920  0.73650  Biso   1.000  H
  H277     1.0000 0.50530  0.71150  0.73150  Biso   1.000  H
  C232     1.0000 0.47140  0.02610  0.54220  Biso   1.000  C
  H278     1.0000 0.48300  0.01470  0.49720  Biso   1.000  H
  H279     1.0000 0.43130  0.00980  0.52150  Biso   1.000  H
  H280     1.0000 0.47460  0.08130  0.55380  Biso   1.000  H
  C233     1.0000 0.00000  0.73730  0.25000  Biso   1.000  C
  C234     1.0000 0.50000  0.23730  0.25000  Biso   1.000  C
  C235     1.0000 0.00000  0.26270  0.75000  Biso   1.000  C
  C236     1.0000 0.50000  0.76270  0.75000  Biso   1.000  C
