data_image0
_cell_length_a       40.026
_cell_length_b       40.026
_cell_length_c       40.026
_cell_angle_alpha    90
_cell_angle_beta     90
_cell_angle_gamma    90

_symmetry_space_group_name_H-M    "P 1"
_symmetry_int_tables_number       1

loop_
  _symmetry_equiv_pos_as_xyz
  'x, y, z'

loop_
  _atom_site_label
  _atom_site_occupancy
  _atom_site_fract_x
  _atom_site_fract_y
  _atom_site_fract_z
  _atom_site_thermal_displace_type
  _atom_site_B_iso_or_equiv
  _atom_site_type_symbol
  O1       1.0000 0.94430  0.75280  0.79350  Biso   1.000  O
  C1       1.0000 0.94510  0.72830  0.81620  Biso   1.000  C
  H1       1.0000 0.93310  0.70880  0.80770  Biso   1.000  H
  H2       1.0000 0.93450  0.73610  0.83690  Biso   1.000  H
  H3       1.0000 0.96840  0.72220  0.82080  Biso   1.000  H
  C2       1.0000 0.97120  0.75200  0.77300  Biso   1.000  C
  O2       1.0000 0.94430  0.25280  0.29350  Biso   1.000  O
  C3       1.0000 0.94510  0.22830  0.31620  Biso   1.000  C
  H4       1.0000 0.93310  0.20880  0.30770  Biso   1.000  H
  H5       1.0000 0.93450  0.23610  0.33690  Biso   1.000  H
  H6       1.0000 0.96840  0.22220  0.32080  Biso   1.000  H
  C4       1.0000 0.97120  0.25200  0.27300  Biso   1.000  C
  O3       1.0000 0.44430  0.75280  0.29350  Biso   1.000  O
  C5       1.0000 0.44510  0.72830  0.31620  Biso   1.000  C
  H7       1.0000 0.43310  0.70880  0.30770  Biso   1.000  H
  H8       1.0000 0.43450  0.73610  0.33690  Biso   1.000  H
  H9       1.0000 0.46840  0.72220  0.32080  Biso   1.000  H
  C6       1.0000 0.47120  0.75200  0.27300  Biso   1.000  C
  O4       1.0000 0.44430  0.25280  0.79350  Biso   1.000  O
  C7       1.0000 0.44510  0.22830  0.81620  Biso   1.000  C
  H10      1.0000 0.43310  0.20880  0.80770  Biso   1.000  H
  H11      1.0000 0.43450  0.23610  0.83690  Biso   1.000  H
  H12      1.0000 0.46840  0.22220  0.82080  Biso   1.000  H
  C8       1.0000 0.47120  0.25200  0.77300  Biso   1.000  C
  O5       1.0000 0.05570  0.24720  0.79350  Biso   1.000  O
  C9       1.0000 0.05490  0.27170  0.81620  Biso   1.000  C
  H13      1.0000 0.06690  0.29120  0.80770  Biso   1.000  H
  H14      1.0000 0.06550  0.26390  0.83690  Biso   1.000  H
  H15      1.0000 0.03160  0.27780  0.82080  Biso   1.000  H
  C10      1.0000 0.02880  0.24800  0.77300  Biso   1.000  C
  O6       1.0000 0.05570  0.74720  0.29350  Biso   1.000  O
  C11      1.0000 0.05490  0.77170  0.31620  Biso   1.000  C
  H16      1.0000 0.06690  0.79120  0.30770  Biso   1.000  H
  H17      1.0000 0.06550  0.76390  0.33690  Biso   1.000  H
  H18      1.0000 0.03160  0.77780  0.32080  Biso   1.000  H
  C12      1.0000 0.02880  0.74800  0.27300  Biso   1.000  C
  O7       1.0000 0.55570  0.24720  0.29350  Biso   1.000  O
  C13      1.0000 0.55490  0.27170  0.31620  Biso   1.000  C
  H19      1.0000 0.56690  0.29120  0.30770  Biso   1.000  H
  H20      1.0000 0.56550  0.26390  0.33690  Biso   1.000  H
  H21      1.0000 0.53160  0.27780  0.32080  Biso   1.000  H
  C14      1.0000 0.52880  0.24800  0.27300  Biso   1.000  C
  O8       1.0000 0.55570  0.74720  0.79350  Biso   1.000  O
  C15      1.0000 0.55490  0.77170  0.81620  Biso   1.000  C
  H22      1.0000 0.56690  0.79120  0.80770  Biso   1.000  H
  H23      1.0000 0.56550  0.76390  0.83690  Biso   1.000  H
  H24      1.0000 0.53160  0.77780  0.82080  Biso   1.000  H
  C16      1.0000 0.52880  0.74800  0.77300  Biso   1.000  C
  O9       1.0000 0.05570  0.75280  0.20650  Biso   1.000  O
  C17      1.0000 0.05490  0.72830  0.18380  Biso   1.000  C
  H25      1.0000 0.06690  0.70880  0.19230  Biso   1.000  H
  H26      1.0000 0.06550  0.73610  0.16310  Biso   1.000  H
  H27      1.0000 0.03160  0.72220  0.17920  Biso   1.000  H
  C18      1.0000 0.02880  0.75200  0.22700  Biso   1.000  C
  O10      1.0000 0.05570  0.25280  0.70650  Biso   1.000  O
  C19      1.0000 0.05490  0.22830  0.68380  Biso   1.000  C
  H28      1.0000 0.06690  0.20880  0.69230  Biso   1.000  H
  H29      1.0000 0.06550  0.23610  0.66310  Biso   1.000  H
  H30      1.0000 0.03160  0.22220  0.67920  Biso   1.000  H
  C20      1.0000 0.02880  0.25200  0.72700  Biso   1.000  C
  O11      1.0000 0.55570  0.75280  0.70650  Biso   1.000  O
  C21      1.0000 0.55490  0.72830  0.68380  Biso   1.000  C
  H31      1.0000 0.56690  0.70880  0.69230  Biso   1.000  H
  H32      1.0000 0.56550  0.73610  0.66310  Biso   1.000  H
  H33      1.0000 0.53160  0.72220  0.67920  Biso   1.000  H
  C22      1.0000 0.52880  0.75200  0.72700  Biso   1.000  C
  O12      1.0000 0.55570  0.25280  0.20650  Biso   1.000  O
  C23      1.0000 0.55490  0.22830  0.18380  Biso   1.000  C
  H34      1.0000 0.56690  0.20880  0.19230  Biso   1.000  H
  H35      1.0000 0.56550  0.23610  0.16310  Biso   1.000  H
  H36      1.0000 0.53160  0.22220  0.17920  Biso   1.000  H
  C24      1.0000 0.52880  0.25200  0.22700  Biso   1.000  C
  O13      1.0000 0.94430  0.24720  0.20650  Biso   1.000  O
  C25      1.0000 0.94510  0.27170  0.18380  Biso   1.000  C
  H37      1.0000 0.93310  0.29120  0.19230  Biso   1.000  H
  H38      1.0000 0.93450  0.26390  0.16310  Biso   1.000  H
  H39      1.0000 0.96840  0.27780  0.17920  Biso   1.000  H
  C26      1.0000 0.97120  0.24800  0.22700  Biso   1.000  C
  O14      1.0000 0.94430  0.74720  0.70650  Biso   1.000  O
  C27      1.0000 0.94510  0.77170  0.68380  Biso   1.000  C
  H40      1.0000 0.93310  0.79120  0.69230  Biso   1.000  H
  H41      1.0000 0.93450  0.76390  0.66310  Biso   1.000  H
  H42      1.0000 0.96840  0.77780  0.67920  Biso   1.000  H
  C28      1.0000 0.97120  0.74800  0.72700  Biso   1.000  C
  O15      1.0000 0.44430  0.24720  0.70650  Biso   1.000  O
  C29      1.0000 0.44510  0.27170  0.68380  Biso   1.000  C
  H43      1.0000 0.43310  0.29120  0.69230  Biso   1.000  H
  H44      1.0000 0.43450  0.26390  0.66310  Biso   1.000  H
  H45      1.0000 0.46840  0.27780  0.67920  Biso   1.000  H
  C30      1.0000 0.47120  0.24800  0.72700  Biso   1.000  C
  O16      1.0000 0.44430  0.74720  0.20650  Biso   1.000  O
  C31      1.0000 0.44510  0.77170  0.18380  Biso   1.000  C
  H46      1.0000 0.43310  0.79120  0.19230  Biso   1.000  H
  H47      1.0000 0.43450  0.76390  0.16310  Biso   1.000  H
  H48      1.0000 0.46840  0.77780  0.17920  Biso   1.000  H
  C32      1.0000 0.47120  0.74800  0.22700  Biso   1.000  C
  O17      1.0000 0.79350  0.94430  0.75280  Biso   1.000  O
  C33      1.0000 0.81620  0.94510  0.72830  Biso   1.000  C
  H49      1.0000 0.80770  0.93310  0.70880  Biso   1.000  H
  H50      1.0000 0.83690  0.93450  0.73610  Biso   1.000  H
  H51      1.0000 0.82080  0.96840  0.72220  Biso   1.000  H
  C34      1.0000 0.77300  0.97120  0.75200  Biso   1.000  C
  O18      1.0000 0.79350  0.44430  0.25280  Biso   1.000  O
  C35      1.0000 0.81620  0.44510  0.22830  Biso   1.000  C
  H52      1.0000 0.80770  0.43310  0.20880  Biso   1.000  H
  H53      1.0000 0.83690  0.43450  0.23610  Biso   1.000  H
  H54      1.0000 0.82080  0.46840  0.22220  Biso   1.000  H
  C36      1.0000 0.77300  0.47120  0.25200  Biso   1.000  C
  O19      1.0000 0.29350  0.94430  0.25280  Biso   1.000  O
  C37      1.0000 0.31620  0.94510  0.22830  Biso   1.000  C
  H55      1.0000 0.30770  0.93310  0.20880  Biso   1.000  H
  H56      1.0000 0.33690  0.93450  0.23610  Biso   1.000  H
  H57      1.0000 0.32080  0.96840  0.22220  Biso   1.000  H
  C38      1.0000 0.27300  0.97120  0.25200  Biso   1.000  C
  O20      1.0000 0.29350  0.44430  0.75280  Biso   1.000  O
  C39      1.0000 0.31620  0.44510  0.72830  Biso   1.000  C
  H58      1.0000 0.30770  0.43310  0.70880  Biso   1.000  H
  H59      1.0000 0.33690  0.43450  0.73610  Biso   1.000  H
  H60      1.0000 0.32080  0.46840  0.72220  Biso   1.000  H
  C40      1.0000 0.27300  0.47120  0.75200  Biso   1.000  C
  O21      1.0000 0.79350  0.05570  0.24720  Biso   1.000  O
  C41      1.0000 0.81620  0.05490  0.27170  Biso   1.000  C
  H61      1.0000 0.80770  0.06690  0.29120  Biso   1.000  H
  H62      1.0000 0.83690  0.06550  0.26390  Biso   1.000  H
  H63      1.0000 0.82080  0.03160  0.27780  Biso   1.000  H
  C42      1.0000 0.77300  0.02880  0.24800  Biso   1.000  C
  O22      1.0000 0.79350  0.55570  0.74720  Biso   1.000  O
  C43      1.0000 0.81620  0.55490  0.77170  Biso   1.000  C
  H64      1.0000 0.80770  0.56690  0.79120  Biso   1.000  H
  H65      1.0000 0.83690  0.56550  0.76390  Biso   1.000  H
  H66      1.0000 0.82080  0.53160  0.77780  Biso   1.000  H
  C44      1.0000 0.77300  0.52880  0.74800  Biso   1.000  C
  O23      1.0000 0.29350  0.05570  0.74720  Biso   1.000  O
  C45      1.0000 0.31620  0.05490  0.77170  Biso   1.000  C
  H67      1.0000 0.30770  0.06690  0.79120  Biso   1.000  H
  H68      1.0000 0.33690  0.06550  0.76390  Biso   1.000  H
  H69      1.0000 0.32080  0.03160  0.77780  Biso   1.000  H
  C46      1.0000 0.27300  0.02880  0.74800  Biso   1.000  C
  O24      1.0000 0.29350  0.55570  0.24720  Biso   1.000  O
  C47      1.0000 0.31620  0.55490  0.27170  Biso   1.000  C
  H70      1.0000 0.30770  0.56690  0.29120  Biso   1.000  H
  H71      1.0000 0.33690  0.56550  0.26390  Biso   1.000  H
  H72      1.0000 0.32080  0.53160  0.27780  Biso   1.000  H
  C48      1.0000 0.27300  0.52880  0.24800  Biso   1.000  C
  O25      1.0000 0.20650  0.05570  0.75280  Biso   1.000  O
  C49      1.0000 0.18380  0.05490  0.72830  Biso   1.000  C
  H73      1.0000 0.19230  0.06690  0.70880  Biso   1.000  H
  H74      1.0000 0.16310  0.06550  0.73610  Biso   1.000  H
  H75      1.0000 0.17920  0.03160  0.72220  Biso   1.000  H
  C50      1.0000 0.22700  0.02880  0.75200  Biso   1.000  C
  O26      1.0000 0.20650  0.55570  0.25280  Biso   1.000  O
  C51      1.0000 0.18380  0.55490  0.22830  Biso   1.000  C
  H76      1.0000 0.19230  0.56690  0.20880  Biso   1.000  H
  H77      1.0000 0.16310  0.56550  0.23610  Biso   1.000  H
  H78      1.0000 0.17920  0.53160  0.22220  Biso   1.000  H
  C52      1.0000 0.22700  0.52880  0.25200  Biso   1.000  C
  O27      1.0000 0.70650  0.05570  0.25280  Biso   1.000  O
  C53      1.0000 0.68380  0.05490  0.22830  Biso   1.000  C
  H79      1.0000 0.69230  0.06690  0.20880  Biso   1.000  H
  H80      1.0000 0.66310  0.06550  0.23610  Biso   1.000  H
  H81      1.0000 0.67920  0.03160  0.22220  Biso   1.000  H
  C54      1.0000 0.72700  0.02880  0.25200  Biso   1.000  C
  O28      1.0000 0.70650  0.55570  0.75280  Biso   1.000  O
  C55      1.0000 0.68380  0.55490  0.72830  Biso   1.000  C
  H82      1.0000 0.69230  0.56690  0.70880  Biso   1.000  H
  H83      1.0000 0.66310  0.56550  0.73610  Biso   1.000  H
  H84      1.0000 0.67920  0.53160  0.72220  Biso   1.000  H
  C56      1.0000 0.72700  0.52880  0.75200  Biso   1.000  C
  O29      1.0000 0.20650  0.94430  0.24720  Biso   1.000  O
  C57      1.0000 0.18380  0.94510  0.27170  Biso   1.000  C
  H85      1.0000 0.19230  0.93310  0.29120  Biso   1.000  H
  H86      1.0000 0.16310  0.93450  0.26390  Biso   1.000  H
  H87      1.0000 0.17920  0.96840  0.27780  Biso   1.000  H
  C58      1.0000 0.22700  0.97120  0.24800  Biso   1.000  C
  O30      1.0000 0.20650  0.44430  0.74720  Biso   1.000  O
  C59      1.0000 0.18380  0.44510  0.77170  Biso   1.000  C
  H88      1.0000 0.19230  0.43310  0.79120  Biso   1.000  H
  H89      1.0000 0.16310  0.43450  0.76390  Biso   1.000  H
  H90      1.0000 0.17920  0.46840  0.77780  Biso   1.000  H
  C60      1.0000 0.22700  0.47120  0.74800  Biso   1.000  C
  O31      1.0000 0.70650  0.94430  0.74720  Biso   1.000  O
  C61      1.0000 0.68380  0.94510  0.77170  Biso   1.000  C
  H91      1.0000 0.69230  0.93310  0.79120  Biso   1.000  H
  H92      1.0000 0.66310  0.93450  0.76390  Biso   1.000  H
  H93      1.0000 0.67920  0.96840  0.77780  Biso   1.000  H
  C62      1.0000 0.72700  0.97120  0.74800  Biso   1.000  C
  O32      1.0000 0.70650  0.44430  0.24720  Biso   1.000  O
  C63      1.0000 0.68380  0.44510  0.27170  Biso   1.000  C
  H94      1.0000 0.69230  0.43310  0.29120  Biso   1.000  H
  H95      1.0000 0.66310  0.43450  0.26390  Biso   1.000  H
  H96      1.0000 0.67920  0.46840  0.27780  Biso   1.000  H
  C64      1.0000 0.72700  0.47120  0.24800  Biso   1.000  C
  O33      1.0000 0.75280  0.79350  0.94430  Biso   1.000  O
  C65      1.0000 0.72830  0.81620  0.94510  Biso   1.000  C
  H97      1.0000 0.70880  0.80770  0.93310  Biso   1.000  H
  H98      1.0000 0.73610  0.83690  0.93450  Biso   1.000  H
  H99      1.0000 0.72220  0.82080  0.96840  Biso   1.000  H
  C66      1.0000 0.75200  0.77300  0.97120  Biso   1.000  C
  O34      1.0000 0.75280  0.29350  0.44430  Biso   1.000  O
  C67      1.0000 0.72830  0.31620  0.44510  Biso   1.000  C
  H100     1.0000 0.70880  0.30770  0.43310  Biso   1.000  H
  H101     1.0000 0.73610  0.33690  0.43450  Biso   1.000  H
  H102     1.0000 0.72220  0.32080  0.46840  Biso   1.000  H
  C68      1.0000 0.75200  0.27300  0.47120  Biso   1.000  C
  O35      1.0000 0.25280  0.79350  0.44430  Biso   1.000  O
  C69      1.0000 0.22830  0.81620  0.44510  Biso   1.000  C
  H103     1.0000 0.20880  0.80770  0.43310  Biso   1.000  H
  H104     1.0000 0.23610  0.83690  0.43450  Biso   1.000  H
  H105     1.0000 0.22220  0.82080  0.46840  Biso   1.000  H
  C70      1.0000 0.25200  0.77300  0.47120  Biso   1.000  C
  O36      1.0000 0.25280  0.29350  0.94430  Biso   1.000  O
  C71      1.0000 0.22830  0.31620  0.94510  Biso   1.000  C
  H106     1.0000 0.20880  0.30770  0.93310  Biso   1.000  H
  H107     1.0000 0.23610  0.33690  0.93450  Biso   1.000  H
  H108     1.0000 0.22220  0.32080  0.96840  Biso   1.000  H
  C72      1.0000 0.25200  0.27300  0.97120  Biso   1.000  C
  O37      1.0000 0.24720  0.79350  0.05570  Biso   1.000  O
  C73      1.0000 0.27170  0.81620  0.05490  Biso   1.000  C
  H109     1.0000 0.29120  0.80770  0.06690  Biso   1.000  H
  H110     1.0000 0.26390  0.83690  0.06550  Biso   1.000  H
  H111     1.0000 0.27780  0.82080  0.03160  Biso   1.000  H
  C74      1.0000 0.24800  0.77300  0.02880  Biso   1.000  C
  O38      1.0000 0.24720  0.29350  0.55570  Biso   1.000  O
  C75      1.0000 0.27170  0.31620  0.55490  Biso   1.000  C
  H112     1.0000 0.29120  0.30770  0.56690  Biso   1.000  H
  H113     1.0000 0.26390  0.33690  0.56550  Biso   1.000  H
  H114     1.0000 0.27780  0.32080  0.53160  Biso   1.000  H
  C76      1.0000 0.24800  0.27300  0.52880  Biso   1.000  C
  O39      1.0000 0.74720  0.79350  0.55570  Biso   1.000  O
  C77      1.0000 0.77170  0.81620  0.55490  Biso   1.000  C
  H115     1.0000 0.79120  0.80770  0.56690  Biso   1.000  H
  H116     1.0000 0.76390  0.83690  0.56550  Biso   1.000  H
  H117     1.0000 0.77780  0.82080  0.53160  Biso   1.000  H
  C78      1.0000 0.74800  0.77300  0.52880  Biso   1.000  C
  O40      1.0000 0.74720  0.29350  0.05570  Biso   1.000  O
  C79      1.0000 0.77170  0.31620  0.05490  Biso   1.000  C
  H118     1.0000 0.79120  0.30770  0.06690  Biso   1.000  H
  H119     1.0000 0.76390  0.33690  0.06550  Biso   1.000  H
  H120     1.0000 0.77780  0.32080  0.03160  Biso   1.000  H
  C80      1.0000 0.74800  0.27300  0.02880  Biso   1.000  C
  O41      1.0000 0.75280  0.20650  0.05570  Biso   1.000  O
  C81      1.0000 0.72830  0.18380  0.05490  Biso   1.000  C
  H121     1.0000 0.70880  0.19230  0.06690  Biso   1.000  H
  H122     1.0000 0.73610  0.16310  0.06550  Biso   1.000  H
  H123     1.0000 0.72220  0.17920  0.03160  Biso   1.000  H
  C82      1.0000 0.75200  0.22700  0.02880  Biso   1.000  C
  O42      1.0000 0.75280  0.70650  0.55570  Biso   1.000  O
  C83      1.0000 0.72830  0.68380  0.55490  Biso   1.000  C
  H124     1.0000 0.70880  0.69230  0.56690  Biso   1.000  H
  H125     1.0000 0.73610  0.66310  0.56550  Biso   1.000  H
  H126     1.0000 0.72220  0.67920  0.53160  Biso   1.000  H
  C84      1.0000 0.75200  0.72700  0.52880  Biso   1.000  C
  O43      1.0000 0.25280  0.20650  0.55570  Biso   1.000  O
  C85      1.0000 0.22830  0.18380  0.55490  Biso   1.000  C
  H127     1.0000 0.20880  0.19230  0.56690  Biso   1.000  H
  H128     1.0000 0.23610  0.16310  0.56550  Biso   1.000  H
  H129     1.0000 0.22220  0.17920  0.53160  Biso   1.000  H
  C86      1.0000 0.25200  0.22700  0.52880  Biso   1.000  C
  O44      1.0000 0.25280  0.70650  0.05570  Biso   1.000  O
  C87      1.0000 0.22830  0.68380  0.05490  Biso   1.000  C
  H130     1.0000 0.20880  0.69230  0.06690  Biso   1.000  H
  H131     1.0000 0.23610  0.66310  0.06550  Biso   1.000  H
  H132     1.0000 0.22220  0.67920  0.03160  Biso   1.000  H
  C88      1.0000 0.25200  0.72700  0.02880  Biso   1.000  C
  O45      1.0000 0.24720  0.20650  0.94430  Biso   1.000  O
  C89      1.0000 0.27170  0.18380  0.94510  Biso   1.000  C
  H133     1.0000 0.29120  0.19230  0.93310  Biso   1.000  H
  H134     1.0000 0.26390  0.16310  0.93450  Biso   1.000  H
  H135     1.0000 0.27780  0.17920  0.96840  Biso   1.000  H
  C90      1.0000 0.24800  0.22700  0.97120  Biso   1.000  C
  O46      1.0000 0.24720  0.70650  0.44430  Biso   1.000  O
  C91      1.0000 0.27170  0.68380  0.44510  Biso   1.000  C
  H136     1.0000 0.29120  0.69230  0.43310  Biso   1.000  H
  H137     1.0000 0.26390  0.66310  0.43450  Biso   1.000  H
  H138     1.0000 0.27780  0.67920  0.46840  Biso   1.000  H
  C92      1.0000 0.24800  0.72700  0.47120  Biso   1.000  C
  O47      1.0000 0.74720  0.20650  0.44430  Biso   1.000  O
  C93      1.0000 0.77170  0.18380  0.44510  Biso   1.000  C
  H139     1.0000 0.79120  0.19230  0.43310  Biso   1.000  H
  H140     1.0000 0.76390  0.16310  0.43450  Biso   1.000  H
  H141     1.0000 0.77780  0.17920  0.46840  Biso   1.000  H
  C94      1.0000 0.74800  0.22700  0.47120  Biso   1.000  C
  O48      1.0000 0.74720  0.70650  0.94430  Biso   1.000  O
  C95      1.0000 0.77170  0.68380  0.94510  Biso   1.000  C
  H142     1.0000 0.79120  0.69230  0.93310  Biso   1.000  H
  H143     1.0000 0.76390  0.66310  0.93450  Biso   1.000  H
  H144     1.0000 0.77780  0.67920  0.96840  Biso   1.000  H
  C96      1.0000 0.74800  0.72700  0.97120  Biso   1.000  C
  O49      1.0000 0.75280  0.94430  0.20650  Biso   1.000  O
  C97      1.0000 0.72830  0.94510  0.18380  Biso   1.000  C
  H145     1.0000 0.70880  0.93310  0.19230  Biso   1.000  H
  H146     1.0000 0.73610  0.93450  0.16310  Biso   1.000  H
  H147     1.0000 0.72220  0.96840  0.17920  Biso   1.000  H
  C98      1.0000 0.75200  0.97120  0.22700  Biso   1.000  C
  O50      1.0000 0.75280  0.44430  0.70650  Biso   1.000  O
  C99      1.0000 0.72830  0.44510  0.68380  Biso   1.000  C
  H148     1.0000 0.70880  0.43310  0.69230  Biso   1.000  H
  H149     1.0000 0.73610  0.43450  0.66310  Biso   1.000  H
  H150     1.0000 0.72220  0.46840  0.67920  Biso   1.000  H
  C100     1.0000 0.75200  0.47120  0.72700  Biso   1.000  C
  O51      1.0000 0.25280  0.94430  0.70650  Biso   1.000  O
  C101     1.0000 0.22830  0.94510  0.68380  Biso   1.000  C
  H151     1.0000 0.20880  0.93310  0.69230  Biso   1.000  H
  H152     1.0000 0.23610  0.93450  0.66310  Biso   1.000  H
  H153     1.0000 0.22220  0.96840  0.67920  Biso   1.000  H
  C102     1.0000 0.25200  0.97120  0.72700  Biso   1.000  C
  O52      1.0000 0.25280  0.44430  0.20650  Biso   1.000  O
  C103     1.0000 0.22830  0.44510  0.18380  Biso   1.000  C
  H154     1.0000 0.20880  0.43310  0.19230  Biso   1.000  H
  H155     1.0000 0.23610  0.43450  0.16310  Biso   1.000  H
  H156     1.0000 0.22220  0.46840  0.17920  Biso   1.000  H
  C104     1.0000 0.25200  0.47120  0.22700  Biso   1.000  C
  O53      1.0000 0.24720  0.05570  0.20650  Biso   1.000  O
  C105     1.0000 0.27170  0.05490  0.18380  Biso   1.000  C
  H157     1.0000 0.29120  0.06690  0.19230  Biso   1.000  H
  H158     1.0000 0.26390  0.06550  0.16310  Biso   1.000  H
  H159     1.0000 0.27780  0.03160  0.17920  Biso   1.000  H
  C106     1.0000 0.24800  0.02880  0.22700  Biso   1.000  C
  O54      1.0000 0.24720  0.55570  0.70650  Biso   1.000  O
  C107     1.0000 0.27170  0.55490  0.68380  Biso   1.000  C
  H160     1.0000 0.29120  0.56690  0.69230  Biso   1.000  H
  H161     1.0000 0.26390  0.56550  0.66310  Biso   1.000  H
  H162     1.0000 0.27780  0.53160  0.67920  Biso   1.000  H
  C108     1.0000 0.24800  0.52880  0.72700  Biso   1.000  C
  O55      1.0000 0.74720  0.05570  0.70650  Biso   1.000  O
  C109     1.0000 0.77170  0.05490  0.68380  Biso   1.000  C
  H163     1.0000 0.79120  0.06690  0.69230  Biso   1.000  H
  H164     1.0000 0.76390  0.06550  0.66310  Biso   1.000  H
  H165     1.0000 0.77780  0.03160  0.67920  Biso   1.000  H
  C110     1.0000 0.74800  0.02880  0.72700  Biso   1.000  C
  O56      1.0000 0.74720  0.55570  0.20650  Biso   1.000  O
  C111     1.0000 0.77170  0.55490  0.18380  Biso   1.000  C
  H166     1.0000 0.79120  0.56690  0.19230  Biso   1.000  H
  H167     1.0000 0.76390  0.56550  0.16310  Biso   1.000  H
  H168     1.0000 0.77780  0.53160  0.17920  Biso   1.000  H
  C112     1.0000 0.74800  0.52880  0.22700  Biso   1.000  C
  O57      1.0000 0.75280  0.05570  0.79350  Biso   1.000  O
  C113     1.0000 0.72830  0.05490  0.81620  Biso   1.000  C
  H169     1.0000 0.70880  0.06690  0.80770  Biso   1.000  H
  H170     1.0000 0.73610  0.06550  0.83690  Biso   1.000  H
  H171     1.0000 0.72220  0.03160  0.82080  Biso   1.000  H
  C114     1.0000 0.75200  0.02880  0.77300  Biso   1.000  C
  O58      1.0000 0.75280  0.55570  0.29350  Biso   1.000  O
  C115     1.0000 0.72830  0.55490  0.31620  Biso   1.000  C
  H172     1.0000 0.70880  0.56690  0.30770  Biso   1.000  H
  H173     1.0000 0.73610  0.56550  0.33690  Biso   1.000  H
  H174     1.0000 0.72220  0.53160  0.32080  Biso   1.000  H
  C116     1.0000 0.75200  0.52880  0.27300  Biso   1.000  C
  O59      1.0000 0.25280  0.05570  0.29350  Biso   1.000  O
  C117     1.0000 0.22830  0.05490  0.31620  Biso   1.000  C
  H175     1.0000 0.20880  0.06690  0.30770  Biso   1.000  H
  H176     1.0000 0.23610  0.06550  0.33690  Biso   1.000  H
  H177     1.0000 0.22220  0.03160  0.32080  Biso   1.000  H
  C118     1.0000 0.25200  0.02880  0.27300  Biso   1.000  C
  O60      1.0000 0.25280  0.55570  0.79350  Biso   1.000  O
  C119     1.0000 0.22830  0.55490  0.81620  Biso   1.000  C
  H178     1.0000 0.20880  0.56690  0.80770  Biso   1.000  H
  H179     1.0000 0.23610  0.56550  0.83690  Biso   1.000  H
  H180     1.0000 0.22220  0.53160  0.82080  Biso   1.000  H
  C120     1.0000 0.25200  0.52880  0.77300  Biso   1.000  C
  O61      1.0000 0.24720  0.94430  0.79350  Biso   1.000  O
  C121     1.0000 0.27170  0.94510  0.81620  Biso   1.000  C
  H181     1.0000 0.29120  0.93310  0.80770  Biso   1.000  H
  H182     1.0000 0.26390  0.93450  0.83690  Biso   1.000  H
  H183     1.0000 0.27780  0.96840  0.82080  Biso   1.000  H
  C122     1.0000 0.24800  0.97120  0.77300  Biso   1.000  C
  O62      1.0000 0.24720  0.44430  0.29350  Biso   1.000  O
  C123     1.0000 0.27170  0.44510  0.31620  Biso   1.000  C
  H184     1.0000 0.29120  0.43310  0.30770  Biso   1.000  H
  H185     1.0000 0.26390  0.43450  0.33690  Biso   1.000  H
  H186     1.0000 0.27780  0.46840  0.32080  Biso   1.000  H
  C124     1.0000 0.24800  0.47120  0.27300  Biso   1.000  C
  O63      1.0000 0.74720  0.94430  0.29350  Biso   1.000  O
  C125     1.0000 0.77170  0.94510  0.31620  Biso   1.000  C
  H187     1.0000 0.79120  0.93310  0.30770  Biso   1.000  H
  H188     1.0000 0.76390  0.93450  0.33690  Biso   1.000  H
  H189     1.0000 0.77780  0.96840  0.32080  Biso   1.000  H
  C126     1.0000 0.74800  0.97120  0.27300  Biso   1.000  C
  O64      1.0000 0.74720  0.44430  0.79350  Biso   1.000  O
  C127     1.0000 0.77170  0.44510  0.81620  Biso   1.000  C
  H190     1.0000 0.79120  0.43310  0.80770  Biso   1.000  H
  H191     1.0000 0.76390  0.43450  0.83690  Biso   1.000  H
  H192     1.0000 0.77780  0.46840  0.82080  Biso   1.000  H
  C128     1.0000 0.74800  0.47120  0.77300  Biso   1.000  C
  O65      1.0000 0.94430  0.79350  0.24720  Biso   1.000  O
  C129     1.0000 0.94510  0.81620  0.27170  Biso   1.000  C
  H193     1.0000 0.93310  0.80770  0.29120  Biso   1.000  H
  H194     1.0000 0.93450  0.83690  0.26390  Biso   1.000  H
  H195     1.0000 0.96840  0.82080  0.27780  Biso   1.000  H
  C130     1.0000 0.97120  0.77300  0.24800  Biso   1.000  C
  O66      1.0000 0.94430  0.29350  0.74720  Biso   1.000  O
  C131     1.0000 0.94510  0.31620  0.77170  Biso   1.000  C
  H196     1.0000 0.93310  0.30770  0.79120  Biso   1.000  H
  H197     1.0000 0.93450  0.33690  0.76390  Biso   1.000  H
  H198     1.0000 0.96840  0.32080  0.77780  Biso   1.000  H
  C132     1.0000 0.97120  0.27300  0.74800  Biso   1.000  C
  O67      1.0000 0.44430  0.79350  0.74720  Biso   1.000  O
  C133     1.0000 0.44510  0.81620  0.77170  Biso   1.000  C
  H199     1.0000 0.43310  0.80770  0.79120  Biso   1.000  H
  H200     1.0000 0.43450  0.83690  0.76390  Biso   1.000  H
  H201     1.0000 0.46840  0.82080  0.77780  Biso   1.000  H
  C134     1.0000 0.47120  0.77300  0.74800  Biso   1.000  C
  O68      1.0000 0.44430  0.29350  0.24720  Biso   1.000  O
  C135     1.0000 0.44510  0.31620  0.27170  Biso   1.000  C
  H202     1.0000 0.43310  0.30770  0.29120  Biso   1.000  H
  H203     1.0000 0.43450  0.33690  0.26390  Biso   1.000  H
  H204     1.0000 0.46840  0.32080  0.27780  Biso   1.000  H
  C136     1.0000 0.47120  0.27300  0.24800  Biso   1.000  C
  O69      1.0000 0.05570  0.79350  0.75280  Biso   1.000  O
  C137     1.0000 0.05490  0.81620  0.72830  Biso   1.000  C
  H205     1.0000 0.06690  0.80770  0.70880  Biso   1.000  H
  H206     1.0000 0.06550  0.83690  0.73610  Biso   1.000  H
  H207     1.0000 0.03160  0.82080  0.72220  Biso   1.000  H
  C138     1.0000 0.02880  0.77300  0.75200  Biso   1.000  C
  O70      1.0000 0.05570  0.29350  0.25280  Biso   1.000  O
  C139     1.0000 0.05490  0.31620  0.22830  Biso   1.000  C
  H208     1.0000 0.06690  0.30770  0.20880  Biso   1.000  H
  H209     1.0000 0.06550  0.33690  0.23610  Biso   1.000  H
  H210     1.0000 0.03160  0.32080  0.22220  Biso   1.000  H
  C140     1.0000 0.02880  0.27300  0.25200  Biso   1.000  C
  O71      1.0000 0.55570  0.79350  0.25280  Biso   1.000  O
  C141     1.0000 0.55490  0.81620  0.22830  Biso   1.000  C
  H211     1.0000 0.56690  0.80770  0.20880  Biso   1.000  H
  H212     1.0000 0.56550  0.83690  0.23610  Biso   1.000  H
  H213     1.0000 0.53160  0.82080  0.22220  Biso   1.000  H
  C142     1.0000 0.52880  0.77300  0.25200  Biso   1.000  C
  O72      1.0000 0.55570  0.29350  0.75280  Biso   1.000  O
  C143     1.0000 0.55490  0.31620  0.72830  Biso   1.000  C
  H214     1.0000 0.56690  0.30770  0.70880  Biso   1.000  H
  H215     1.0000 0.56550  0.33690  0.73610  Biso   1.000  H
  H216     1.0000 0.53160  0.32080  0.72220  Biso   1.000  H
  C144     1.0000 0.52880  0.27300  0.75200  Biso   1.000  C
  O73      1.0000 0.05570  0.20650  0.24720  Biso   1.000  O
  C145     1.0000 0.05490  0.18380  0.27170  Biso   1.000  C
  H217     1.0000 0.06690  0.19230  0.29120  Biso   1.000  H
  H218     1.0000 0.06550  0.16310  0.26390  Biso   1.000  H
  H219     1.0000 0.03160  0.17920  0.27780  Biso   1.000  H
  C146     1.0000 0.02880  0.22700  0.24800  Biso   1.000  C
  O74      1.0000 0.05570  0.70650  0.74720  Biso   1.000  O
  C147     1.0000 0.05490  0.68380  0.77170  Biso   1.000  C
  H220     1.0000 0.06690  0.69230  0.79120  Biso   1.000  H
  H221     1.0000 0.06550  0.66310  0.76390  Biso   1.000  H
  H222     1.0000 0.03160  0.67920  0.77780  Biso   1.000  H
  C148     1.0000 0.02880  0.72700  0.74800  Biso   1.000  C
  O75      1.0000 0.55570  0.20650  0.74720  Biso   1.000  O
  C149     1.0000 0.55490  0.18380  0.77170  Biso   1.000  C
  H223     1.0000 0.56690  0.19230  0.79120  Biso   1.000  H
  H224     1.0000 0.56550  0.16310  0.76390  Biso   1.000  H
  H225     1.0000 0.53160  0.17920  0.77780  Biso   1.000  H
  C150     1.0000 0.52880  0.22700  0.74800  Biso   1.000  C
  O76      1.0000 0.55570  0.70650  0.24720  Biso   1.000  O
  C151     1.0000 0.55490  0.68380  0.27170  Biso   1.000  C
  H226     1.0000 0.56690  0.69230  0.29120  Biso   1.000  H
  H227     1.0000 0.56550  0.66310  0.26390  Biso   1.000  H
  H228     1.0000 0.53160  0.67920  0.27780  Biso   1.000  H
  C152     1.0000 0.52880  0.72700  0.24800  Biso   1.000  C
  O77      1.0000 0.94430  0.20650  0.75280  Biso   1.000  O
  C153     1.0000 0.94510  0.18380  0.72830  Biso   1.000  C
  H229     1.0000 0.93310  0.19230  0.70880  Biso   1.000  H
  H230     1.0000 0.93450  0.16310  0.73610  Biso   1.000  H
  H231     1.0000 0.96840  0.17920  0.72220  Biso   1.000  H
  C154     1.0000 0.97120  0.22700  0.75200  Biso   1.000  C
  O78      1.0000 0.94430  0.70650  0.25280  Biso   1.000  O
  C155     1.0000 0.94510  0.68380  0.22830  Biso   1.000  C
  H232     1.0000 0.93310  0.69230  0.20880  Biso   1.000  H
  H233     1.0000 0.93450  0.66310  0.23610  Biso   1.000  H
  H234     1.0000 0.96840  0.67920  0.22220  Biso   1.000  H
  C156     1.0000 0.97120  0.72700  0.25200  Biso   1.000  C
  O79      1.0000 0.44430  0.20650  0.25280  Biso   1.000  O
  C157     1.0000 0.44510  0.18380  0.22830  Biso   1.000  C
  H235     1.0000 0.43310  0.19230  0.20880  Biso   1.000  H
  H236     1.0000 0.43450  0.16310  0.23610  Biso   1.000  H
  H237     1.0000 0.46840  0.17920  0.22220  Biso   1.000  H
  C158     1.0000 0.47120  0.22700  0.25200  Biso   1.000  C
  O80      1.0000 0.44430  0.70650  0.75280  Biso   1.000  O
  C159     1.0000 0.44510  0.68380  0.72830  Biso   1.000  C
  H238     1.0000 0.43310  0.69230  0.70880  Biso   1.000  H
  H239     1.0000 0.43450  0.66310  0.73610  Biso   1.000  H
  H240     1.0000 0.46840  0.67920  0.72220  Biso   1.000  H
  C160     1.0000 0.47120  0.72700  0.75200  Biso   1.000  C
  O81      1.0000 0.79350  0.75280  0.05570  Biso   1.000  O
  C161     1.0000 0.81620  0.72830  0.05490  Biso   1.000  C
  H241     1.0000 0.80770  0.70880  0.06690  Biso   1.000  H
  H242     1.0000 0.83690  0.73610  0.06550  Biso   1.000  H
  H243     1.0000 0.82080  0.72220  0.03160  Biso   1.000  H
  C162     1.0000 0.77300  0.75200  0.02880  Biso   1.000  C
  O82      1.0000 0.79350  0.25280  0.55570  Biso   1.000  O
  C163     1.0000 0.81620  0.22830  0.55490  Biso   1.000  C
  H244     1.0000 0.80770  0.20880  0.56690  Biso   1.000  H
  H245     1.0000 0.83690  0.23610  0.56550  Biso   1.000  H
  H246     1.0000 0.82080  0.22220  0.53160  Biso   1.000  H
  C164     1.0000 0.77300  0.25200  0.52880  Biso   1.000  C
  O83      1.0000 0.29350  0.75280  0.55570  Biso   1.000  O
  C165     1.0000 0.31620  0.72830  0.55490  Biso   1.000  C
  H247     1.0000 0.30770  0.70880  0.56690  Biso   1.000  H
  H248     1.0000 0.33690  0.73610  0.56550  Biso   1.000  H
  H249     1.0000 0.32080  0.72220  0.53160  Biso   1.000  H
  C166     1.0000 0.27300  0.75200  0.52880  Biso   1.000  C
  O84      1.0000 0.29350  0.25280  0.05570  Biso   1.000  O
  C167     1.0000 0.31620  0.22830  0.05490  Biso   1.000  C
  H250     1.0000 0.30770  0.20880  0.06690  Biso   1.000  H
  H251     1.0000 0.33690  0.23610  0.06550  Biso   1.000  H
  H252     1.0000 0.32080  0.22220  0.03160  Biso   1.000  H
  C168     1.0000 0.27300  0.25200  0.02880  Biso   1.000  C
  O85      1.0000 0.79350  0.24720  0.94430  Biso   1.000  O
  C169     1.0000 0.81620  0.27170  0.94510  Biso   1.000  C
  H253     1.0000 0.80770  0.29120  0.93310  Biso   1.000  H
  H254     1.0000 0.83690  0.26390  0.93450  Biso   1.000  H
  H255     1.0000 0.82080  0.27780  0.96840  Biso   1.000  H
  C170     1.0000 0.77300  0.24800  0.97120  Biso   1.000  C
  O86      1.0000 0.79350  0.74720  0.44430  Biso   1.000  O
  C171     1.0000 0.81620  0.77170  0.44510  Biso   1.000  C
  H256     1.0000 0.80770  0.79120  0.43310  Biso   1.000  H
  H257     1.0000 0.83690  0.76390  0.43450  Biso   1.000  H
  H258     1.0000 0.82080  0.77780  0.46840  Biso   1.000  H
  C172     1.0000 0.77300  0.74800  0.47120  Biso   1.000  C
  O87      1.0000 0.29350  0.24720  0.44430  Biso   1.000  O
  C173     1.0000 0.31620  0.27170  0.44510  Biso   1.000  C
  H259     1.0000 0.30770  0.29120  0.43310  Biso   1.000  H
  H260     1.0000 0.33690  0.26390  0.43450  Biso   1.000  H
  H261     1.0000 0.32080  0.27780  0.46840  Biso   1.000  H
  C174     1.0000 0.27300  0.24800  0.47120  Biso   1.000  C
  O88      1.0000 0.29350  0.74720  0.94430  Biso   1.000  O
  C175     1.0000 0.31620  0.77170  0.94510  Biso   1.000  C
  H262     1.0000 0.30770  0.79120  0.93310  Biso   1.000  H
  H263     1.0000 0.33690  0.76390  0.93450  Biso   1.000  H
  H264     1.0000 0.32080  0.77780  0.96840  Biso   1.000  H
  C176     1.0000 0.27300  0.74800  0.97120  Biso   1.000  C
  O89      1.0000 0.20650  0.75280  0.94430  Biso   1.000  O
  C177     1.0000 0.18380  0.72830  0.94510  Biso   1.000  C
  H265     1.0000 0.19230  0.70880  0.93310  Biso   1.000  H
  H266     1.0000 0.16310  0.73610  0.93450  Biso   1.000  H
  H267     1.0000 0.17920  0.72220  0.96840  Biso   1.000  H
  C178     1.0000 0.22700  0.75200  0.97120  Biso   1.000  C
  O90      1.0000 0.20650  0.25280  0.44430  Biso   1.000  O
  C179     1.0000 0.18380  0.22830  0.44510  Biso   1.000  C
  H268     1.0000 0.19230  0.20880  0.43310  Biso   1.000  H
  H269     1.0000 0.16310  0.23610  0.43450  Biso   1.000  H
  H270     1.0000 0.17920  0.22220  0.46840  Biso   1.000  H
  C180     1.0000 0.22700  0.25200  0.47120  Biso   1.000  C
  O91      1.0000 0.70650  0.75280  0.44430  Biso   1.000  O
  C181     1.0000 0.68380  0.72830  0.44510  Biso   1.000  C
  H271     1.0000 0.69230  0.70880  0.43310  Biso   1.000  H
  H272     1.0000 0.66310  0.73610  0.43450  Biso   1.000  H
  H273     1.0000 0.67920  0.72220  0.46840  Biso   1.000  H
  C182     1.0000 0.72700  0.75200  0.47120  Biso   1.000  C
  O92      1.0000 0.70650  0.25280  0.94430  Biso   1.000  O
  C183     1.0000 0.68380  0.22830  0.94510  Biso   1.000  C
  H274     1.0000 0.69230  0.20880  0.93310  Biso   1.000  H
  H275     1.0000 0.66310  0.23610  0.93450  Biso   1.000  H
  H276     1.0000 0.67920  0.22220  0.96840  Biso   1.000  H
  C184     1.0000 0.72700  0.25200  0.97120  Biso   1.000  C
  O93      1.0000 0.20650  0.24720  0.05570  Biso   1.000  O
  C185     1.0000 0.18380  0.27170  0.05490  Biso   1.000  C
  H277     1.0000 0.19230  0.29120  0.06690  Biso   1.000  H
  H278     1.0000 0.16310  0.26390  0.06550  Biso   1.000  H
  H279     1.0000 0.17920  0.27780  0.03160  Biso   1.000  H
  C186     1.0000 0.22700  0.24800  0.02880  Biso   1.000  C
  O94      1.0000 0.20650  0.74720  0.55570  Biso   1.000  O
  C187     1.0000 0.18380  0.77170  0.55490  Biso   1.000  C
  H280     1.0000 0.19230  0.79120  0.56690  Biso   1.000  H
  H281     1.0000 0.16310  0.76390  0.56550  Biso   1.000  H
  H282     1.0000 0.17920  0.77780  0.53160  Biso   1.000  H
  C188     1.0000 0.22700  0.74800  0.52880  Biso   1.000  C
  O95      1.0000 0.70650  0.24720  0.55570  Biso   1.000  O
  C189     1.0000 0.68380  0.27170  0.55490  Biso   1.000  C
  H283     1.0000 0.69230  0.29120  0.56690  Biso   1.000  H
  H284     1.0000 0.66310  0.26390  0.56550  Biso   1.000  H
  H285     1.0000 0.67920  0.27780  0.53160  Biso   1.000  H
  C190     1.0000 0.72700  0.24800  0.52880  Biso   1.000  C
  O96      1.0000 0.70650  0.74720  0.05570  Biso   1.000  O
  C191     1.0000 0.68380  0.77170  0.05490  Biso   1.000  C
  H286     1.0000 0.69230  0.79120  0.06690  Biso   1.000  H
  H287     1.0000 0.66310  0.76390  0.06550  Biso   1.000  H
  H288     1.0000 0.67920  0.77780  0.03160  Biso   1.000  H
  C192     1.0000 0.72700  0.74800  0.02880  Biso   1.000  C
  O97      1.0000 0.05570  0.24720  0.20650  Biso   1.000  O
  C193     1.0000 0.05490  0.27170  0.18380  Biso   1.000  C
  H289     1.0000 0.06690  0.29120  0.19230  Biso   1.000  H
  H290     1.0000 0.06550  0.26390  0.16310  Biso   1.000  H
  H291     1.0000 0.03160  0.27780  0.17920  Biso   1.000  H
  C194     1.0000 0.02880  0.24800  0.22700  Biso   1.000  C
  O98      1.0000 0.05570  0.74720  0.70650  Biso   1.000  O
  C195     1.0000 0.05490  0.77170  0.68380  Biso   1.000  C
  H292     1.0000 0.06690  0.79120  0.69230  Biso   1.000  H
  H293     1.0000 0.06550  0.76390  0.66310  Biso   1.000  H
  H294     1.0000 0.03160  0.77780  0.67920  Biso   1.000  H
  C196     1.0000 0.02880  0.74800  0.72700  Biso   1.000  C
  O99      1.0000 0.55570  0.24720  0.70650  Biso   1.000  O
  C197     1.0000 0.55490  0.27170  0.68380  Biso   1.000  C
  H295     1.0000 0.56690  0.29120  0.69230  Biso   1.000  H
  H296     1.0000 0.56550  0.26390  0.66310  Biso   1.000  H
  H297     1.0000 0.53160  0.27780  0.67920  Biso   1.000  H
  C198     1.0000 0.52880  0.24800  0.72700  Biso   1.000  C
  O100     1.0000 0.55570  0.74720  0.20650  Biso   1.000  O
  C199     1.0000 0.55490  0.77170  0.18380  Biso   1.000  C
  H298     1.0000 0.56690  0.79120  0.19230  Biso   1.000  H
  H299     1.0000 0.56550  0.76390  0.16310  Biso   1.000  H
  H300     1.0000 0.53160  0.77780  0.17920  Biso   1.000  H
  C200     1.0000 0.52880  0.74800  0.22700  Biso   1.000  C
  O101     1.0000 0.94430  0.75280  0.20650  Biso   1.000  O
  C201     1.0000 0.94510  0.72830  0.18380  Biso   1.000  C
  H301     1.0000 0.93310  0.70880  0.19230  Biso   1.000  H
  H302     1.0000 0.93450  0.73610  0.16310  Biso   1.000  H
  H303     1.0000 0.96840  0.72220  0.17920  Biso   1.000  H
  C202     1.0000 0.97120  0.75200  0.22700  Biso   1.000  C
  O102     1.0000 0.94430  0.25280  0.70650  Biso   1.000  O
  C203     1.0000 0.94510  0.22830  0.68380  Biso   1.000  C
  H304     1.0000 0.93310  0.20880  0.69230  Biso   1.000  H
  H305     1.0000 0.93450  0.23610  0.66310  Biso   1.000  H
  H306     1.0000 0.96840  0.22220  0.67920  Biso   1.000  H
  C204     1.0000 0.97120  0.25200  0.72700  Biso   1.000  C
  O103     1.0000 0.44430  0.75280  0.70650  Biso   1.000  O
  C205     1.0000 0.44510  0.72830  0.68380  Biso   1.000  C
  H307     1.0000 0.43310  0.70880  0.69230  Biso   1.000  H
  H308     1.0000 0.43450  0.73610  0.66310  Biso   1.000  H
  H309     1.0000 0.46840  0.72220  0.67920  Biso   1.000  H
  C206     1.0000 0.47120  0.75200  0.72700  Biso   1.000  C
  O104     1.0000 0.44430  0.25280  0.20650  Biso   1.000  O
  C207     1.0000 0.44510  0.22830  0.18380  Biso   1.000  C
  H310     1.0000 0.43310  0.20880  0.19230  Biso   1.000  H
  H311     1.0000 0.43450  0.23610  0.16310  Biso   1.000  H
  H312     1.0000 0.46840  0.22220  0.17920  Biso   1.000  H
  C208     1.0000 0.47120  0.25200  0.22700  Biso   1.000  C
  O105     1.0000 0.94430  0.24720  0.79350  Biso   1.000  O
  C209     1.0000 0.94510  0.27170  0.81620  Biso   1.000  C
  H313     1.0000 0.93310  0.29120  0.80770  Biso   1.000  H
  H314     1.0000 0.93450  0.26390  0.83690  Biso   1.000  H
  H315     1.0000 0.96840  0.27780  0.82080  Biso   1.000  H
  C210     1.0000 0.97120  0.24800  0.77300  Biso   1.000  C
  O106     1.0000 0.94430  0.74720  0.29350  Biso   1.000  O
  C211     1.0000 0.94510  0.77170  0.31620  Biso   1.000  C
  H316     1.0000 0.93310  0.79120  0.30770  Biso   1.000  H
  H317     1.0000 0.93450  0.76390  0.33690  Biso   1.000  H
  H318     1.0000 0.96840  0.77780  0.32080  Biso   1.000  H
  C212     1.0000 0.97120  0.74800  0.27300  Biso   1.000  C
  O107     1.0000 0.44430  0.24720  0.29350  Biso   1.000  O
  C213     1.0000 0.44510  0.27170  0.31620  Biso   1.000  C
  H319     1.0000 0.43310  0.29120  0.30770  Biso   1.000  H
  H320     1.0000 0.43450  0.26390  0.33690  Biso   1.000  H
  H321     1.0000 0.46840  0.27780  0.32080  Biso   1.000  H
  C214     1.0000 0.47120  0.24800  0.27300  Biso   1.000  C
  O108     1.0000 0.44430  0.74720  0.79350  Biso   1.000  O
  C215     1.0000 0.44510  0.77170  0.81620  Biso   1.000  C
  H322     1.0000 0.43310  0.79120  0.80770  Biso   1.000  H
  H323     1.0000 0.43450  0.76390  0.83690  Biso   1.000  H
  H324     1.0000 0.46840  0.77780  0.82080  Biso   1.000  H
  C216     1.0000 0.47120  0.74800  0.77300  Biso   1.000  C
  O109     1.0000 0.05570  0.75280  0.79350  Biso   1.000  O
  C217     1.0000 0.05490  0.72830  0.81620  Biso   1.000  C
  H325     1.0000 0.06690  0.70880  0.80770  Biso   1.000  H
  H326     1.0000 0.06550  0.73610  0.83690  Biso   1.000  H
  H327     1.0000 0.03160  0.72220  0.82080  Biso   1.000  H
  C218     1.0000 0.02880  0.75200  0.77300  Biso   1.000  C
  O110     1.0000 0.05570  0.25280  0.29350  Biso   1.000  O
  C219     1.0000 0.05490  0.22830  0.31620  Biso   1.000  C
  H328     1.0000 0.06690  0.20880  0.30770  Biso   1.000  H
  H329     1.0000 0.06550  0.23610  0.33690  Biso   1.000  H
  H330     1.0000 0.03160  0.22220  0.32080  Biso   1.000  H
  C220     1.0000 0.02880  0.25200  0.27300  Biso   1.000  C
  O111     1.0000 0.55570  0.75280  0.29350  Biso   1.000  O
  C221     1.0000 0.55490  0.72830  0.31620  Biso   1.000  C
  H331     1.0000 0.56690  0.70880  0.30770  Biso   1.000  H
  H332     1.0000 0.56550  0.73610  0.33690  Biso   1.000  H
  H333     1.0000 0.53160  0.72220  0.32080  Biso   1.000  H
  C222     1.0000 0.52880  0.75200  0.27300  Biso   1.000  C
  O112     1.0000 0.55570  0.25280  0.79350  Biso   1.000  O
  C223     1.0000 0.55490  0.22830  0.81620  Biso   1.000  C
  H334     1.0000 0.56690  0.20880  0.80770  Biso   1.000  H
  H335     1.0000 0.56550  0.23610  0.83690  Biso   1.000  H
  H336     1.0000 0.53160  0.22220  0.82080  Biso   1.000  H
  C224     1.0000 0.52880  0.25200  0.77300  Biso   1.000  C
  O113     1.0000 0.20650  0.05570  0.24720  Biso   1.000  O
  C225     1.0000 0.18380  0.05490  0.27170  Biso   1.000  C
  H337     1.0000 0.19230  0.06690  0.29120  Biso   1.000  H
  H338     1.0000 0.16310  0.06550  0.26390  Biso   1.000  H
  H339     1.0000 0.17920  0.03160  0.27780  Biso   1.000  H
  C226     1.0000 0.22700  0.02880  0.24800  Biso   1.000  C
  O114     1.0000 0.20650  0.55570  0.74720  Biso   1.000  O
  C227     1.0000 0.18380  0.55490  0.77170  Biso   1.000  C
  H340     1.0000 0.19230  0.56690  0.79120  Biso   1.000  H
  H341     1.0000 0.16310  0.56550  0.76390  Biso   1.000  H
  H342     1.0000 0.17920  0.53160  0.77780  Biso   1.000  H
  C228     1.0000 0.22700  0.52880  0.74800  Biso   1.000  C
  O115     1.0000 0.70650  0.05570  0.74720  Biso   1.000  O
  C229     1.0000 0.68380  0.05490  0.77170  Biso   1.000  C
  H343     1.0000 0.69230  0.06690  0.79120  Biso   1.000  H
  H344     1.0000 0.66310  0.06550  0.76390  Biso   1.000  H
  H345     1.0000 0.67920  0.03160  0.77780  Biso   1.000  H
  C230     1.0000 0.72700  0.02880  0.74800  Biso   1.000  C
  O116     1.0000 0.70650  0.55570  0.24720  Biso   1.000  O
  C231     1.0000 0.68380  0.55490  0.27170  Biso   1.000  C
  H346     1.0000 0.69230  0.56690  0.29120  Biso   1.000  H
  H347     1.0000 0.66310  0.56550  0.26390  Biso   1.000  H
  H348     1.0000 0.67920  0.53160  0.27780  Biso   1.000  H
  C232     1.0000 0.72700  0.52880  0.24800  Biso   1.000  C
  O117     1.0000 0.20650  0.94430  0.75280  Biso   1.000  O
  C233     1.0000 0.18380  0.94510  0.72830  Biso   1.000  C
  H349     1.0000 0.19230  0.93310  0.70880  Biso   1.000  H
  H350     1.0000 0.16310  0.93450  0.73610  Biso   1.000  H
  H351     1.0000 0.17920  0.96840  0.72220  Biso   1.000  H
  C234     1.0000 0.22700  0.97120  0.75200  Biso   1.000  C
  O118     1.0000 0.20650  0.44430  0.25280  Biso   1.000  O
  C235     1.0000 0.18380  0.44510  0.22830  Biso   1.000  C
  H352     1.0000 0.19230  0.43310  0.20880  Biso   1.000  H
  H353     1.0000 0.16310  0.43450  0.23610  Biso   1.000  H
  H354     1.0000 0.17920  0.46840  0.22220  Biso   1.000  H
  C236     1.0000 0.22700  0.47120  0.25200  Biso   1.000  C
  O119     1.0000 0.70650  0.94430  0.25280  Biso   1.000  O
  C237     1.0000 0.68380  0.94510  0.22830  Biso   1.000  C
  H355     1.0000 0.69230  0.93310  0.20880  Biso   1.000  H
  H356     1.0000 0.66310  0.93450  0.23610  Biso   1.000  H
  H357     1.0000 0.67920  0.96840  0.22220  Biso   1.000  H
  C238     1.0000 0.72700  0.97120  0.25200  Biso   1.000  C
  O120     1.0000 0.70650  0.44430  0.75280  Biso   1.000  O
  C239     1.0000 0.68380  0.44510  0.72830  Biso   1.000  C
  H358     1.0000 0.69230  0.43310  0.70880  Biso   1.000  H
  H359     1.0000 0.66310  0.43450  0.73610  Biso   1.000  H
  H360     1.0000 0.67920  0.46840  0.72220  Biso   1.000  H
  C240     1.0000 0.72700  0.47120  0.75200  Biso   1.000  C
  O121     1.0000 0.79350  0.94430  0.24720  Biso   1.000  O
  C241     1.0000 0.81620  0.94510  0.27170  Biso   1.000  C
  H361     1.0000 0.80770  0.93310  0.29120  Biso   1.000  H
  H362     1.0000 0.83690  0.93450  0.26390  Biso   1.000  H
  H363     1.0000 0.82080  0.96840  0.27780  Biso   1.000  H
  C242     1.0000 0.77300  0.97120  0.24800  Biso   1.000  C
  O122     1.0000 0.79350  0.44430  0.74720  Biso   1.000  O
  C243     1.0000 0.81620  0.44510  0.77170  Biso   1.000  C
  H364     1.0000 0.80770  0.43310  0.79120  Biso   1.000  H
  H365     1.0000 0.83690  0.43450  0.76390  Biso   1.000  H
  H366     1.0000 0.82080  0.46840  0.77780  Biso   1.000  H
  C244     1.0000 0.77300  0.47120  0.74800  Biso   1.000  C
  O123     1.0000 0.29350  0.94430  0.74720  Biso   1.000  O
  C245     1.0000 0.31620  0.94510  0.77170  Biso   1.000  C
  H367     1.0000 0.30770  0.93310  0.79120  Biso   1.000  H
  H368     1.0000 0.33690  0.93450  0.76390  Biso   1.000  H
  H369     1.0000 0.32080  0.96840  0.77780  Biso   1.000  H
  C246     1.0000 0.27300  0.97120  0.74800  Biso   1.000  C
  O124     1.0000 0.29350  0.44430  0.24720  Biso   1.000  O
  C247     1.0000 0.31620  0.44510  0.27170  Biso   1.000  C
  H370     1.0000 0.30770  0.43310  0.29120  Biso   1.000  H
  H371     1.0000 0.33690  0.43450  0.26390  Biso   1.000  H
  H372     1.0000 0.32080  0.46840  0.27780  Biso   1.000  H
  C248     1.0000 0.27300  0.47120  0.24800  Biso   1.000  C
  O125     1.0000 0.79350  0.05570  0.75280  Biso   1.000  O
  C249     1.0000 0.81620  0.05490  0.72830  Biso   1.000  C
  H373     1.0000 0.80770  0.06690  0.70880  Biso   1.000  H
  H374     1.0000 0.83690  0.06550  0.73610  Biso   1.000  H
  H375     1.0000 0.82080  0.03160  0.72220  Biso   1.000  H
  C250     1.0000 0.77300  0.02880  0.75200  Biso   1.000  C
  O126     1.0000 0.79350  0.55570  0.25280  Biso   1.000  O
  C251     1.0000 0.81620  0.55490  0.22830  Biso   1.000  C
  H376     1.0000 0.80770  0.56690  0.20880  Biso   1.000  H
  H377     1.0000 0.83690  0.56550  0.23610  Biso   1.000  H
  H378     1.0000 0.82080  0.53160  0.22220  Biso   1.000  H
  C252     1.0000 0.77300  0.52880  0.25200  Biso   1.000  C
  O127     1.0000 0.29350  0.05570  0.25280  Biso   1.000  O
  C253     1.0000 0.31620  0.05490  0.22830  Biso   1.000  C
  H379     1.0000 0.30770  0.06690  0.20880  Biso   1.000  H
  H380     1.0000 0.33690  0.06550  0.23610  Biso   1.000  H
  H381     1.0000 0.32080  0.03160  0.22220  Biso   1.000  H
  C254     1.0000 0.27300  0.02880  0.25200  Biso   1.000  C
  O128     1.0000 0.29350  0.55570  0.75280  Biso   1.000  O
  C255     1.0000 0.31620  0.55490  0.72830  Biso   1.000  C
  H382     1.0000 0.30770  0.56690  0.70880  Biso   1.000  H
  H383     1.0000 0.33690  0.56550  0.73610  Biso   1.000  H
  H384     1.0000 0.32080  0.53160  0.72220  Biso   1.000  H
  C256     1.0000 0.27300  0.52880  0.75200  Biso   1.000  C
  O129     1.0000 0.24720  0.20650  0.05570  Biso   1.000  O
  C257     1.0000 0.27170  0.18380  0.05490  Biso   1.000  C
  H385     1.0000 0.29120  0.19230  0.06690  Biso   1.000  H
  H386     1.0000 0.26390  0.16310  0.06550  Biso   1.000  H
  H387     1.0000 0.27780  0.17920  0.03160  Biso   1.000  H
  C258     1.0000 0.24800  0.22700  0.02880  Biso   1.000  C
  O130     1.0000 0.24720  0.70650  0.55570  Biso   1.000  O
  C259     1.0000 0.27170  0.68380  0.55490  Biso   1.000  C
  H388     1.0000 0.29120  0.69230  0.56690  Biso   1.000  H
  H389     1.0000 0.26390  0.66310  0.56550  Biso   1.000  H
  H390     1.0000 0.27780  0.67920  0.53160  Biso   1.000  H
  C260     1.0000 0.24800  0.72700  0.52880  Biso   1.000  C
  O131     1.0000 0.74720  0.20650  0.55570  Biso   1.000  O
  C261     1.0000 0.77170  0.18380  0.55490  Biso   1.000  C
  H391     1.0000 0.79120  0.19230  0.56690  Biso   1.000  H
  H392     1.0000 0.76390  0.16310  0.56550  Biso   1.000  H
  H393     1.0000 0.77780  0.17920  0.53160  Biso   1.000  H
  C262     1.0000 0.74800  0.22700  0.52880  Biso   1.000  C
  O132     1.0000 0.74720  0.70650  0.05570  Biso   1.000  O
  C263     1.0000 0.77170  0.68380  0.05490  Biso   1.000  C
  H394     1.0000 0.79120  0.69230  0.06690  Biso   1.000  H
  H395     1.0000 0.76390  0.66310  0.06550  Biso   1.000  H
  H396     1.0000 0.77780  0.67920  0.03160  Biso   1.000  H
  C264     1.0000 0.74800  0.72700  0.02880  Biso   1.000  C
  O133     1.0000 0.75280  0.20650  0.94430  Biso   1.000  O
  C265     1.0000 0.72830  0.18380  0.94510  Biso   1.000  C
  H397     1.0000 0.70880  0.19230  0.93310  Biso   1.000  H
  H398     1.0000 0.73610  0.16310  0.93450  Biso   1.000  H
  H399     1.0000 0.72220  0.17920  0.96840  Biso   1.000  H
  C266     1.0000 0.75200  0.22700  0.97120  Biso   1.000  C
  O134     1.0000 0.75280  0.70650  0.44430  Biso   1.000  O
  C267     1.0000 0.72830  0.68380  0.44510  Biso   1.000  C
  H400     1.0000 0.70880  0.69230  0.43310  Biso   1.000  H
  H401     1.0000 0.73610  0.66310  0.43450  Biso   1.000  H
  H402     1.0000 0.72220  0.67920  0.46840  Biso   1.000  H
  C268     1.0000 0.75200  0.72700  0.47120  Biso   1.000  C
  O135     1.0000 0.25280  0.20650  0.44430  Biso   1.000  O
  C269     1.0000 0.22830  0.18380  0.44510  Biso   1.000  C
  H403     1.0000 0.20880  0.19230  0.43310  Biso   1.000  H
  H404     1.0000 0.23610  0.16310  0.43450  Biso   1.000  H
  H405     1.0000 0.22220  0.17920  0.46840  Biso   1.000  H
  C270     1.0000 0.25200  0.22700  0.47120  Biso   1.000  C
  O136     1.0000 0.25280  0.70650  0.94430  Biso   1.000  O
  C271     1.0000 0.22830  0.68380  0.94510  Biso   1.000  C
  H406     1.0000 0.20880  0.69230  0.93310  Biso   1.000  H
  H407     1.0000 0.23610  0.66310  0.93450  Biso   1.000  H
  H408     1.0000 0.22220  0.67920  0.96840  Biso   1.000  H
  C272     1.0000 0.25200  0.72700  0.97120  Biso   1.000  C
  O137     1.0000 0.24720  0.79350  0.94430  Biso   1.000  O
  C273     1.0000 0.27170  0.81620  0.94510  Biso   1.000  C
  H409     1.0000 0.29120  0.80770  0.93310  Biso   1.000  H
  H410     1.0000 0.26390  0.83690  0.93450  Biso   1.000  H
  H411     1.0000 0.27780  0.82080  0.96840  Biso   1.000  H
  C274     1.0000 0.24800  0.77300  0.97120  Biso   1.000  C
  O138     1.0000 0.24720  0.29350  0.44430  Biso   1.000  O
  C275     1.0000 0.27170  0.31620  0.44510  Biso   1.000  C
  H412     1.0000 0.29120  0.30770  0.43310  Biso   1.000  H
  H413     1.0000 0.26390  0.33690  0.43450  Biso   1.000  H
  H414     1.0000 0.27780  0.32080  0.46840  Biso   1.000  H
  C276     1.0000 0.24800  0.27300  0.47120  Biso   1.000  C
  O139     1.0000 0.74720  0.79350  0.44430  Biso   1.000  O
  C277     1.0000 0.77170  0.81620  0.44510  Biso   1.000  C
  H415     1.0000 0.79120  0.80770  0.43310  Biso   1.000  H
  H416     1.0000 0.76390  0.83690  0.43450  Biso   1.000  H
  H417     1.0000 0.77780  0.82080  0.46840  Biso   1.000  H
  C278     1.0000 0.74800  0.77300  0.47120  Biso   1.000  C
  O140     1.0000 0.74720  0.29350  0.94430  Biso   1.000  O
  C279     1.0000 0.77170  0.31620  0.94510  Biso   1.000  C
  H418     1.0000 0.79120  0.30770  0.93310  Biso   1.000  H
  H419     1.0000 0.76390  0.33690  0.93450  Biso   1.000  H
  H420     1.0000 0.77780  0.32080  0.96840  Biso   1.000  H
  C280     1.0000 0.74800  0.27300  0.97120  Biso   1.000  C
  O141     1.0000 0.75280  0.79350  0.05570  Biso   1.000  O
  C281     1.0000 0.72830  0.81620  0.05490  Biso   1.000  C
  H421     1.0000 0.70880  0.80770  0.06690  Biso   1.000  H
  H422     1.0000 0.73610  0.83690  0.06550  Biso   1.000  H
  H423     1.0000 0.72220  0.82080  0.03160  Biso   1.000  H
  C282     1.0000 0.75200  0.77300  0.02880  Biso   1.000  C
  O142     1.0000 0.75280  0.29350  0.55570  Biso   1.000  O
  C283     1.0000 0.72830  0.31620  0.55490  Biso   1.000  C
  H424     1.0000 0.70880  0.30770  0.56690  Biso   1.000  H
  H425     1.0000 0.73610  0.33690  0.56550  Biso   1.000  H
  H426     1.0000 0.72220  0.32080  0.53160  Biso   1.000  H
  C284     1.0000 0.75200  0.27300  0.52880  Biso   1.000  C
  O143     1.0000 0.25280  0.79350  0.55570  Biso   1.000  O
  C285     1.0000 0.22830  0.81620  0.55490  Biso   1.000  C
  H427     1.0000 0.20880  0.80770  0.56690  Biso   1.000  H
  H428     1.0000 0.23610  0.83690  0.56550  Biso   1.000  H
  H429     1.0000 0.22220  0.82080  0.53160  Biso   1.000  H
  C286     1.0000 0.25200  0.77300  0.52880  Biso   1.000  C
  O144     1.0000 0.25280  0.29350  0.05570  Biso   1.000  O
  C287     1.0000 0.22830  0.31620  0.05490  Biso   1.000  C
  H430     1.0000 0.20880  0.30770  0.06690  Biso   1.000  H
  H431     1.0000 0.23610  0.33690  0.06550  Biso   1.000  H
  H432     1.0000 0.22220  0.32080  0.03160  Biso   1.000  H
  C288     1.0000 0.25200  0.27300  0.02880  Biso   1.000  C
  O145     1.0000 0.24720  0.05570  0.79350  Biso   1.000  O
  C289     1.0000 0.27170  0.05490  0.81620  Biso   1.000  C
  H433     1.0000 0.29120  0.06690  0.80770  Biso   1.000  H
  H434     1.0000 0.26390  0.06550  0.83690  Biso   1.000  H
  H435     1.0000 0.27780  0.03160  0.82080  Biso   1.000  H
  C290     1.0000 0.24800  0.02880  0.77300  Biso   1.000  C
  O146     1.0000 0.24720  0.55570  0.29350  Biso   1.000  O
  C291     1.0000 0.27170  0.55490  0.31620  Biso   1.000  C
  H436     1.0000 0.29120  0.56690  0.30770  Biso   1.000  H
  H437     1.0000 0.26390  0.56550  0.33690  Biso   1.000  H
  H438     1.0000 0.27780  0.53160  0.32080  Biso   1.000  H
  C292     1.0000 0.24800  0.52880  0.27300  Biso   1.000  C
  O147     1.0000 0.74720  0.05570  0.29350  Biso   1.000  O
  C293     1.0000 0.77170  0.05490  0.31620  Biso   1.000  C
  H439     1.0000 0.79120  0.06690  0.30770  Biso   1.000  H
  H440     1.0000 0.76390  0.06550  0.33690  Biso   1.000  H
  H441     1.0000 0.77780  0.03160  0.32080  Biso   1.000  H
  C294     1.0000 0.74800  0.02880  0.27300  Biso   1.000  C
  O148     1.0000 0.74720  0.55570  0.79350  Biso   1.000  O
  C295     1.0000 0.77170  0.55490  0.81620  Biso   1.000  C
  H442     1.0000 0.79120  0.56690  0.80770  Biso   1.000  H
  H443     1.0000 0.76390  0.56550  0.83690  Biso   1.000  H
  H444     1.0000 0.77780  0.53160  0.82080  Biso   1.000  H
  C296     1.0000 0.74800  0.52880  0.77300  Biso   1.000  C
  O149     1.0000 0.75280  0.94430  0.79350  Biso   1.000  O
  C297     1.0000 0.72830  0.94510  0.81620  Biso   1.000  C
  H445     1.0000 0.70880  0.93310  0.80770  Biso   1.000  H
  H446     1.0000 0.73610  0.93450  0.83690  Biso   1.000  H
  H447     1.0000 0.72220  0.96840  0.82080  Biso   1.000  H
  C298     1.0000 0.75200  0.97120  0.77300  Biso   1.000  C
  O150     1.0000 0.75280  0.44430  0.29350  Biso   1.000  O
  C299     1.0000 0.72830  0.44510  0.31620  Biso   1.000  C
  H448     1.0000 0.70880  0.43310  0.30770  Biso   1.000  H
  H449     1.0000 0.73610  0.43450  0.33690  Biso   1.000  H
  H450     1.0000 0.72220  0.46840  0.32080  Biso   1.000  H
  C300     1.0000 0.75200  0.47120  0.27300  Biso   1.000  C
  O151     1.0000 0.25280  0.94430  0.29350  Biso   1.000  O
  C301     1.0000 0.22830  0.94510  0.31620  Biso   1.000  C
  H451     1.0000 0.20880  0.93310  0.30770  Biso   1.000  H
  H452     1.0000 0.23610  0.93450  0.33690  Biso   1.000  H
  H453     1.0000 0.22220  0.96840  0.32080  Biso   1.000  H
  C302     1.0000 0.25200  0.97120  0.27300  Biso   1.000  C
  O152     1.0000 0.25280  0.44430  0.79350  Biso   1.000  O
  C303     1.0000 0.22830  0.44510  0.81620  Biso   1.000  C
  H454     1.0000 0.20880  0.43310  0.80770  Biso   1.000  H
  H455     1.0000 0.23610  0.43450  0.83690  Biso   1.000  H
  H456     1.0000 0.22220  0.46840  0.82080  Biso   1.000  H
  C304     1.0000 0.25200  0.47120  0.77300  Biso   1.000  C
  O153     1.0000 0.24720  0.94430  0.20650  Biso   1.000  O
  C305     1.0000 0.27170  0.94510  0.18380  Biso   1.000  C
  H457     1.0000 0.29120  0.93310  0.19230  Biso   1.000  H
  H458     1.0000 0.26390  0.93450  0.16310  Biso   1.000  H
  H459     1.0000 0.27780  0.96840  0.17920  Biso   1.000  H
  C306     1.0000 0.24800  0.97120  0.22700  Biso   1.000  C
  O154     1.0000 0.24720  0.44430  0.70650  Biso   1.000  O
  C307     1.0000 0.27170  0.44510  0.68380  Biso   1.000  C
  H460     1.0000 0.29120  0.43310  0.69230  Biso   1.000  H
  H461     1.0000 0.26390  0.43450  0.66310  Biso   1.000  H
  H462     1.0000 0.27780  0.46840  0.67920  Biso   1.000  H
  C308     1.0000 0.24800  0.47120  0.72700  Biso   1.000  C
  O155     1.0000 0.74720  0.94430  0.70650  Biso   1.000  O
  C309     1.0000 0.77170  0.94510  0.68380  Biso   1.000  C
  H463     1.0000 0.79120  0.93310  0.69230  Biso   1.000  H
  H464     1.0000 0.76390  0.93450  0.66310  Biso   1.000  H
  H465     1.0000 0.77780  0.96840  0.67920  Biso   1.000  H
  C310     1.0000 0.74800  0.97120  0.72700  Biso   1.000  C
  O156     1.0000 0.74720  0.44430  0.20650  Biso   1.000  O
  C311     1.0000 0.77170  0.44510  0.18380  Biso   1.000  C
  H466     1.0000 0.79120  0.43310  0.19230  Biso   1.000  H
  H467     1.0000 0.76390  0.43450  0.16310  Biso   1.000  H
  H468     1.0000 0.77780  0.46840  0.17920  Biso   1.000  H
  C312     1.0000 0.74800  0.47120  0.22700  Biso   1.000  C
  O157     1.0000 0.75280  0.05570  0.20650  Biso   1.000  O
  C313     1.0000 0.72830  0.05490  0.18380  Biso   1.000  C
  H469     1.0000 0.70880  0.06690  0.19230  Biso   1.000  H
  H470     1.0000 0.73610  0.06550  0.16310  Biso   1.000  H
  H471     1.0000 0.72220  0.03160  0.17920  Biso   1.000  H
  C314     1.0000 0.75200  0.02880  0.22700  Biso   1.000  C
  O158     1.0000 0.75280  0.55570  0.70650  Biso   1.000  O
  C315     1.0000 0.72830  0.55490  0.68380  Biso   1.000  C
  H472     1.0000 0.70880  0.56690  0.69230  Biso   1.000  H
  H473     1.0000 0.73610  0.56550  0.66310  Biso   1.000  H
  H474     1.0000 0.72220  0.53160  0.67920  Biso   1.000  H
  C316     1.0000 0.75200  0.52880  0.72700  Biso   1.000  C
  O159     1.0000 0.25280  0.05570  0.70650  Biso   1.000  O
  C317     1.0000 0.22830  0.05490  0.68380  Biso   1.000  C
  H475     1.0000 0.20880  0.06690  0.69230  Biso   1.000  H
  H476     1.0000 0.23610  0.06550  0.66310  Biso   1.000  H
  H477     1.0000 0.22220  0.03160  0.67920  Biso   1.000  H
  C318     1.0000 0.25200  0.02880  0.72700  Biso   1.000  C
  O160     1.0000 0.25280  0.55570  0.20650  Biso   1.000  O
  C319     1.0000 0.22830  0.55490  0.18380  Biso   1.000  C
  H478     1.0000 0.20880  0.56690  0.19230  Biso   1.000  H
  H479     1.0000 0.23610  0.56550  0.16310  Biso   1.000  H
  H480     1.0000 0.22220  0.53160  0.17920  Biso   1.000  H
  C320     1.0000 0.25200  0.52880  0.22700  Biso   1.000  C
  O161     1.0000 0.05570  0.20650  0.75280  Biso   1.000  O
  C321     1.0000 0.05490  0.18380  0.72830  Biso   1.000  C
  H481     1.0000 0.06690  0.19230  0.70880  Biso   1.000  H
  H482     1.0000 0.06550  0.16310  0.73610  Biso   1.000  H
  H483     1.0000 0.03160  0.17920  0.72220  Biso   1.000  H
  C322     1.0000 0.02880  0.22700  0.75200  Biso   1.000  C
  O162     1.0000 0.05570  0.70650  0.25280  Biso   1.000  O
  C323     1.0000 0.05490  0.68380  0.22830  Biso   1.000  C
  H484     1.0000 0.06690  0.69230  0.20880  Biso   1.000  H
  H485     1.0000 0.06550  0.66310  0.23610  Biso   1.000  H
  H486     1.0000 0.03160  0.67920  0.22220  Biso   1.000  H
  C324     1.0000 0.02880  0.72700  0.25200  Biso   1.000  C
  O163     1.0000 0.55570  0.20650  0.25280  Biso   1.000  O
  C325     1.0000 0.55490  0.18380  0.22830  Biso   1.000  C
  H487     1.0000 0.56690  0.19230  0.20880  Biso   1.000  H
  H488     1.0000 0.56550  0.16310  0.23610  Biso   1.000  H
  H489     1.0000 0.53160  0.17920  0.22220  Biso   1.000  H
  C326     1.0000 0.52880  0.22700  0.25200  Biso   1.000  C
  O164     1.0000 0.55570  0.70650  0.75280  Biso   1.000  O
  C327     1.0000 0.55490  0.68380  0.72830  Biso   1.000  C
  H490     1.0000 0.56690  0.69230  0.70880  Biso   1.000  H
  H491     1.0000 0.56550  0.66310  0.73610  Biso   1.000  H
  H492     1.0000 0.53160  0.67920  0.72220  Biso   1.000  H
  C328     1.0000 0.52880  0.72700  0.75200  Biso   1.000  C
  O165     1.0000 0.94430  0.20650  0.24720  Biso   1.000  O
  C329     1.0000 0.94510  0.18380  0.27170  Biso   1.000  C
  H493     1.0000 0.93310  0.19230  0.29120  Biso   1.000  H
  H494     1.0000 0.93450  0.16310  0.26390  Biso   1.000  H
  H495     1.0000 0.96840  0.17920  0.27780  Biso   1.000  H
  C330     1.0000 0.97120  0.22700  0.24800  Biso   1.000  C
  O166     1.0000 0.94430  0.70650  0.74720  Biso   1.000  O
  C331     1.0000 0.94510  0.68380  0.77170  Biso   1.000  C
  H496     1.0000 0.93310  0.69230  0.79120  Biso   1.000  H
  H497     1.0000 0.93450  0.66310  0.76390  Biso   1.000  H
  H498     1.0000 0.96840  0.67920  0.77780  Biso   1.000  H
  C332     1.0000 0.97120  0.72700  0.74800  Biso   1.000  C
  O167     1.0000 0.44430  0.20650  0.74720  Biso   1.000  O
  C333     1.0000 0.44510  0.18380  0.77170  Biso   1.000  C
  H499     1.0000 0.43310  0.19230  0.79120  Biso   1.000  H
  H500     1.0000 0.43450  0.16310  0.76390  Biso   1.000  H
  H501     1.0000 0.46840  0.17920  0.77780  Biso   1.000  H
  C334     1.0000 0.47120  0.22700  0.74800  Biso   1.000  C
  O168     1.0000 0.44430  0.70650  0.24720  Biso   1.000  O
  C335     1.0000 0.44510  0.68380  0.27170  Biso   1.000  C
  H502     1.0000 0.43310  0.69230  0.29120  Biso   1.000  H
  H503     1.0000 0.43450  0.66310  0.26390  Biso   1.000  H
  H504     1.0000 0.46840  0.67920  0.27780  Biso   1.000  H
  C336     1.0000 0.47120  0.72700  0.24800  Biso   1.000  C
  O169     1.0000 0.94430  0.79350  0.75280  Biso   1.000  O
  C337     1.0000 0.94510  0.81620  0.72830  Biso   1.000  C
  H505     1.0000 0.93310  0.80770  0.70880  Biso   1.000  H
  H506     1.0000 0.93450  0.83690  0.73610  Biso   1.000  H
  H507     1.0000 0.96840  0.82080  0.72220  Biso   1.000  H
  C338     1.0000 0.97120  0.77300  0.75200  Biso   1.000  C
  O170     1.0000 0.94430  0.29350  0.25280  Biso   1.000  O
  C339     1.0000 0.94510  0.31620  0.22830  Biso   1.000  C
  H508     1.0000 0.93310  0.30770  0.20880  Biso   1.000  H
  H509     1.0000 0.93450  0.33690  0.23610  Biso   1.000  H
  H510     1.0000 0.96840  0.32080  0.22220  Biso   1.000  H
  C340     1.0000 0.97120  0.27300  0.25200  Biso   1.000  C
  O171     1.0000 0.44430  0.79350  0.25280  Biso   1.000  O
  C341     1.0000 0.44510  0.81620  0.22830  Biso   1.000  C
  H511     1.0000 0.43310  0.80770  0.20880  Biso   1.000  H
  H512     1.0000 0.43450  0.83690  0.23610  Biso   1.000  H
  H513     1.0000 0.46840  0.82080  0.22220  Biso   1.000  H
  C342     1.0000 0.47120  0.77300  0.25200  Biso   1.000  C
  O172     1.0000 0.44430  0.29350  0.75280  Biso   1.000  O
  C343     1.0000 0.44510  0.31620  0.72830  Biso   1.000  C
  H514     1.0000 0.43310  0.30770  0.70880  Biso   1.000  H
  H515     1.0000 0.43450  0.33690  0.73610  Biso   1.000  H
  H516     1.0000 0.46840  0.32080  0.72220  Biso   1.000  H
  C344     1.0000 0.47120  0.27300  0.75200  Biso   1.000  C
  O173     1.0000 0.05570  0.79350  0.24720  Biso   1.000  O
  C345     1.0000 0.05490  0.81620  0.27170  Biso   1.000  C
  H517     1.0000 0.06690  0.80770  0.29120  Biso   1.000  H
  H518     1.0000 0.06550  0.83690  0.26390  Biso   1.000  H
  H519     1.0000 0.03160  0.82080  0.27780  Biso   1.000  H
  C346     1.0000 0.02880  0.77300  0.24800  Biso   1.000  C
  O174     1.0000 0.05570  0.29350  0.74720  Biso   1.000  O
  C347     1.0000 0.05490  0.31620  0.77170  Biso   1.000  C
  H520     1.0000 0.06690  0.30770  0.79120  Biso   1.000  H
  H521     1.0000 0.06550  0.33690  0.76390  Biso   1.000  H
  H522     1.0000 0.03160  0.32080  0.77780  Biso   1.000  H
  C348     1.0000 0.02880  0.27300  0.74800  Biso   1.000  C
  O175     1.0000 0.55570  0.79350  0.74720  Biso   1.000  O
  C349     1.0000 0.55490  0.81620  0.77170  Biso   1.000  C
  H523     1.0000 0.56690  0.80770  0.79120  Biso   1.000  H
  H524     1.0000 0.56550  0.83690  0.76390  Biso   1.000  H
  H525     1.0000 0.53160  0.82080  0.77780  Biso   1.000  H
  C350     1.0000 0.52880  0.77300  0.74800  Biso   1.000  C
  O176     1.0000 0.55570  0.29350  0.24720  Biso   1.000  O
  C351     1.0000 0.55490  0.31620  0.27170  Biso   1.000  C
  H526     1.0000 0.56690  0.30770  0.29120  Biso   1.000  H
  H527     1.0000 0.56550  0.33690  0.26390  Biso   1.000  H
  H528     1.0000 0.53160  0.32080  0.27780  Biso   1.000  H
  C352     1.0000 0.52880  0.27300  0.24800  Biso   1.000  C
  O177     1.0000 0.20650  0.24720  0.94430  Biso   1.000  O
  C353     1.0000 0.18380  0.27170  0.94510  Biso   1.000  C
  H529     1.0000 0.19230  0.29120  0.93310  Biso   1.000  H
  H530     1.0000 0.16310  0.26390  0.93450  Biso   1.000  H
  H531     1.0000 0.17920  0.27780  0.96840  Biso   1.000  H
  C354     1.0000 0.22700  0.24800  0.97120  Biso   1.000  C
  O178     1.0000 0.20650  0.74720  0.44430  Biso   1.000  O
  C355     1.0000 0.18380  0.77170  0.44510  Biso   1.000  C
  H532     1.0000 0.19230  0.79120  0.43310  Biso   1.000  H
  H533     1.0000 0.16310  0.76390  0.43450  Biso   1.000  H
  H534     1.0000 0.17920  0.77780  0.46840  Biso   1.000  H
  C356     1.0000 0.22700  0.74800  0.47120  Biso   1.000  C
  O179     1.0000 0.70650  0.24720  0.44430  Biso   1.000  O
  C357     1.0000 0.68380  0.27170  0.44510  Biso   1.000  C
  H535     1.0000 0.69230  0.29120  0.43310  Biso   1.000  H
  H536     1.0000 0.66310  0.26390  0.43450  Biso   1.000  H
  H537     1.0000 0.67920  0.27780  0.46840  Biso   1.000  H
  C358     1.0000 0.72700  0.24800  0.47120  Biso   1.000  C
  O180     1.0000 0.70650  0.74720  0.94430  Biso   1.000  O
  C359     1.0000 0.68380  0.77170  0.94510  Biso   1.000  C
  H538     1.0000 0.69230  0.79120  0.93310  Biso   1.000  H
  H539     1.0000 0.66310  0.76390  0.93450  Biso   1.000  H
  H540     1.0000 0.67920  0.77780  0.96840  Biso   1.000  H
  C360     1.0000 0.72700  0.74800  0.97120  Biso   1.000  C
  O181     1.0000 0.20650  0.75280  0.05570  Biso   1.000  O
  C361     1.0000 0.18380  0.72830  0.05490  Biso   1.000  C
  H541     1.0000 0.19230  0.70880  0.06690  Biso   1.000  H
  H542     1.0000 0.16310  0.73610  0.06550  Biso   1.000  H
  H543     1.0000 0.17920  0.72220  0.03160  Biso   1.000  H
  C362     1.0000 0.22700  0.75200  0.02880  Biso   1.000  C
  O182     1.0000 0.20650  0.25280  0.55570  Biso   1.000  O
  C363     1.0000 0.18380  0.22830  0.55490  Biso   1.000  C
  H544     1.0000 0.19230  0.20880  0.56690  Biso   1.000  H
  H545     1.0000 0.16310  0.23610  0.56550  Biso   1.000  H
  H546     1.0000 0.17920  0.22220  0.53160  Biso   1.000  H
  C364     1.0000 0.22700  0.25200  0.52880  Biso   1.000  C
  O183     1.0000 0.70650  0.75280  0.55570  Biso   1.000  O
  C365     1.0000 0.68380  0.72830  0.55490  Biso   1.000  C
  H547     1.0000 0.69230  0.70880  0.56690  Biso   1.000  H
  H548     1.0000 0.66310  0.73610  0.56550  Biso   1.000  H
  H549     1.0000 0.67920  0.72220  0.53160  Biso   1.000  H
  C366     1.0000 0.72700  0.75200  0.52880  Biso   1.000  C
  O184     1.0000 0.70650  0.25280  0.05570  Biso   1.000  O
  C367     1.0000 0.68380  0.22830  0.05490  Biso   1.000  C
  H550     1.0000 0.69230  0.20880  0.06690  Biso   1.000  H
  H551     1.0000 0.66310  0.23610  0.06550  Biso   1.000  H
  H552     1.0000 0.67920  0.22220  0.03160  Biso   1.000  H
  C368     1.0000 0.72700  0.25200  0.02880  Biso   1.000  C
  O185     1.0000 0.79350  0.24720  0.05570  Biso   1.000  O
  C369     1.0000 0.81620  0.27170  0.05490  Biso   1.000  C
  H553     1.0000 0.80770  0.29120  0.06690  Biso   1.000  H
  H554     1.0000 0.83690  0.26390  0.06550  Biso   1.000  H
  H555     1.0000 0.82080  0.27780  0.03160  Biso   1.000  H
  C370     1.0000 0.77300  0.24800  0.02880  Biso   1.000  C
  O186     1.0000 0.79350  0.74720  0.55570  Biso   1.000  O
  C371     1.0000 0.81620  0.77170  0.55490  Biso   1.000  C
  H556     1.0000 0.80770  0.79120  0.56690  Biso   1.000  H
  H557     1.0000 0.83690  0.76390  0.56550  Biso   1.000  H
  H558     1.0000 0.82080  0.77780  0.53160  Biso   1.000  H
  C372     1.0000 0.77300  0.74800  0.52880  Biso   1.000  C
  O187     1.0000 0.29350  0.24720  0.55570  Biso   1.000  O
  C373     1.0000 0.31620  0.27170  0.55490  Biso   1.000  C
  H559     1.0000 0.30770  0.29120  0.56690  Biso   1.000  H
  H560     1.0000 0.33690  0.26390  0.56550  Biso   1.000  H
  H561     1.0000 0.32080  0.27780  0.53160  Biso   1.000  H
  C374     1.0000 0.27300  0.24800  0.52880  Biso   1.000  C
  O188     1.0000 0.29350  0.74720  0.05570  Biso   1.000  O
  C375     1.0000 0.31620  0.77170  0.05490  Biso   1.000  C
  H562     1.0000 0.30770  0.79120  0.06690  Biso   1.000  H
  H563     1.0000 0.33690  0.76390  0.06550  Biso   1.000  H
  H564     1.0000 0.32080  0.77780  0.03160  Biso   1.000  H
  C376     1.0000 0.27300  0.74800  0.02880  Biso   1.000  C
  O189     1.0000 0.79350  0.75280  0.94430  Biso   1.000  O
  C377     1.0000 0.81620  0.72830  0.94510  Biso   1.000  C
  H565     1.0000 0.80770  0.70880  0.93310  Biso   1.000  H
  H566     1.0000 0.83690  0.73610  0.93450  Biso   1.000  H
  H567     1.0000 0.82080  0.72220  0.96840  Biso   1.000  H
  C378     1.0000 0.77300  0.75200  0.97120  Biso   1.000  C
  O190     1.0000 0.79350  0.25280  0.44430  Biso   1.000  O
  C379     1.0000 0.81620  0.22830  0.44510  Biso   1.000  C
  H568     1.0000 0.80770  0.20880  0.43310  Biso   1.000  H
  H569     1.0000 0.83690  0.23610  0.43450  Biso   1.000  H
  H570     1.0000 0.82080  0.22220  0.46840  Biso   1.000  H
  C380     1.0000 0.77300  0.25200  0.47120  Biso   1.000  C
  O191     1.0000 0.29350  0.75280  0.44430  Biso   1.000  O
  C381     1.0000 0.31620  0.72830  0.44510  Biso   1.000  C
  H571     1.0000 0.30770  0.70880  0.43310  Biso   1.000  H
  H572     1.0000 0.33690  0.73610  0.43450  Biso   1.000  H
  H573     1.0000 0.32080  0.72220  0.46840  Biso   1.000  H
  C382     1.0000 0.27300  0.75200  0.47120  Biso   1.000  C
  O192     1.0000 0.29350  0.25280  0.94430  Biso   1.000  O
  C383     1.0000 0.31620  0.22830  0.94510  Biso   1.000  C
  H574     1.0000 0.30770  0.20880  0.93310  Biso   1.000  H
  H575     1.0000 0.33690  0.23610  0.93450  Biso   1.000  H
  H576     1.0000 0.32080  0.22220  0.96840  Biso   1.000  H
  C384     1.0000 0.27300  0.25200  0.97120  Biso   1.000  C
  Cu1      1.0000 0.00000  0.82720  0.00000  Biso   1.000  Cu
  Cu2      1.0000 0.00000  0.76156  0.00000  Biso   1.000  Cu
  Cu3      1.0000 0.00000  0.32720  0.50000  Biso   1.000  Cu
  Cu4      1.0000 0.00000  0.26156  0.50000  Biso   1.000  Cu
  Cu5      1.0000 0.50000  0.82720  0.50000  Biso   1.000  Cu
  Cu6      1.0000 0.50000  0.76156  0.50000  Biso   1.000  Cu
  Cu7      1.0000 0.50000  0.32720  0.00000  Biso   1.000  Cu
  Cu8      1.0000 0.50000  0.26156  0.00000  Biso   1.000  Cu
  Cu9      1.0000 0.00000  0.17280  0.00000  Biso   1.000  Cu
  Cu10     1.0000 0.00000  0.23844  0.00000  Biso   1.000  Cu
  Cu11     1.0000 0.00000  0.67280  0.50000  Biso   1.000  Cu
  Cu12     1.0000 0.00000  0.73844  0.50000  Biso   1.000  Cu
  Cu13     1.0000 0.50000  0.17280  0.50000  Biso   1.000  Cu
  Cu14     1.0000 0.50000  0.23844  0.50000  Biso   1.000  Cu
  Cu15     1.0000 0.50000  0.67280  0.00000  Biso   1.000  Cu
  Cu16     1.0000 0.50000  0.73844  0.00000  Biso   1.000  Cu
  Cu17     1.0000 0.00000  0.00000  0.82720  Biso   1.000  Cu
  Cu18     1.0000 0.00000  0.00000  0.76156  Biso   1.000  Cu
  Cu19     1.0000 0.00000  0.50000  0.32720  Biso   1.000  Cu
  Cu20     1.0000 0.00000  0.50000  0.26156  Biso   1.000  Cu
  Cu21     1.0000 0.50000  0.00000  0.32720  Biso   1.000  Cu
  Cu22     1.0000 0.50000  0.00000  0.26156  Biso   1.000  Cu
  Cu23     1.0000 0.50000  0.50000  0.82720  Biso   1.000  Cu
  Cu24     1.0000 0.50000  0.50000  0.76156  Biso   1.000  Cu
  Cu25     1.0000 0.00000  0.00000  0.17280  Biso   1.000  Cu
  Cu26     1.0000 0.00000  0.00000  0.23844  Biso   1.000  Cu
  Cu27     1.0000 0.00000  0.50000  0.67280  Biso   1.000  Cu
  Cu28     1.0000 0.00000  0.50000  0.73844  Biso   1.000  Cu
  Cu29     1.0000 0.50000  0.00000  0.67280  Biso   1.000  Cu
  Cu30     1.0000 0.50000  0.00000  0.73844  Biso   1.000  Cu
  Cu31     1.0000 0.50000  0.50000  0.17280  Biso   1.000  Cu
  Cu32     1.0000 0.50000  0.50000  0.23844  Biso   1.000  Cu
  Cu33     1.0000 0.82720  0.00000  0.00000  Biso   1.000  Cu
  Cu34     1.0000 0.76156  0.00000  0.00000  Biso   1.000  Cu
  Cu35     1.0000 0.82720  0.50000  0.50000  Biso   1.000  Cu
  Cu36     1.0000 0.76156  0.50000  0.50000  Biso   1.000  Cu
  Cu37     1.0000 0.32720  0.00000  0.50000  Biso   1.000  Cu
  Cu38     1.0000 0.26156  0.00000  0.50000  Biso   1.000  Cu
  Cu39     1.0000 0.32720  0.50000  0.00000  Biso   1.000  Cu
  Cu40     1.0000 0.26156  0.50000  0.00000  Biso   1.000  Cu
  Cu41     1.0000 0.17280  0.00000  0.00000  Biso   1.000  Cu
  Cu42     1.0000 0.23844  0.00000  0.00000  Biso   1.000  Cu
  Cu43     1.0000 0.17280  0.50000  0.50000  Biso   1.000  Cu
  Cu44     1.0000 0.23844  0.50000  0.50000  Biso   1.000  Cu
  Cu45     1.0000 0.67280  0.00000  0.50000  Biso   1.000  Cu
  Cu46     1.0000 0.73844  0.00000  0.50000  Biso   1.000  Cu
  Cu47     1.0000 0.67280  0.50000  0.00000  Biso   1.000  Cu
  Cu48     1.0000 0.73844  0.50000  0.00000  Biso   1.000  Cu
  O193     1.0000 0.00000  0.82321  0.95129  Biso   1.000  O
  O194     1.0000 0.00000  0.76583  0.95156  Biso   1.000  O
  C385     1.0000 0.00000  0.79550  0.93854  Biso   1.000  C
  C386     1.0000 0.00000  0.79520  0.89990  Biso   1.000  C
  C387     1.0000 0.00000  0.82500  0.88450  Biso   1.000  C
  H577     1.0000 0.00000  0.84520  0.89700  Biso   1.000  H
  C388     1.0000 0.00000  0.82560  0.84860  Biso   1.000  C
  C389     1.0000 0.00000  0.79480  0.83460  Biso   1.000  C
  C390     1.0000 0.00000  0.76450  0.85100  Biso   1.000  C
  H578     1.0000 0.00000  0.74390  0.83920  Biso   1.000  H
  C391     1.0000 0.00000  0.76560  0.88330  Biso   1.000  C
  H579     1.0000 0.00000  0.74540  0.89560  Biso   1.000  H
  O195     1.0000 0.00000  0.32321  0.45129  Biso   1.000  O
  O196     1.0000 0.00000  0.26583  0.45156  Biso   1.000  O
  C392     1.0000 0.00000  0.29550  0.43854  Biso   1.000  C
  C393     1.0000 0.00000  0.29520  0.39990  Biso   1.000  C
  C394     1.0000 0.00000  0.32500  0.38450  Biso   1.000  C
  H580     1.0000 0.00000  0.34520  0.39700  Biso   1.000  H
  C395     1.0000 0.00000  0.32560  0.34860  Biso   1.000  C
  C396     1.0000 0.00000  0.29480  0.33460  Biso   1.000  C
  C397     1.0000 0.00000  0.26450  0.35100  Biso   1.000  C
  H581     1.0000 0.00000  0.24390  0.33920  Biso   1.000  H
  C398     1.0000 0.00000  0.26560  0.38330  Biso   1.000  C
  H582     1.0000 0.00000  0.24540  0.39560  Biso   1.000  H
  O197     1.0000 0.50000  0.82321  0.45129  Biso   1.000  O
  O198     1.0000 0.50000  0.76583  0.45156  Biso   1.000  O
  C399     1.0000 0.50000  0.79550  0.43854  Biso   1.000  C
  C400     1.0000 0.50000  0.79520  0.39990  Biso   1.000  C
  C401     1.0000 0.50000  0.82500  0.38450  Biso   1.000  C
  H583     1.0000 0.50000  0.84520  0.39700  Biso   1.000  H
  C402     1.0000 0.50000  0.82560  0.34860  Biso   1.000  C
  C403     1.0000 0.50000  0.79480  0.33460  Biso   1.000  C
  C404     1.0000 0.50000  0.76450  0.35100  Biso   1.000  C
  H584     1.0000 0.50000  0.74390  0.33920  Biso   1.000  H
  C405     1.0000 0.50000  0.76560  0.38330  Biso   1.000  C
  H585     1.0000 0.50000  0.74540  0.39560  Biso   1.000  H
  O199     1.0000 0.50000  0.32321  0.95129  Biso   1.000  O
  O200     1.0000 0.50000  0.26583  0.95156  Biso   1.000  O
  C406     1.0000 0.50000  0.29550  0.93854  Biso   1.000  C
  C407     1.0000 0.50000  0.29520  0.89990  Biso   1.000  C
  C408     1.0000 0.50000  0.32500  0.88450  Biso   1.000  C
  H586     1.0000 0.50000  0.34520  0.89700  Biso   1.000  H
  C409     1.0000 0.50000  0.32560  0.84860  Biso   1.000  C
  C410     1.0000 0.50000  0.29480  0.83460  Biso   1.000  C
  C411     1.0000 0.50000  0.26450  0.85100  Biso   1.000  C
  H587     1.0000 0.50000  0.24390  0.83920  Biso   1.000  H
  C412     1.0000 0.50000  0.26560  0.88330  Biso   1.000  C
  H588     1.0000 0.50000  0.24540  0.89560  Biso   1.000  H
  O201     1.0000 0.00000  0.17679  0.95129  Biso   1.000  O
  O202     1.0000 0.00000  0.23417  0.95156  Biso   1.000  O
  C413     1.0000 0.00000  0.20450  0.93854  Biso   1.000  C
  C414     1.0000 0.00000  0.20480  0.89990  Biso   1.000  C
  C415     1.0000 0.00000  0.17500  0.88450  Biso   1.000  C
  H589     1.0000 0.00000  0.15480  0.89700  Biso   1.000  H
  C416     1.0000 0.00000  0.17440  0.84860  Biso   1.000  C
  C417     1.0000 0.00000  0.20520  0.83460  Biso   1.000  C
  C418     1.0000 0.00000  0.23550  0.85100  Biso   1.000  C
  H590     1.0000 0.00000  0.25610  0.83920  Biso   1.000  H
  C419     1.0000 0.00000  0.23440  0.88330  Biso   1.000  C
  H591     1.0000 0.00000  0.25460  0.89560  Biso   1.000  H
  O203     1.0000 0.00000  0.67679  0.45129  Biso   1.000  O
  O204     1.0000 0.00000  0.73417  0.45156  Biso   1.000  O
  C420     1.0000 0.00000  0.70450  0.43854  Biso   1.000  C
  C421     1.0000 0.00000  0.70480  0.39990  Biso   1.000  C
  C422     1.0000 0.00000  0.67500  0.38450  Biso   1.000  C
  H592     1.0000 0.00000  0.65480  0.39700  Biso   1.000  H
  C423     1.0000 0.00000  0.67440  0.34860  Biso   1.000  C
  C424     1.0000 0.00000  0.70520  0.33460  Biso   1.000  C
  C425     1.0000 0.00000  0.73550  0.35100  Biso   1.000  C
  H593     1.0000 0.00000  0.75610  0.33920  Biso   1.000  H
  C426     1.0000 0.00000  0.73440  0.38330  Biso   1.000  C
  H594     1.0000 0.00000  0.75460  0.39560  Biso   1.000  H
  O205     1.0000 0.50000  0.17679  0.45129  Biso   1.000  O
  O206     1.0000 0.50000  0.23417  0.45156  Biso   1.000  O
  C427     1.0000 0.50000  0.20450  0.43854  Biso   1.000  C
  C428     1.0000 0.50000  0.20480  0.39990  Biso   1.000  C
  C429     1.0000 0.50000  0.17500  0.38450  Biso   1.000  C
  H595     1.0000 0.50000  0.15480  0.39700  Biso   1.000  H
  C430     1.0000 0.50000  0.17440  0.34860  Biso   1.000  C
  C431     1.0000 0.50000  0.20520  0.33460  Biso   1.000  C
  C432     1.0000 0.50000  0.23550  0.35100  Biso   1.000  C
  H596     1.0000 0.50000  0.25610  0.33920  Biso   1.000  H
  C433     1.0000 0.50000  0.23440  0.38330  Biso   1.000  C
  H597     1.0000 0.50000  0.25460  0.39560  Biso   1.000  H
  O207     1.0000 0.50000  0.67679  0.95129  Biso   1.000  O
  O208     1.0000 0.50000  0.73417  0.95156  Biso   1.000  O
  C434     1.0000 0.50000  0.70450  0.93854  Biso   1.000  C
  C435     1.0000 0.50000  0.70480  0.89990  Biso   1.000  C
  C436     1.0000 0.50000  0.67500  0.88450  Biso   1.000  C
  H598     1.0000 0.50000  0.65480  0.89700  Biso   1.000  H
  C437     1.0000 0.50000  0.67440  0.84860  Biso   1.000  C
  C438     1.0000 0.50000  0.70520  0.83460  Biso   1.000  C
  C439     1.0000 0.50000  0.73550  0.85100  Biso   1.000  C
  H599     1.0000 0.50000  0.75610  0.83920  Biso   1.000  H
  C440     1.0000 0.50000  0.73440  0.88330  Biso   1.000  C
  H600     1.0000 0.50000  0.75460  0.89560  Biso   1.000  H
  O209     1.0000 0.00000  0.82321  0.04871  Biso   1.000  O
  O210     1.0000 0.00000  0.76583  0.04844  Biso   1.000  O
  C441     1.0000 0.00000  0.79550  0.06146  Biso   1.000  C
  C442     1.0000 0.00000  0.79520  0.10010  Biso   1.000  C
  C443     1.0000 0.00000  0.82500  0.11550  Biso   1.000  C
  H601     1.0000 0.00000  0.84520  0.10300  Biso   1.000  H
  C444     1.0000 0.00000  0.82560  0.15140  Biso   1.000  C
  C445     1.0000 0.00000  0.79480  0.16540  Biso   1.000  C
  C446     1.0000 0.00000  0.76450  0.14900  Biso   1.000  C
  H602     1.0000 0.00000  0.74390  0.16080  Biso   1.000  H
  C447     1.0000 0.00000  0.76560  0.11670  Biso   1.000  C
  H603     1.0000 0.00000  0.74540  0.10440  Biso   1.000  H
  O211     1.0000 0.00000  0.32321  0.54871  Biso   1.000  O
  O212     1.0000 0.00000  0.26583  0.54844  Biso   1.000  O
  C448     1.0000 0.00000  0.29550  0.56146  Biso   1.000  C
  C449     1.0000 0.00000  0.29520  0.60010  Biso   1.000  C
  C450     1.0000 0.00000  0.32500  0.61550  Biso   1.000  C
  H604     1.0000 0.00000  0.34520  0.60300  Biso   1.000  H
  C451     1.0000 0.00000  0.32560  0.65140  Biso   1.000  C
  C452     1.0000 0.00000  0.29480  0.66540  Biso   1.000  C
  C453     1.0000 0.00000  0.26450  0.64900  Biso   1.000  C
  H605     1.0000 0.00000  0.24390  0.66080  Biso   1.000  H
  C454     1.0000 0.00000  0.26560  0.61670  Biso   1.000  C
  H606     1.0000 0.00000  0.24540  0.60440  Biso   1.000  H
  O213     1.0000 0.50000  0.82321  0.54871  Biso   1.000  O
  O214     1.0000 0.50000  0.76583  0.54844  Biso   1.000  O
  C455     1.0000 0.50000  0.79550  0.56146  Biso   1.000  C
  C456     1.0000 0.50000  0.79520  0.60010  Biso   1.000  C
  C457     1.0000 0.50000  0.82500  0.61550  Biso   1.000  C
  H607     1.0000 0.50000  0.84520  0.60300  Biso   1.000  H
  C458     1.0000 0.50000  0.82560  0.65140  Biso   1.000  C
  C459     1.0000 0.50000  0.79480  0.66540  Biso   1.000  C
  C460     1.0000 0.50000  0.76450  0.64900  Biso   1.000  C
  H608     1.0000 0.50000  0.74390  0.66080  Biso   1.000  H
  C461     1.0000 0.50000  0.76560  0.61670  Biso   1.000  C
  H609     1.0000 0.50000  0.74540  0.60440  Biso   1.000  H
  O215     1.0000 0.50000  0.32321  0.04871  Biso   1.000  O
  O216     1.0000 0.50000  0.26583  0.04844  Biso   1.000  O
  C462     1.0000 0.50000  0.29550  0.06146  Biso   1.000  C
  C463     1.0000 0.50000  0.29520  0.10010  Biso   1.000  C
  C464     1.0000 0.50000  0.32500  0.11550  Biso   1.000  C
  H610     1.0000 0.50000  0.34520  0.10300  Biso   1.000  H
  C465     1.0000 0.50000  0.32560  0.15140  Biso   1.000  C
  C466     1.0000 0.50000  0.29480  0.16540  Biso   1.000  C
  C467     1.0000 0.50000  0.26450  0.14900  Biso   1.000  C
  H611     1.0000 0.50000  0.24390  0.16080  Biso   1.000  H
  C468     1.0000 0.50000  0.26560  0.11670  Biso   1.000  C
  H612     1.0000 0.50000  0.24540  0.10440  Biso   1.000  H
  O217     1.0000 0.00000  0.17679  0.04871  Biso   1.000  O
  O218     1.0000 0.00000  0.23417  0.04844  Biso   1.000  O
  C469     1.0000 0.00000  0.20450  0.06146  Biso   1.000  C
  C470     1.0000 0.00000  0.20480  0.10010  Biso   1.000  C
  C471     1.0000 0.00000  0.17500  0.11550  Biso   1.000  C
  H613     1.0000 0.00000  0.15480  0.10300  Biso   1.000  H
  C472     1.0000 0.00000  0.17440  0.15140  Biso   1.000  C
  C473     1.0000 0.00000  0.20520  0.16540  Biso   1.000  C
  C474     1.0000 0.00000  0.23550  0.14900  Biso   1.000  C
  H614     1.0000 0.00000  0.25610  0.16080  Biso   1.000  H
  C475     1.0000 0.00000  0.23440  0.11670  Biso   1.000  C
  H615     1.0000 0.00000  0.25460  0.10440  Biso   1.000  H
  O219     1.0000 0.00000  0.67679  0.54871  Biso   1.000  O
  O220     1.0000 0.00000  0.73417  0.54844  Biso   1.000  O
  C476     1.0000 0.00000  0.70450  0.56146  Biso   1.000  C
  C477     1.0000 0.00000  0.70480  0.60010  Biso   1.000  C
  C478     1.0000 0.00000  0.67500  0.61550  Biso   1.000  C
  H616     1.0000 0.00000  0.65480  0.60300  Biso   1.000  H
  C479     1.0000 0.00000  0.67440  0.65140  Biso   1.000  C
  C480     1.0000 0.00000  0.70520  0.66540  Biso   1.000  C
  C481     1.0000 0.00000  0.73550  0.64900  Biso   1.000  C
  H617     1.0000 0.00000  0.75610  0.66080  Biso   1.000  H
  C482     1.0000 0.00000  0.73440  0.61670  Biso   1.000  C
  H618     1.0000 0.00000  0.75460  0.60440  Biso   1.000  H
  O221     1.0000 0.50000  0.17679  0.54871  Biso   1.000  O
  O222     1.0000 0.50000  0.23417  0.54844  Biso   1.000  O
  C483     1.0000 0.50000  0.20450  0.56146  Biso   1.000  C
  C484     1.0000 0.50000  0.20480  0.60010  Biso   1.000  C
  C485     1.0000 0.50000  0.17500  0.61550  Biso   1.000  C
  H619     1.0000 0.50000  0.15480  0.60300  Biso   1.000  H
  C486     1.0000 0.50000  0.17440  0.65140  Biso   1.000  C
  C487     1.0000 0.50000  0.20520  0.66540  Biso   1.000  C
  C488     1.0000 0.50000  0.23550  0.64900  Biso   1.000  C
  H620     1.0000 0.50000  0.25610  0.66080  Biso   1.000  H
  C489     1.0000 0.50000  0.23440  0.61670  Biso   1.000  C
  H621     1.0000 0.50000  0.25460  0.60440  Biso   1.000  H
  O223     1.0000 0.50000  0.67679  0.04871  Biso   1.000  O
  O224     1.0000 0.50000  0.73417  0.04844  Biso   1.000  O
  C490     1.0000 0.50000  0.70450  0.06146  Biso   1.000  C
  C491     1.0000 0.50000  0.70480  0.10010  Biso   1.000  C
  C492     1.0000 0.50000  0.67500  0.11550  Biso   1.000  C
  H622     1.0000 0.50000  0.65480  0.10300  Biso   1.000  H
  C493     1.0000 0.50000  0.67440  0.15140  Biso   1.000  C
  C494     1.0000 0.50000  0.70520  0.16540  Biso   1.000  C
  C495     1.0000 0.50000  0.73550  0.14900  Biso   1.000  C
  H623     1.0000 0.50000  0.75610  0.16080  Biso   1.000  H
  C496     1.0000 0.50000  0.73440  0.11670  Biso   1.000  C
  H624     1.0000 0.50000  0.75460  0.10440  Biso   1.000  H
  O225     1.0000 0.95129  0.00000  0.82321  Biso   1.000  O
  O226     1.0000 0.95156  0.00000  0.76583  Biso   1.000  O
  C497     1.0000 0.93854  0.00000  0.79550  Biso   1.000  C
  C498     1.0000 0.89990  0.00000  0.79520  Biso   1.000  C
  C499     1.0000 0.88450  0.00000  0.82500  Biso   1.000  C
  H625     1.0000 0.89700  0.00000  0.84520  Biso   1.000  H
  C500     1.0000 0.84860  0.00000  0.82560  Biso   1.000  C
  C501     1.0000 0.83460  0.00000  0.79480  Biso   1.000  C
  C502     1.0000 0.85100  0.00000  0.76450  Biso   1.000  C
  H626     1.0000 0.83920  0.00000  0.74390  Biso   1.000  H
  C503     1.0000 0.88330  0.00000  0.76560  Biso   1.000  C
  H627     1.0000 0.89560  0.00000  0.74540  Biso   1.000  H
  O227     1.0000 0.95129  0.50000  0.32321  Biso   1.000  O
  O228     1.0000 0.95156  0.50000  0.26583  Biso   1.000  O
  C504     1.0000 0.93854  0.50000  0.29550  Biso   1.000  C
  C505     1.0000 0.89990  0.50000  0.29520  Biso   1.000  C
  C506     1.0000 0.88450  0.50000  0.32500  Biso   1.000  C
  H628     1.0000 0.89700  0.50000  0.34520  Biso   1.000  H
  C507     1.0000 0.84860  0.50000  0.32560  Biso   1.000  C
  C508     1.0000 0.83460  0.50000  0.29480  Biso   1.000  C
  C509     1.0000 0.85100  0.50000  0.26450  Biso   1.000  C
  H629     1.0000 0.83920  0.50000  0.24390  Biso   1.000  H
  C510     1.0000 0.88330  0.50000  0.26560  Biso   1.000  C
  H630     1.0000 0.89560  0.50000  0.24540  Biso   1.000  H
  O229     1.0000 0.45129  0.00000  0.32321  Biso   1.000  O
  O230     1.0000 0.45156  0.00000  0.26583  Biso   1.000  O
  C511     1.0000 0.43854  0.00000  0.29550  Biso   1.000  C
  C512     1.0000 0.39990  0.00000  0.29520  Biso   1.000  C
  C513     1.0000 0.38450  0.00000  0.32500  Biso   1.000  C
  H631     1.0000 0.39700  0.00000  0.34520  Biso   1.000  H
  C514     1.0000 0.34860  0.00000  0.32560  Biso   1.000  C
  C515     1.0000 0.33460  0.00000  0.29480  Biso   1.000  C
  C516     1.0000 0.35100  0.00000  0.26450  Biso   1.000  C
  H632     1.0000 0.33920  0.00000  0.24390  Biso   1.000  H
  C517     1.0000 0.38330  0.00000  0.26560  Biso   1.000  C
  H633     1.0000 0.39560  0.00000  0.24540  Biso   1.000  H
  O231     1.0000 0.45129  0.50000  0.82321  Biso   1.000  O
  O232     1.0000 0.45156  0.50000  0.76583  Biso   1.000  O
  C518     1.0000 0.43854  0.50000  0.79550  Biso   1.000  C
  C519     1.0000 0.39990  0.50000  0.79520  Biso   1.000  C
  C520     1.0000 0.38450  0.50000  0.82500  Biso   1.000  C
  H634     1.0000 0.39700  0.50000  0.84520  Biso   1.000  H
  C521     1.0000 0.34860  0.50000  0.82560  Biso   1.000  C
  C522     1.0000 0.33460  0.50000  0.79480  Biso   1.000  C
  C523     1.0000 0.35100  0.50000  0.76450  Biso   1.000  C
  H635     1.0000 0.33920  0.50000  0.74390  Biso   1.000  H
  C524     1.0000 0.38330  0.50000  0.76560  Biso   1.000  C
  H636     1.0000 0.39560  0.50000  0.74540  Biso   1.000  H
  O233     1.0000 0.95129  0.00000  0.17679  Biso   1.000  O
  O234     1.0000 0.95156  0.00000  0.23417  Biso   1.000  O
  C525     1.0000 0.93854  0.00000  0.20450  Biso   1.000  C
  C526     1.0000 0.89990  0.00000  0.20480  Biso   1.000  C
  C527     1.0000 0.88450  0.00000  0.17500  Biso   1.000  C
  H637     1.0000 0.89700  0.00000  0.15480  Biso   1.000  H
  C528     1.0000 0.84860  0.00000  0.17440  Biso   1.000  C
  C529     1.0000 0.83460  0.00000  0.20520  Biso   1.000  C
  C530     1.0000 0.85100  0.00000  0.23550  Biso   1.000  C
  H638     1.0000 0.83920  0.00000  0.25610  Biso   1.000  H
  C531     1.0000 0.88330  0.00000  0.23440  Biso   1.000  C
  H639     1.0000 0.89560  0.00000  0.25460  Biso   1.000  H
  O235     1.0000 0.95129  0.50000  0.67679  Biso   1.000  O
  O236     1.0000 0.95156  0.50000  0.73417  Biso   1.000  O
  C532     1.0000 0.93854  0.50000  0.70450  Biso   1.000  C
  C533     1.0000 0.89990  0.50000  0.70480  Biso   1.000  C
  C534     1.0000 0.88450  0.50000  0.67500  Biso   1.000  C
  H640     1.0000 0.89700  0.50000  0.65480  Biso   1.000  H
  C535     1.0000 0.84860  0.50000  0.67440  Biso   1.000  C
  C536     1.0000 0.83460  0.50000  0.70520  Biso   1.000  C
  C537     1.0000 0.85100  0.50000  0.73550  Biso   1.000  C
  H641     1.0000 0.83920  0.50000  0.75610  Biso   1.000  H
  C538     1.0000 0.88330  0.50000  0.73440  Biso   1.000  C
  H642     1.0000 0.89560  0.50000  0.75460  Biso   1.000  H
  O237     1.0000 0.45129  0.00000  0.67679  Biso   1.000  O
  O238     1.0000 0.45156  0.00000  0.73417  Biso   1.000  O
  C539     1.0000 0.43854  0.00000  0.70450  Biso   1.000  C
  C540     1.0000 0.39990  0.00000  0.70480  Biso   1.000  C
  C541     1.0000 0.38450  0.00000  0.67500  Biso   1.000  C
  H643     1.0000 0.39700  0.00000  0.65480  Biso   1.000  H
  C542     1.0000 0.34860  0.00000  0.67440  Biso   1.000  C
  C543     1.0000 0.33460  0.00000  0.70520  Biso   1.000  C
  C544     1.0000 0.35100  0.00000  0.73550  Biso   1.000  C
  H644     1.0000 0.33920  0.00000  0.75610  Biso   1.000  H
  C545     1.0000 0.38330  0.00000  0.73440  Biso   1.000  C
  H645     1.0000 0.39560  0.00000  0.75460  Biso   1.000  H
  O239     1.0000 0.45129  0.50000  0.17679  Biso   1.000  O
  O240     1.0000 0.45156  0.50000  0.23417  Biso   1.000  O
  C546     1.0000 0.43854  0.50000  0.20450  Biso   1.000  C
  C547     1.0000 0.39990  0.50000  0.20480  Biso   1.000  C
  C548     1.0000 0.38450  0.50000  0.17500  Biso   1.000  C
  H646     1.0000 0.39700  0.50000  0.15480  Biso   1.000  H
  C549     1.0000 0.34860  0.50000  0.17440  Biso   1.000  C
  C550     1.0000 0.33460  0.50000  0.20520  Biso   1.000  C
  C551     1.0000 0.35100  0.50000  0.23550  Biso   1.000  C
  H647     1.0000 0.33920  0.50000  0.25610  Biso   1.000  H
  C552     1.0000 0.38330  0.50000  0.23440  Biso   1.000  C
  H648     1.0000 0.39560  0.50000  0.25460  Biso   1.000  H
  O241     1.0000 0.04871  0.00000  0.82321  Biso   1.000  O
  O242     1.0000 0.04844  0.00000  0.76583  Biso   1.000  O
  C553     1.0000 0.06146  0.00000  0.79550  Biso   1.000  C
  C554     1.0000 0.10010  0.00000  0.79520  Biso   1.000  C
  C555     1.0000 0.11550  0.00000  0.82500  Biso   1.000  C
  H649     1.0000 0.10300  0.00000  0.84520  Biso   1.000  H
  C556     1.0000 0.15140  0.00000  0.82560  Biso   1.000  C
  C557     1.0000 0.16540  0.00000  0.79480  Biso   1.000  C
  C558     1.0000 0.14900  0.00000  0.76450  Biso   1.000  C
  H650     1.0000 0.16080  0.00000  0.74390  Biso   1.000  H
  C559     1.0000 0.11670  0.00000  0.76560  Biso   1.000  C
  H651     1.0000 0.10440  0.00000  0.74540  Biso   1.000  H
  O243     1.0000 0.04871  0.50000  0.32321  Biso   1.000  O
  O244     1.0000 0.04844  0.50000  0.26583  Biso   1.000  O
  C560     1.0000 0.06146  0.50000  0.29550  Biso   1.000  C
  C561     1.0000 0.10010  0.50000  0.29520  Biso   1.000  C
  C562     1.0000 0.11550  0.50000  0.32500  Biso   1.000  C
  H652     1.0000 0.10300  0.50000  0.34520  Biso   1.000  H
  C563     1.0000 0.15140  0.50000  0.32560  Biso   1.000  C
  C564     1.0000 0.16540  0.50000  0.29480  Biso   1.000  C
  C565     1.0000 0.14900  0.50000  0.26450  Biso   1.000  C
  H653     1.0000 0.16080  0.50000  0.24390  Biso   1.000  H
  C566     1.0000 0.11670  0.50000  0.26560  Biso   1.000  C
  H654     1.0000 0.10440  0.50000  0.24540  Biso   1.000  H
  O245     1.0000 0.54871  0.00000  0.32321  Biso   1.000  O
  O246     1.0000 0.54844  0.00000  0.26583  Biso   1.000  O
  C567     1.0000 0.56146  0.00000  0.29550  Biso   1.000  C
  C568     1.0000 0.60010  0.00000  0.29520  Biso   1.000  C
  C569     1.0000 0.61550  0.00000  0.32500  Biso   1.000  C
  H655     1.0000 0.60300  0.00000  0.34520  Biso   1.000  H
  C570     1.0000 0.65140  0.00000  0.32560  Biso   1.000  C
  C571     1.0000 0.66540  0.00000  0.29480  Biso   1.000  C
  C572     1.0000 0.64900  0.00000  0.26450  Biso   1.000  C
  H656     1.0000 0.66080  0.00000  0.24390  Biso   1.000  H
  C573     1.0000 0.61670  0.00000  0.26560  Biso   1.000  C
  H657     1.0000 0.60440  0.00000  0.24540  Biso   1.000  H
  O247     1.0000 0.54871  0.50000  0.82321  Biso   1.000  O
  O248     1.0000 0.54844  0.50000  0.76583  Biso   1.000  O
  C574     1.0000 0.56146  0.50000  0.79550  Biso   1.000  C
  C575     1.0000 0.60010  0.50000  0.79520  Biso   1.000  C
  C576     1.0000 0.61550  0.50000  0.82500  Biso   1.000  C
  H658     1.0000 0.60300  0.50000  0.84520  Biso   1.000  H
  C577     1.0000 0.65140  0.50000  0.82560  Biso   1.000  C
  C578     1.0000 0.66540  0.50000  0.79480  Biso   1.000  C
  C579     1.0000 0.64900  0.50000  0.76450  Biso   1.000  C
  H659     1.0000 0.66080  0.50000  0.74390  Biso   1.000  H
  C580     1.0000 0.61670  0.50000  0.76560  Biso   1.000  C
  H660     1.0000 0.60440  0.50000  0.74540  Biso   1.000  H
  O249     1.0000 0.04871  0.00000  0.17679  Biso   1.000  O
  O250     1.0000 0.04844  0.00000  0.23417  Biso   1.000  O
  C581     1.0000 0.06146  0.00000  0.20450  Biso   1.000  C
  C582     1.0000 0.10010  0.00000  0.20480  Biso   1.000  C
  C583     1.0000 0.11550  0.00000  0.17500  Biso   1.000  C
  H661     1.0000 0.10300  0.00000  0.15480  Biso   1.000  H
  C584     1.0000 0.15140  0.00000  0.17440  Biso   1.000  C
  C585     1.0000 0.16540  0.00000  0.20520  Biso   1.000  C
  C586     1.0000 0.14900  0.00000  0.23550  Biso   1.000  C
  H662     1.0000 0.16080  0.00000  0.25610  Biso   1.000  H
  C587     1.0000 0.11670  0.00000  0.23440  Biso   1.000  C
  H663     1.0000 0.10440  0.00000  0.25460  Biso   1.000  H
  O251     1.0000 0.04871  0.50000  0.67679  Biso   1.000  O
  O252     1.0000 0.04844  0.50000  0.73417  Biso   1.000  O
  C588     1.0000 0.06146  0.50000  0.70450  Biso   1.000  C
  C589     1.0000 0.10010  0.50000  0.70480  Biso   1.000  C
  C590     1.0000 0.11550  0.50000  0.67500  Biso   1.000  C
  H664     1.0000 0.10300  0.50000  0.65480  Biso   1.000  H
  C591     1.0000 0.15140  0.50000  0.67440  Biso   1.000  C
  C592     1.0000 0.16540  0.50000  0.70520  Biso   1.000  C
  C593     1.0000 0.14900  0.50000  0.73550  Biso   1.000  C
  H665     1.0000 0.16080  0.50000  0.75610  Biso   1.000  H
  C594     1.0000 0.11670  0.50000  0.73440  Biso   1.000  C
  H666     1.0000 0.10440  0.50000  0.75460  Biso   1.000  H
  O253     1.0000 0.54871  0.00000  0.67679  Biso   1.000  O
  O254     1.0000 0.54844  0.00000  0.73417  Biso   1.000  O
  C595     1.0000 0.56146  0.00000  0.70450  Biso   1.000  C
  C596     1.0000 0.60010  0.00000  0.70480  Biso   1.000  C
  C597     1.0000 0.61550  0.00000  0.67500  Biso   1.000  C
  H667     1.0000 0.60300  0.00000  0.65480  Biso   1.000  H
  C598     1.0000 0.65140  0.00000  0.67440  Biso   1.000  C
  C599     1.0000 0.66540  0.00000  0.70520  Biso   1.000  C
  C600     1.0000 0.64900  0.00000  0.73550  Biso   1.000  C
  H668     1.0000 0.66080  0.00000  0.75610  Biso   1.000  H
  C601     1.0000 0.61670  0.00000  0.73440  Biso   1.000  C
  H669     1.0000 0.60440  0.00000  0.75460  Biso   1.000  H
  O255     1.0000 0.54871  0.50000  0.17679  Biso   1.000  O
  O256     1.0000 0.54844  0.50000  0.23417  Biso   1.000  O
  C602     1.0000 0.56146  0.50000  0.20450  Biso   1.000  C
  C603     1.0000 0.60010  0.50000  0.20480  Biso   1.000  C
  C604     1.0000 0.61550  0.50000  0.17500  Biso   1.000  C
  H670     1.0000 0.60300  0.50000  0.15480  Biso   1.000  H
  C605     1.0000 0.65140  0.50000  0.17440  Biso   1.000  C
  C606     1.0000 0.66540  0.50000  0.20520  Biso   1.000  C
  C607     1.0000 0.64900  0.50000  0.23550  Biso   1.000  C
  H671     1.0000 0.66080  0.50000  0.25610  Biso   1.000  H
  C608     1.0000 0.61670  0.50000  0.23440  Biso   1.000  C
  H672     1.0000 0.60440  0.50000  0.25460  Biso   1.000  H
  O257     1.0000 0.82321  0.95129  0.00000  Biso   1.000  O
  O258     1.0000 0.76583  0.95156  0.00000  Biso   1.000  O
  C609     1.0000 0.79550  0.93854  0.00000  Biso   1.000  C
  C610     1.0000 0.79520  0.89990  0.00000  Biso   1.000  C
  C611     1.0000 0.82500  0.88450  0.00000  Biso   1.000  C
  H673     1.0000 0.84520  0.89700  0.00000  Biso   1.000  H
  C612     1.0000 0.82560  0.84860  0.00000  Biso   1.000  C
  C613     1.0000 0.79480  0.83460  0.00000  Biso   1.000  C
  C614     1.0000 0.76450  0.85100  0.00000  Biso   1.000  C
  H674     1.0000 0.74390  0.83920  0.00000  Biso   1.000  H
  C615     1.0000 0.76560  0.88330  0.00000  Biso   1.000  C
  H675     1.0000 0.74540  0.89560  0.00000  Biso   1.000  H
  O259     1.0000 0.82321  0.45129  0.50000  Biso   1.000  O
  O260     1.0000 0.76583  0.45156  0.50000  Biso   1.000  O
  C616     1.0000 0.79550  0.43854  0.50000  Biso   1.000  C
  C617     1.0000 0.79520  0.39990  0.50000  Biso   1.000  C
  C618     1.0000 0.82500  0.38450  0.50000  Biso   1.000  C
  H676     1.0000 0.84520  0.39700  0.50000  Biso   1.000  H
  C619     1.0000 0.82560  0.34860  0.50000  Biso   1.000  C
  C620     1.0000 0.79480  0.33460  0.50000  Biso   1.000  C
  C621     1.0000 0.76450  0.35100  0.50000  Biso   1.000  C
  H677     1.0000 0.74390  0.33920  0.50000  Biso   1.000  H
  C622     1.0000 0.76560  0.38330  0.50000  Biso   1.000  C
  H678     1.0000 0.74540  0.39560  0.50000  Biso   1.000  H
  O261     1.0000 0.32321  0.95129  0.50000  Biso   1.000  O
  O262     1.0000 0.26583  0.95156  0.50000  Biso   1.000  O
  C623     1.0000 0.29550  0.93854  0.50000  Biso   1.000  C
  C624     1.0000 0.29520  0.89990  0.50000  Biso   1.000  C
  C625     1.0000 0.32500  0.88450  0.50000  Biso   1.000  C
  H679     1.0000 0.34520  0.89700  0.50000  Biso   1.000  H
  C626     1.0000 0.32560  0.84860  0.50000  Biso   1.000  C
  C627     1.0000 0.29480  0.83460  0.50000  Biso   1.000  C
  C628     1.0000 0.26450  0.85100  0.50000  Biso   1.000  C
  H680     1.0000 0.24390  0.83920  0.50000  Biso   1.000  H
  C629     1.0000 0.26560  0.88330  0.50000  Biso   1.000  C
  H681     1.0000 0.24540  0.89560  0.50000  Biso   1.000  H
  O263     1.0000 0.32321  0.45129  0.00000  Biso   1.000  O
  O264     1.0000 0.26583  0.45156  0.00000  Biso   1.000  O
  C630     1.0000 0.29550  0.43854  0.00000  Biso   1.000  C
  C631     1.0000 0.29520  0.39990  0.00000  Biso   1.000  C
  C632     1.0000 0.32500  0.38450  0.00000  Biso   1.000  C
  H682     1.0000 0.34520  0.39700  0.00000  Biso   1.000  H
  C633     1.0000 0.32560  0.34860  0.00000  Biso   1.000  C
  C634     1.0000 0.29480  0.33460  0.00000  Biso   1.000  C
  C635     1.0000 0.26450  0.35100  0.00000  Biso   1.000  C
  H683     1.0000 0.24390  0.33920  0.00000  Biso   1.000  H
  C636     1.0000 0.26560  0.38330  0.00000  Biso   1.000  C
  H684     1.0000 0.24540  0.39560  0.00000  Biso   1.000  H
  O265     1.0000 0.17679  0.95129  0.00000  Biso   1.000  O
  O266     1.0000 0.23417  0.95156  0.00000  Biso   1.000  O
  C637     1.0000 0.20450  0.93854  0.00000  Biso   1.000  C
  C638     1.0000 0.20480  0.89990  0.00000  Biso   1.000  C
  C639     1.0000 0.17500  0.88450  0.00000  Biso   1.000  C
  H685     1.0000 0.15480  0.89700  0.00000  Biso   1.000  H
  C640     1.0000 0.17440  0.84860  0.00000  Biso   1.000  C
  C641     1.0000 0.20520  0.83460  0.00000  Biso   1.000  C
  C642     1.0000 0.23550  0.85100  0.00000  Biso   1.000  C
  H686     1.0000 0.25610  0.83920  0.00000  Biso   1.000  H
  C643     1.0000 0.23440  0.88330  0.00000  Biso   1.000  C
  H687     1.0000 0.25460  0.89560  0.00000  Biso   1.000  H
  O267     1.0000 0.17679  0.45129  0.50000  Biso   1.000  O
  O268     1.0000 0.23417  0.45156  0.50000  Biso   1.000  O
  C644     1.0000 0.20450  0.43854  0.50000  Biso   1.000  C
  C645     1.0000 0.20480  0.39990  0.50000  Biso   1.000  C
  C646     1.0000 0.17500  0.38450  0.50000  Biso   1.000  C
  H688     1.0000 0.15480  0.39700  0.50000  Biso   1.000  H
  C647     1.0000 0.17440  0.34860  0.50000  Biso   1.000  C
  C648     1.0000 0.20520  0.33460  0.50000  Biso   1.000  C
  C649     1.0000 0.23550  0.35100  0.50000  Biso   1.000  C
  H689     1.0000 0.25610  0.33920  0.50000  Biso   1.000  H
  C650     1.0000 0.23440  0.38330  0.50000  Biso   1.000  C
  H690     1.0000 0.25460  0.39560  0.50000  Biso   1.000  H
  O269     1.0000 0.67679  0.95129  0.50000  Biso   1.000  O
  O270     1.0000 0.73417  0.95156  0.50000  Biso   1.000  O
  C651     1.0000 0.70450  0.93854  0.50000  Biso   1.000  C
  C652     1.0000 0.70480  0.89990  0.50000  Biso   1.000  C
  C653     1.0000 0.67500  0.88450  0.50000  Biso   1.000  C
  H691     1.0000 0.65480  0.89700  0.50000  Biso   1.000  H
  C654     1.0000 0.67440  0.84860  0.50000  Biso   1.000  C
  C655     1.0000 0.70520  0.83460  0.50000  Biso   1.000  C
  C656     1.0000 0.73550  0.85100  0.50000  Biso   1.000  C
  H692     1.0000 0.75610  0.83920  0.50000  Biso   1.000  H
  C657     1.0000 0.73440  0.88330  0.50000  Biso   1.000  C
  H693     1.0000 0.75460  0.89560  0.50000  Biso   1.000  H
  O271     1.0000 0.67679  0.45129  0.00000  Biso   1.000  O
  O272     1.0000 0.73417  0.45156  0.00000  Biso   1.000  O
  C658     1.0000 0.70450  0.43854  0.00000  Biso   1.000  C
  C659     1.0000 0.70480  0.39990  0.00000  Biso   1.000  C
  C660     1.0000 0.67500  0.38450  0.00000  Biso   1.000  C
  H694     1.0000 0.65480  0.39700  0.00000  Biso   1.000  H
  C661     1.0000 0.67440  0.34860  0.00000  Biso   1.000  C
  C662     1.0000 0.70520  0.33460  0.00000  Biso   1.000  C
  C663     1.0000 0.73550  0.35100  0.00000  Biso   1.000  C
  H695     1.0000 0.75610  0.33920  0.00000  Biso   1.000  H
  C664     1.0000 0.73440  0.38330  0.00000  Biso   1.000  C
  H696     1.0000 0.75460  0.39560  0.00000  Biso   1.000  H
  O273     1.0000 0.82321  0.04871  0.00000  Biso   1.000  O
  O274     1.0000 0.76583  0.04844  0.00000  Biso   1.000  O
  C665     1.0000 0.79550  0.06146  0.00000  Biso   1.000  C
  C666     1.0000 0.79520  0.10010  0.00000  Biso   1.000  C
  C667     1.0000 0.82500  0.11550  0.00000  Biso   1.000  C
  H697     1.0000 0.84520  0.10300  0.00000  Biso   1.000  H
  C668     1.0000 0.82560  0.15140  0.00000  Biso   1.000  C
  C669     1.0000 0.79480  0.16540  0.00000  Biso   1.000  C
  C670     1.0000 0.76450  0.14900  0.00000  Biso   1.000  C
  H698     1.0000 0.74390  0.16080  0.00000  Biso   1.000  H
  C671     1.0000 0.76560  0.11670  0.00000  Biso   1.000  C
  H699     1.0000 0.74540  0.10440  0.00000  Biso   1.000  H
  O275     1.0000 0.82321  0.54871  0.50000  Biso   1.000  O
  O276     1.0000 0.76583  0.54844  0.50000  Biso   1.000  O
  C672     1.0000 0.79550  0.56146  0.50000  Biso   1.000  C
  C673     1.0000 0.79520  0.60010  0.50000  Biso   1.000  C
  C674     1.0000 0.82500  0.61550  0.50000  Biso   1.000  C
  H700     1.0000 0.84520  0.60300  0.50000  Biso   1.000  H
  C675     1.0000 0.82560  0.65140  0.50000  Biso   1.000  C
  C676     1.0000 0.79480  0.66540  0.50000  Biso   1.000  C
  C677     1.0000 0.76450  0.64900  0.50000  Biso   1.000  C
  H701     1.0000 0.74390  0.66080  0.50000  Biso   1.000  H
  C678     1.0000 0.76560  0.61670  0.50000  Biso   1.000  C
  H702     1.0000 0.74540  0.60440  0.50000  Biso   1.000  H
  O277     1.0000 0.32321  0.04871  0.50000  Biso   1.000  O
  O278     1.0000 0.26583  0.04844  0.50000  Biso   1.000  O
  C679     1.0000 0.29550  0.06146  0.50000  Biso   1.000  C
  C680     1.0000 0.29520  0.10010  0.50000  Biso   1.000  C
  C681     1.0000 0.32500  0.11550  0.50000  Biso   1.000  C
  H703     1.0000 0.34520  0.10300  0.50000  Biso   1.000  H
  C682     1.0000 0.32560  0.15140  0.50000  Biso   1.000  C
  C683     1.0000 0.29480  0.16540  0.50000  Biso   1.000  C
  C684     1.0000 0.26450  0.14900  0.50000  Biso   1.000  C
  H704     1.0000 0.24390  0.16080  0.50000  Biso   1.000  H
  C685     1.0000 0.26560  0.11670  0.50000  Biso   1.000  C
  H705     1.0000 0.24540  0.10440  0.50000  Biso   1.000  H
  O279     1.0000 0.32321  0.54871  0.00000  Biso   1.000  O
  O280     1.0000 0.26583  0.54844  0.00000  Biso   1.000  O
  C686     1.0000 0.29550  0.56146  0.00000  Biso   1.000  C
  C687     1.0000 0.29520  0.60010  0.00000  Biso   1.000  C
  C688     1.0000 0.32500  0.61550  0.00000  Biso   1.000  C
  H706     1.0000 0.34520  0.60300  0.00000  Biso   1.000  H
  C689     1.0000 0.32560  0.65140  0.00000  Biso   1.000  C
  C690     1.0000 0.29480  0.66540  0.00000  Biso   1.000  C
  C691     1.0000 0.26450  0.64900  0.00000  Biso   1.000  C
  H707     1.0000 0.24390  0.66080  0.00000  Biso   1.000  H
  C692     1.0000 0.26560  0.61670  0.00000  Biso   1.000  C
  H708     1.0000 0.24540  0.60440  0.00000  Biso   1.000  H
  O281     1.0000 0.17679  0.04871  0.00000  Biso   1.000  O
  O282     1.0000 0.23417  0.04844  0.00000  Biso   1.000  O
  C693     1.0000 0.20450  0.06146  0.00000  Biso   1.000  C
  C694     1.0000 0.20480  0.10010  0.00000  Biso   1.000  C
  C695     1.0000 0.17500  0.11550  0.00000  Biso   1.000  C
  H709     1.0000 0.15480  0.10300  0.00000  Biso   1.000  H
  C696     1.0000 0.17440  0.15140  0.00000  Biso   1.000  C
  C697     1.0000 0.20520  0.16540  0.00000  Biso   1.000  C
  C698     1.0000 0.23550  0.14900  0.00000  Biso   1.000  C
  H710     1.0000 0.25610  0.16080  0.00000  Biso   1.000  H
  C699     1.0000 0.23440  0.11670  0.00000  Biso   1.000  C
  H711     1.0000 0.25460  0.10440  0.00000  Biso   1.000  H
  O283     1.0000 0.17679  0.54871  0.50000  Biso   1.000  O
  O284     1.0000 0.23417  0.54844  0.50000  Biso   1.000  O
  C700     1.0000 0.20450  0.56146  0.50000  Biso   1.000  C
  C701     1.0000 0.20480  0.60010  0.50000  Biso   1.000  C
  C702     1.0000 0.17500  0.61550  0.50000  Biso   1.000  C
  H712     1.0000 0.15480  0.60300  0.50000  Biso   1.000  H
  C703     1.0000 0.17440  0.65140  0.50000  Biso   1.000  C
  C704     1.0000 0.20520  0.66540  0.50000  Biso   1.000  C
  C705     1.0000 0.23550  0.64900  0.50000  Biso   1.000  C
  H713     1.0000 0.25610  0.66080  0.50000  Biso   1.000  H
  C706     1.0000 0.23440  0.61670  0.50000  Biso   1.000  C
  H714     1.0000 0.25460  0.60440  0.50000  Biso   1.000  H
  O285     1.0000 0.67679  0.04871  0.50000  Biso   1.000  O
  O286     1.0000 0.73417  0.04844  0.50000  Biso   1.000  O
  C707     1.0000 0.70450  0.06146  0.50000  Biso   1.000  C
  C708     1.0000 0.70480  0.10010  0.50000  Biso   1.000  C
  C709     1.0000 0.67500  0.11550  0.50000  Biso   1.000  C
  H715     1.0000 0.65480  0.10300  0.50000  Biso   1.000  H
  C710     1.0000 0.67440  0.15140  0.50000  Biso   1.000  C
  C711     1.0000 0.70520  0.16540  0.50000  Biso   1.000  C
  C712     1.0000 0.73550  0.14900  0.50000  Biso   1.000  C
  H716     1.0000 0.75610  0.16080  0.50000  Biso   1.000  H
  C713     1.0000 0.73440  0.11670  0.50000  Biso   1.000  C
  H717     1.0000 0.75460  0.10440  0.50000  Biso   1.000  H
  O287     1.0000 0.67679  0.54871  0.00000  Biso   1.000  O
  O288     1.0000 0.73417  0.54844  0.00000  Biso   1.000  O
  C714     1.0000 0.70450  0.56146  0.00000  Biso   1.000  C
  C715     1.0000 0.70480  0.60010  0.00000  Biso   1.000  C
  C716     1.0000 0.67500  0.61550  0.00000  Biso   1.000  C
  H718     1.0000 0.65480  0.60300  0.00000  Biso   1.000  H
  C717     1.0000 0.67440  0.65140  0.00000  Biso   1.000  C
  C718     1.0000 0.70520  0.66540  0.00000  Biso   1.000  C
  C719     1.0000 0.73550  0.64900  0.00000  Biso   1.000  C
  H719     1.0000 0.75610  0.66080  0.00000  Biso   1.000  H
  C720     1.0000 0.73440  0.61670  0.00000  Biso   1.000  C
  H720     1.0000 0.75460  0.60440  0.00000  Biso   1.000  H
  O289     1.0000 0.82321  0.00000  0.04871  Biso   1.000  O
  O290     1.0000 0.76583  0.00000  0.04844  Biso   1.000  O
  C721     1.0000 0.79550  0.00000  0.06146  Biso   1.000  C
  C722     1.0000 0.79520  0.00000  0.10010  Biso   1.000  C
  C723     1.0000 0.82500  0.00000  0.11550  Biso   1.000  C
  H721     1.0000 0.84520  0.00000  0.10300  Biso   1.000  H
  C724     1.0000 0.82560  0.00000  0.15140  Biso   1.000  C
  C725     1.0000 0.79480  0.00000  0.16540  Biso   1.000  C
  C726     1.0000 0.76450  0.00000  0.14900  Biso   1.000  C
  H722     1.0000 0.74390  0.00000  0.16080  Biso   1.000  H
  C727     1.0000 0.76560  0.00000  0.11670  Biso   1.000  C
  H723     1.0000 0.74540  0.00000  0.10440  Biso   1.000  H
  O291     1.0000 0.82321  0.50000  0.54871  Biso   1.000  O
  O292     1.0000 0.76583  0.50000  0.54844  Biso   1.000  O
  C728     1.0000 0.79550  0.50000  0.56146  Biso   1.000  C
  C729     1.0000 0.79520  0.50000  0.60010  Biso   1.000  C
  C730     1.0000 0.82500  0.50000  0.61550  Biso   1.000  C
  H724     1.0000 0.84520  0.50000  0.60300  Biso   1.000  H
  C731     1.0000 0.82560  0.50000  0.65140  Biso   1.000  C
  C732     1.0000 0.79480  0.50000  0.66540  Biso   1.000  C
  C733     1.0000 0.76450  0.50000  0.64900  Biso   1.000  C
  H725     1.0000 0.74390  0.50000  0.66080  Biso   1.000  H
  C734     1.0000 0.76560  0.50000  0.61670  Biso   1.000  C
  H726     1.0000 0.74540  0.50000  0.60440  Biso   1.000  H
  O293     1.0000 0.32321  0.00000  0.54871  Biso   1.000  O
  O294     1.0000 0.26583  0.00000  0.54844  Biso   1.000  O
  C735     1.0000 0.29550  0.00000  0.56146  Biso   1.000  C
  C736     1.0000 0.29520  0.00000  0.60010  Biso   1.000  C
  C737     1.0000 0.32500  0.00000  0.61550  Biso   1.000  C
  H727     1.0000 0.34520  0.00000  0.60300  Biso   1.000  H
  C738     1.0000 0.32560  0.00000  0.65140  Biso   1.000  C
  C739     1.0000 0.29480  0.00000  0.66540  Biso   1.000  C
  C740     1.0000 0.26450  0.00000  0.64900  Biso   1.000  C
  H728     1.0000 0.24390  0.00000  0.66080  Biso   1.000  H
  C741     1.0000 0.26560  0.00000  0.61670  Biso   1.000  C
  H729     1.0000 0.24540  0.00000  0.60440  Biso   1.000  H
  O295     1.0000 0.32321  0.50000  0.04871  Biso   1.000  O
  O296     1.0000 0.26583  0.50000  0.04844  Biso   1.000  O
  C742     1.0000 0.29550  0.50000  0.06146  Biso   1.000  C
  C743     1.0000 0.29520  0.50000  0.10010  Biso   1.000  C
  C744     1.0000 0.32500  0.50000  0.11550  Biso   1.000  C
  H730     1.0000 0.34520  0.50000  0.10300  Biso   1.000  H
  C745     1.0000 0.32560  0.50000  0.15140  Biso   1.000  C
  C746     1.0000 0.29480  0.50000  0.16540  Biso   1.000  C
  C747     1.0000 0.26450  0.50000  0.14900  Biso   1.000  C
  H731     1.0000 0.24390  0.50000  0.16080  Biso   1.000  H
  C748     1.0000 0.26560  0.50000  0.11670  Biso   1.000  C
  H732     1.0000 0.24540  0.50000  0.10440  Biso   1.000  H
  O297     1.0000 0.17679  0.00000  0.04871  Biso   1.000  O
  O298     1.0000 0.23417  0.00000  0.04844  Biso   1.000  O
  C749     1.0000 0.20450  0.00000  0.06146  Biso   1.000  C
  C750     1.0000 0.20480  0.00000  0.10010  Biso   1.000  C
  C751     1.0000 0.17500  0.00000  0.11550  Biso   1.000  C
  H733     1.0000 0.15480  0.00000  0.10300  Biso   1.000  H
  C752     1.0000 0.17440  0.00000  0.15140  Biso   1.000  C
  C753     1.0000 0.20520  0.00000  0.16540  Biso   1.000  C
  C754     1.0000 0.23550  0.00000  0.14900  Biso   1.000  C
  H734     1.0000 0.25610  0.00000  0.16080  Biso   1.000  H
  C755     1.0000 0.23440  0.00000  0.11670  Biso   1.000  C
  H735     1.0000 0.25460  0.00000  0.10440  Biso   1.000  H
  O299     1.0000 0.17679  0.50000  0.54871  Biso   1.000  O
  O300     1.0000 0.23417  0.50000  0.54844  Biso   1.000  O
  C756     1.0000 0.20450  0.50000  0.56146  Biso   1.000  C
  C757     1.0000 0.20480  0.50000  0.60010  Biso   1.000  C
  C758     1.0000 0.17500  0.50000  0.61550  Biso   1.000  C
  H736     1.0000 0.15480  0.50000  0.60300  Biso   1.000  H
  C759     1.0000 0.17440  0.50000  0.65140  Biso   1.000  C
  C760     1.0000 0.20520  0.50000  0.66540  Biso   1.000  C
  C761     1.0000 0.23550  0.50000  0.64900  Biso   1.000  C
  H737     1.0000 0.25610  0.50000  0.66080  Biso   1.000  H
  C762     1.0000 0.23440  0.50000  0.61670  Biso   1.000  C
  H738     1.0000 0.25460  0.50000  0.60440  Biso   1.000  H
  O301     1.0000 0.67679  0.00000  0.54871  Biso   1.000  O
  O302     1.0000 0.73417  0.00000  0.54844  Biso   1.000  O
  C763     1.0000 0.70450  0.00000  0.56146  Biso   1.000  C
  C764     1.0000 0.70480  0.00000  0.60010  Biso   1.000  C
  C765     1.0000 0.67500  0.00000  0.61550  Biso   1.000  C
  H739     1.0000 0.65480  0.00000  0.60300  Biso   1.000  H
  C766     1.0000 0.67440  0.00000  0.65140  Biso   1.000  C
  C767     1.0000 0.70520  0.00000  0.66540  Biso   1.000  C
  C768     1.0000 0.73550  0.00000  0.64900  Biso   1.000  C
  H740     1.0000 0.75610  0.00000  0.66080  Biso   1.000  H
  C769     1.0000 0.73440  0.00000  0.61670  Biso   1.000  C
  H741     1.0000 0.75460  0.00000  0.60440  Biso   1.000  H
  O303     1.0000 0.67679  0.50000  0.04871  Biso   1.000  O
  O304     1.0000 0.73417  0.50000  0.04844  Biso   1.000  O
  C770     1.0000 0.70450  0.50000  0.06146  Biso   1.000  C
  C771     1.0000 0.70480  0.50000  0.10010  Biso   1.000  C
  C772     1.0000 0.67500  0.50000  0.11550  Biso   1.000  C
  H742     1.0000 0.65480  0.50000  0.10300  Biso   1.000  H
  C773     1.0000 0.67440  0.50000  0.15140  Biso   1.000  C
  C774     1.0000 0.70520  0.50000  0.16540  Biso   1.000  C
  C775     1.0000 0.73550  0.50000  0.14900  Biso   1.000  C
  H743     1.0000 0.75610  0.50000  0.16080  Biso   1.000  H
  C776     1.0000 0.73440  0.50000  0.11670  Biso   1.000  C
  H744     1.0000 0.75460  0.50000  0.10440  Biso   1.000  H
  O305     1.0000 0.82321  0.00000  0.95129  Biso   1.000  O
  O306     1.0000 0.76583  0.00000  0.95156  Biso   1.000  O
  C777     1.0000 0.79550  0.00000  0.93854  Biso   1.000  C
  C778     1.0000 0.79520  0.00000  0.89990  Biso   1.000  C
  C779     1.0000 0.82500  0.00000  0.88450  Biso   1.000  C
  H745     1.0000 0.84520  0.00000  0.89700  Biso   1.000  H
  C780     1.0000 0.82560  0.00000  0.84860  Biso   1.000  C
  C781     1.0000 0.79480  0.00000  0.83460  Biso   1.000  C
  C782     1.0000 0.76450  0.00000  0.85100  Biso   1.000  C
  H746     1.0000 0.74390  0.00000  0.83920  Biso   1.000  H
  C783     1.0000 0.76560  0.00000  0.88330  Biso   1.000  C
  H747     1.0000 0.74540  0.00000  0.89560  Biso   1.000  H
  O307     1.0000 0.82321  0.50000  0.45129  Biso   1.000  O
  O308     1.0000 0.76583  0.50000  0.45156  Biso   1.000  O
  C784     1.0000 0.79550  0.50000  0.43854  Biso   1.000  C
  C785     1.0000 0.79520  0.50000  0.39990  Biso   1.000  C
  C786     1.0000 0.82500  0.50000  0.38450  Biso   1.000  C
  H748     1.0000 0.84520  0.50000  0.39700  Biso   1.000  H
  C787     1.0000 0.82560  0.50000  0.34860  Biso   1.000  C
  C788     1.0000 0.79480  0.50000  0.33460  Biso   1.000  C
  C789     1.0000 0.76450  0.50000  0.35100  Biso   1.000  C
  H749     1.0000 0.74390  0.50000  0.33920  Biso   1.000  H
  C790     1.0000 0.76560  0.50000  0.38330  Biso   1.000  C
  H750     1.0000 0.74540  0.50000  0.39560  Biso   1.000  H
  O309     1.0000 0.32321  0.00000  0.45129  Biso   1.000  O
  O310     1.0000 0.26583  0.00000  0.45156  Biso   1.000  O
  C791     1.0000 0.29550  0.00000  0.43854  Biso   1.000  C
  C792     1.0000 0.29520  0.00000  0.39990  Biso   1.000  C
  C793     1.0000 0.32500  0.00000  0.38450  Biso   1.000  C
  H751     1.0000 0.34520  0.00000  0.39700  Biso   1.000  H
  C794     1.0000 0.32560  0.00000  0.34860  Biso   1.000  C
  C795     1.0000 0.29480  0.00000  0.33460  Biso   1.000  C
  C796     1.0000 0.26450  0.00000  0.35100  Biso   1.000  C
  H752     1.0000 0.24390  0.00000  0.33920  Biso   1.000  H
  C797     1.0000 0.26560  0.00000  0.38330  Biso   1.000  C
  H753     1.0000 0.24540  0.00000  0.39560  Biso   1.000  H
  O311     1.0000 0.32321  0.50000  0.95129  Biso   1.000  O
  O312     1.0000 0.26583  0.50000  0.95156  Biso   1.000  O
  C798     1.0000 0.29550  0.50000  0.93854  Biso   1.000  C
  C799     1.0000 0.29520  0.50000  0.89990  Biso   1.000  C
  C800     1.0000 0.32500  0.50000  0.88450  Biso   1.000  C
  H754     1.0000 0.34520  0.50000  0.89700  Biso   1.000  H
  C801     1.0000 0.32560  0.50000  0.84860  Biso   1.000  C
  C802     1.0000 0.29480  0.50000  0.83460  Biso   1.000  C
  C803     1.0000 0.26450  0.50000  0.85100  Biso   1.000  C
  H755     1.0000 0.24390  0.50000  0.83920  Biso   1.000  H
  C804     1.0000 0.26560  0.50000  0.88330  Biso   1.000  C
  H756     1.0000 0.24540  0.50000  0.89560  Biso   1.000  H
  O313     1.0000 0.17679  0.00000  0.95129  Biso   1.000  O
  O314     1.0000 0.23417  0.00000  0.95156  Biso   1.000  O
  C805     1.0000 0.20450  0.00000  0.93854  Biso   1.000  C
  C806     1.0000 0.20480  0.00000  0.89990  Biso   1.000  C
  C807     1.0000 0.17500  0.00000  0.88450  Biso   1.000  C
  H757     1.0000 0.15480  0.00000  0.89700  Biso   1.000  H
  C808     1.0000 0.17440  0.00000  0.84860  Biso   1.000  C
  C809     1.0000 0.20520  0.00000  0.83460  Biso   1.000  C
  C810     1.0000 0.23550  0.00000  0.85100  Biso   1.000  C
  H758     1.0000 0.25610  0.00000  0.83920  Biso   1.000  H
  C811     1.0000 0.23440  0.00000  0.88330  Biso   1.000  C
  H759     1.0000 0.25460  0.00000  0.89560  Biso   1.000  H
  O315     1.0000 0.17679  0.50000  0.45129  Biso   1.000  O
  O316     1.0000 0.23417  0.50000  0.45156  Biso   1.000  O
  C812     1.0000 0.20450  0.50000  0.43854  Biso   1.000  C
  C813     1.0000 0.20480  0.50000  0.39990  Biso   1.000  C
  C814     1.0000 0.17500  0.50000  0.38450  Biso   1.000  C
  H760     1.0000 0.15480  0.50000  0.39700  Biso   1.000  H
  C815     1.0000 0.17440  0.50000  0.34860  Biso   1.000  C
  C816     1.0000 0.20520  0.50000  0.33460  Biso   1.000  C
  C817     1.0000 0.23550  0.50000  0.35100  Biso   1.000  C
  H761     1.0000 0.25610  0.50000  0.33920  Biso   1.000  H
  C818     1.0000 0.23440  0.50000  0.38330  Biso   1.000  C
  H762     1.0000 0.25460  0.50000  0.39560  Biso   1.000  H
  O317     1.0000 0.67679  0.00000  0.45129  Biso   1.000  O
  O318     1.0000 0.73417  0.00000  0.45156  Biso   1.000  O
  C819     1.0000 0.70450  0.00000  0.43854  Biso   1.000  C
  C820     1.0000 0.70480  0.00000  0.39990  Biso   1.000  C
  C821     1.0000 0.67500  0.00000  0.38450  Biso   1.000  C
  H763     1.0000 0.65480  0.00000  0.39700  Biso   1.000  H
  C822     1.0000 0.67440  0.00000  0.34860  Biso   1.000  C
  C823     1.0000 0.70520  0.00000  0.33460  Biso   1.000  C
  C824     1.0000 0.73550  0.00000  0.35100  Biso   1.000  C
  H764     1.0000 0.75610  0.00000  0.33920  Biso   1.000  H
  C825     1.0000 0.73440  0.00000  0.38330  Biso   1.000  C
  H765     1.0000 0.75460  0.00000  0.39560  Biso   1.000  H
  O319     1.0000 0.67679  0.50000  0.95129  Biso   1.000  O
  O320     1.0000 0.73417  0.50000  0.95156  Biso   1.000  O
  C826     1.0000 0.70450  0.50000  0.93854  Biso   1.000  C
  C827     1.0000 0.70480  0.50000  0.89990  Biso   1.000  C
  C828     1.0000 0.67500  0.50000  0.88450  Biso   1.000  C
  H766     1.0000 0.65480  0.50000  0.89700  Biso   1.000  H
  C829     1.0000 0.67440  0.50000  0.84860  Biso   1.000  C
  C830     1.0000 0.70520  0.50000  0.83460  Biso   1.000  C
  C831     1.0000 0.73550  0.50000  0.85100  Biso   1.000  C
  H767     1.0000 0.75610  0.50000  0.83920  Biso   1.000  H
  C832     1.0000 0.73440  0.50000  0.88330  Biso   1.000  C
  H768     1.0000 0.75460  0.50000  0.89560  Biso   1.000  H
  O321     1.0000 0.00000  0.95129  0.17679  Biso   1.000  O
  O322     1.0000 0.00000  0.95156  0.23417  Biso   1.000  O
  C833     1.0000 0.00000  0.93854  0.20450  Biso   1.000  C
  C834     1.0000 0.00000  0.89990  0.20480  Biso   1.000  C
  C835     1.0000 0.00000  0.88450  0.17500  Biso   1.000  C
  H769     1.0000 0.00000  0.89700  0.15480  Biso   1.000  H
  C836     1.0000 0.00000  0.84860  0.17440  Biso   1.000  C
  C837     1.0000 0.00000  0.83460  0.20520  Biso   1.000  C
  C838     1.0000 0.00000  0.85100  0.23550  Biso   1.000  C
  H770     1.0000 0.00000  0.83920  0.25610  Biso   1.000  H
  C839     1.0000 0.00000  0.88330  0.23440  Biso   1.000  C
  H771     1.0000 0.00000  0.89560  0.25460  Biso   1.000  H
  O323     1.0000 0.00000  0.45129  0.67679  Biso   1.000  O
  O324     1.0000 0.00000  0.45156  0.73417  Biso   1.000  O
  C840     1.0000 0.00000  0.43854  0.70450  Biso   1.000  C
  C841     1.0000 0.00000  0.39990  0.70480  Biso   1.000  C
  C842     1.0000 0.00000  0.38450  0.67500  Biso   1.000  C
  H772     1.0000 0.00000  0.39700  0.65480  Biso   1.000  H
  C843     1.0000 0.00000  0.34860  0.67440  Biso   1.000  C
  C844     1.0000 0.00000  0.33460  0.70520  Biso   1.000  C
  C845     1.0000 0.00000  0.35100  0.73550  Biso   1.000  C
  H773     1.0000 0.00000  0.33920  0.75610  Biso   1.000  H
  C846     1.0000 0.00000  0.38330  0.73440  Biso   1.000  C
  H774     1.0000 0.00000  0.39560  0.75460  Biso   1.000  H
  O325     1.0000 0.50000  0.95129  0.67679  Biso   1.000  O
  O326     1.0000 0.50000  0.95156  0.73417  Biso   1.000  O
  C847     1.0000 0.50000  0.93854  0.70450  Biso   1.000  C
  C848     1.0000 0.50000  0.89990  0.70480  Biso   1.000  C
  C849     1.0000 0.50000  0.88450  0.67500  Biso   1.000  C
  H775     1.0000 0.50000  0.89700  0.65480  Biso   1.000  H
  C850     1.0000 0.50000  0.84860  0.67440  Biso   1.000  C
  C851     1.0000 0.50000  0.83460  0.70520  Biso   1.000  C
  C852     1.0000 0.50000  0.85100  0.73550  Biso   1.000  C
  H776     1.0000 0.50000  0.83920  0.75610  Biso   1.000  H
  C853     1.0000 0.50000  0.88330  0.73440  Biso   1.000  C
  H777     1.0000 0.50000  0.89560  0.75460  Biso   1.000  H
  O327     1.0000 0.50000  0.45129  0.17679  Biso   1.000  O
  O328     1.0000 0.50000  0.45156  0.23417  Biso   1.000  O
  C854     1.0000 0.50000  0.43854  0.20450  Biso   1.000  C
  C855     1.0000 0.50000  0.39990  0.20480  Biso   1.000  C
  C856     1.0000 0.50000  0.38450  0.17500  Biso   1.000  C
  H778     1.0000 0.50000  0.39700  0.15480  Biso   1.000  H
  C857     1.0000 0.50000  0.34860  0.17440  Biso   1.000  C
  C858     1.0000 0.50000  0.33460  0.20520  Biso   1.000  C
  C859     1.0000 0.50000  0.35100  0.23550  Biso   1.000  C
  H779     1.0000 0.50000  0.33920  0.25610  Biso   1.000  H
  C860     1.0000 0.50000  0.38330  0.23440  Biso   1.000  C
  H780     1.0000 0.50000  0.39560  0.25460  Biso   1.000  H
  O329     1.0000 0.00000  0.95129  0.82321  Biso   1.000  O
  O330     1.0000 0.00000  0.95156  0.76583  Biso   1.000  O
  C861     1.0000 0.00000  0.93854  0.79550  Biso   1.000  C
  C862     1.0000 0.00000  0.89990  0.79520  Biso   1.000  C
  C863     1.0000 0.00000  0.88450  0.82500  Biso   1.000  C
  H781     1.0000 0.00000  0.89700  0.84520  Biso   1.000  H
  C864     1.0000 0.00000  0.84860  0.82560  Biso   1.000  C
  C865     1.0000 0.00000  0.83460  0.79480  Biso   1.000  C
  C866     1.0000 0.00000  0.85100  0.76450  Biso   1.000  C
  H782     1.0000 0.00000  0.83920  0.74390  Biso   1.000  H
  C867     1.0000 0.00000  0.88330  0.76560  Biso   1.000  C
  H783     1.0000 0.00000  0.89560  0.74540  Biso   1.000  H
  O331     1.0000 0.00000  0.45129  0.32321  Biso   1.000  O
  O332     1.0000 0.00000  0.45156  0.26583  Biso   1.000  O
  C868     1.0000 0.00000  0.43854  0.29550  Biso   1.000  C
  C869     1.0000 0.00000  0.39990  0.29520  Biso   1.000  C
  C870     1.0000 0.00000  0.38450  0.32500  Biso   1.000  C
  H784     1.0000 0.00000  0.39700  0.34520  Biso   1.000  H
  C871     1.0000 0.00000  0.34860  0.32560  Biso   1.000  C
  C872     1.0000 0.00000  0.33460  0.29480  Biso   1.000  C
  C873     1.0000 0.00000  0.35100  0.26450  Biso   1.000  C
  H785     1.0000 0.00000  0.33920  0.24390  Biso   1.000  H
  C874     1.0000 0.00000  0.38330  0.26560  Biso   1.000  C
  H786     1.0000 0.00000  0.39560  0.24540  Biso   1.000  H
  O333     1.0000 0.50000  0.95129  0.32321  Biso   1.000  O
  O334     1.0000 0.50000  0.95156  0.26583  Biso   1.000  O
  C875     1.0000 0.50000  0.93854  0.29550  Biso   1.000  C
  C876     1.0000 0.50000  0.89990  0.29520  Biso   1.000  C
  C877     1.0000 0.50000  0.88450  0.32500  Biso   1.000  C
  H787     1.0000 0.50000  0.89700  0.34520  Biso   1.000  H
  C878     1.0000 0.50000  0.84860  0.32560  Biso   1.000  C
  C879     1.0000 0.50000  0.83460  0.29480  Biso   1.000  C
  C880     1.0000 0.50000  0.85100  0.26450  Biso   1.000  C
  H788     1.0000 0.50000  0.83920  0.24390  Biso   1.000  H
  C881     1.0000 0.50000  0.88330  0.26560  Biso   1.000  C
  H789     1.0000 0.50000  0.89560  0.24540  Biso   1.000  H
  O335     1.0000 0.50000  0.45129  0.82321  Biso   1.000  O
  O336     1.0000 0.50000  0.45156  0.76583  Biso   1.000  O
  C882     1.0000 0.50000  0.43854  0.79550  Biso   1.000  C
  C883     1.0000 0.50000  0.39990  0.79520  Biso   1.000  C
  C884     1.0000 0.50000  0.38450  0.82500  Biso   1.000  C
  H790     1.0000 0.50000  0.39700  0.84520  Biso   1.000  H
  C885     1.0000 0.50000  0.34860  0.82560  Biso   1.000  C
  C886     1.0000 0.50000  0.33460  0.79480  Biso   1.000  C
  C887     1.0000 0.50000  0.35100  0.76450  Biso   1.000  C
  H791     1.0000 0.50000  0.33920  0.74390  Biso   1.000  H
  C888     1.0000 0.50000  0.38330  0.76560  Biso   1.000  C
  H792     1.0000 0.50000  0.39560  0.74540  Biso   1.000  H
  O337     1.0000 0.00000  0.04871  0.17679  Biso   1.000  O
  O338     1.0000 0.00000  0.04844  0.23417  Biso   1.000  O
  C889     1.0000 0.00000  0.06146  0.20450  Biso   1.000  C
  C890     1.0000 0.00000  0.10010  0.20480  Biso   1.000  C
  C891     1.0000 0.00000  0.11550  0.17500  Biso   1.000  C
  H793     1.0000 0.00000  0.10300  0.15480  Biso   1.000  H
  C892     1.0000 0.00000  0.15140  0.17440  Biso   1.000  C
  C893     1.0000 0.00000  0.16540  0.20520  Biso   1.000  C
  C894     1.0000 0.00000  0.14900  0.23550  Biso   1.000  C
  H794     1.0000 0.00000  0.16080  0.25610  Biso   1.000  H
  C895     1.0000 0.00000  0.11670  0.23440  Biso   1.000  C
  H795     1.0000 0.00000  0.10440  0.25460  Biso   1.000  H
  O339     1.0000 0.00000  0.54871  0.67679  Biso   1.000  O
  O340     1.0000 0.00000  0.54844  0.73417  Biso   1.000  O
  C896     1.0000 0.00000  0.56146  0.70450  Biso   1.000  C
  C897     1.0000 0.00000  0.60010  0.70480  Biso   1.000  C
  C898     1.0000 0.00000  0.61550  0.67500  Biso   1.000  C
  H796     1.0000 0.00000  0.60300  0.65480  Biso   1.000  H
  C899     1.0000 0.00000  0.65140  0.67440  Biso   1.000  C
  C900     1.0000 0.00000  0.66540  0.70520  Biso   1.000  C
  C901     1.0000 0.00000  0.64900  0.73550  Biso   1.000  C
  H797     1.0000 0.00000  0.66080  0.75610  Biso   1.000  H
  C902     1.0000 0.00000  0.61670  0.73440  Biso   1.000  C
  H798     1.0000 0.00000  0.60440  0.75460  Biso   1.000  H
  O341     1.0000 0.50000  0.04871  0.67679  Biso   1.000  O
  O342     1.0000 0.50000  0.04844  0.73417  Biso   1.000  O
  C903     1.0000 0.50000  0.06146  0.70450  Biso   1.000  C
  C904     1.0000 0.50000  0.10010  0.70480  Biso   1.000  C
  C905     1.0000 0.50000  0.11550  0.67500  Biso   1.000  C
  H799     1.0000 0.50000  0.10300  0.65480  Biso   1.000  H
  C906     1.0000 0.50000  0.15140  0.67440  Biso   1.000  C
  C907     1.0000 0.50000  0.16540  0.70520  Biso   1.000  C
  C908     1.0000 0.50000  0.14900  0.73550  Biso   1.000  C
  H800     1.0000 0.50000  0.16080  0.75610  Biso   1.000  H
  C909     1.0000 0.50000  0.11670  0.73440  Biso   1.000  C
  H801     1.0000 0.50000  0.10440  0.75460  Biso   1.000  H
  O343     1.0000 0.50000  0.54871  0.17679  Biso   1.000  O
  O344     1.0000 0.50000  0.54844  0.23417  Biso   1.000  O
  C910     1.0000 0.50000  0.56146  0.20450  Biso   1.000  C
  C911     1.0000 0.50000  0.60010  0.20480  Biso   1.000  C
  C912     1.0000 0.50000  0.61550  0.17500  Biso   1.000  C
  H802     1.0000 0.50000  0.60300  0.15480  Biso   1.000  H
  C913     1.0000 0.50000  0.65140  0.17440  Biso   1.000  C
  C914     1.0000 0.50000  0.66540  0.20520  Biso   1.000  C
  C915     1.0000 0.50000  0.64900  0.23550  Biso   1.000  C
  H803     1.0000 0.50000  0.66080  0.25610  Biso   1.000  H
  C916     1.0000 0.50000  0.61670  0.23440  Biso   1.000  C
  H804     1.0000 0.50000  0.60440  0.25460  Biso   1.000  H
  O345     1.0000 0.00000  0.04871  0.82321  Biso   1.000  O
  O346     1.0000 0.00000  0.04844  0.76583  Biso   1.000  O
  C917     1.0000 0.00000  0.06146  0.79550  Biso   1.000  C
  C918     1.0000 0.00000  0.10010  0.79520  Biso   1.000  C
  C919     1.0000 0.00000  0.11550  0.82500  Biso   1.000  C
  H805     1.0000 0.00000  0.10300  0.84520  Biso   1.000  H
  C920     1.0000 0.00000  0.15140  0.82560  Biso   1.000  C
  C921     1.0000 0.00000  0.16540  0.79480  Biso   1.000  C
  C922     1.0000 0.00000  0.14900  0.76450  Biso   1.000  C
  H806     1.0000 0.00000  0.16080  0.74390  Biso   1.000  H
  C923     1.0000 0.00000  0.11670  0.76560  Biso   1.000  C
  H807     1.0000 0.00000  0.10440  0.74540  Biso   1.000  H
  O347     1.0000 0.00000  0.54871  0.32321  Biso   1.000  O
  O348     1.0000 0.00000  0.54844  0.26583  Biso   1.000  O
  C924     1.0000 0.00000  0.56146  0.29550  Biso   1.000  C
  C925     1.0000 0.00000  0.60010  0.29520  Biso   1.000  C
  C926     1.0000 0.00000  0.61550  0.32500  Biso   1.000  C
  H808     1.0000 0.00000  0.60300  0.34520  Biso   1.000  H
  C927     1.0000 0.00000  0.65140  0.32560  Biso   1.000  C
  C928     1.0000 0.00000  0.66540  0.29480  Biso   1.000  C
  C929     1.0000 0.00000  0.64900  0.26450  Biso   1.000  C
  H809     1.0000 0.00000  0.66080  0.24390  Biso   1.000  H
  C930     1.0000 0.00000  0.61670  0.26560  Biso   1.000  C
  H810     1.0000 0.00000  0.60440  0.24540  Biso   1.000  H
  O349     1.0000 0.50000  0.04871  0.32321  Biso   1.000  O
  O350     1.0000 0.50000  0.04844  0.26583  Biso   1.000  O
  C931     1.0000 0.50000  0.06146  0.29550  Biso   1.000  C
  C932     1.0000 0.50000  0.10010  0.29520  Biso   1.000  C
  C933     1.0000 0.50000  0.11550  0.32500  Biso   1.000  C
  H811     1.0000 0.50000  0.10300  0.34520  Biso   1.000  H
  C934     1.0000 0.50000  0.15140  0.32560  Biso   1.000  C
  C935     1.0000 0.50000  0.16540  0.29480  Biso   1.000  C
  C936     1.0000 0.50000  0.14900  0.26450  Biso   1.000  C
  H812     1.0000 0.50000  0.16080  0.24390  Biso   1.000  H
  C937     1.0000 0.50000  0.11670  0.26560  Biso   1.000  C
  H813     1.0000 0.50000  0.10440  0.24540  Biso   1.000  H
  O351     1.0000 0.50000  0.54871  0.82321  Biso   1.000  O
  O352     1.0000 0.50000  0.54844  0.76583  Biso   1.000  O
  C938     1.0000 0.50000  0.56146  0.79550  Biso   1.000  C
  C939     1.0000 0.50000  0.60010  0.79520  Biso   1.000  C
  C940     1.0000 0.50000  0.61550  0.82500  Biso   1.000  C
  H814     1.0000 0.50000  0.60300  0.84520  Biso   1.000  H
  C941     1.0000 0.50000  0.65140  0.82560  Biso   1.000  C
  C942     1.0000 0.50000  0.66540  0.79480  Biso   1.000  C
  C943     1.0000 0.50000  0.64900  0.76450  Biso   1.000  C
  H815     1.0000 0.50000  0.66080  0.74390  Biso   1.000  H
  C944     1.0000 0.50000  0.61670  0.76560  Biso   1.000  C
  H816     1.0000 0.50000  0.60440  0.74540  Biso   1.000  H
  O353     1.0000 0.95129  0.82321  0.00000  Biso   1.000  O
  O354     1.0000 0.95156  0.76583  0.00000  Biso   1.000  O
  C945     1.0000 0.93854  0.79550  0.00000  Biso   1.000  C
  C946     1.0000 0.89990  0.79520  0.00000  Biso   1.000  C
  C947     1.0000 0.88450  0.82500  0.00000  Biso   1.000  C
  H817     1.0000 0.89700  0.84520  0.00000  Biso   1.000  H
  C948     1.0000 0.84860  0.82560  0.00000  Biso   1.000  C
  C949     1.0000 0.83460  0.79480  0.00000  Biso   1.000  C
  C950     1.0000 0.85100  0.76450  0.00000  Biso   1.000  C
  H818     1.0000 0.83920  0.74390  0.00000  Biso   1.000  H
  C951     1.0000 0.88330  0.76560  0.00000  Biso   1.000  C
  H819     1.0000 0.89560  0.74540  0.00000  Biso   1.000  H
  O355     1.0000 0.95129  0.32321  0.50000  Biso   1.000  O
  O356     1.0000 0.95156  0.26583  0.50000  Biso   1.000  O
  C952     1.0000 0.93854  0.29550  0.50000  Biso   1.000  C
  C953     1.0000 0.89990  0.29520  0.50000  Biso   1.000  C
  C954     1.0000 0.88450  0.32500  0.50000  Biso   1.000  C
  H820     1.0000 0.89700  0.34520  0.50000  Biso   1.000  H
  C955     1.0000 0.84860  0.32560  0.50000  Biso   1.000  C
  C956     1.0000 0.83460  0.29480  0.50000  Biso   1.000  C
  C957     1.0000 0.85100  0.26450  0.50000  Biso   1.000  C
  H821     1.0000 0.83920  0.24390  0.50000  Biso   1.000  H
  C958     1.0000 0.88330  0.26560  0.50000  Biso   1.000  C
  H822     1.0000 0.89560  0.24540  0.50000  Biso   1.000  H
  O357     1.0000 0.45129  0.82321  0.50000  Biso   1.000  O
  O358     1.0000 0.45156  0.76583  0.50000  Biso   1.000  O
  C959     1.0000 0.43854  0.79550  0.50000  Biso   1.000  C
  C960     1.0000 0.39990  0.79520  0.50000  Biso   1.000  C
  C961     1.0000 0.38450  0.82500  0.50000  Biso   1.000  C
  H823     1.0000 0.39700  0.84520  0.50000  Biso   1.000  H
  C962     1.0000 0.34860  0.82560  0.50000  Biso   1.000  C
  C963     1.0000 0.33460  0.79480  0.50000  Biso   1.000  C
  C964     1.0000 0.35100  0.76450  0.50000  Biso   1.000  C
  H824     1.0000 0.33920  0.74390  0.50000  Biso   1.000  H
  C965     1.0000 0.38330  0.76560  0.50000  Biso   1.000  C
  H825     1.0000 0.39560  0.74540  0.50000  Biso   1.000  H
  O359     1.0000 0.45129  0.32321  0.00000  Biso   1.000  O
  O360     1.0000 0.45156  0.26583  0.00000  Biso   1.000  O
  C966     1.0000 0.43854  0.29550  0.00000  Biso   1.000  C
  C967     1.0000 0.39990  0.29520  0.00000  Biso   1.000  C
  C968     1.0000 0.38450  0.32500  0.00000  Biso   1.000  C
  H826     1.0000 0.39700  0.34520  0.00000  Biso   1.000  H
  C969     1.0000 0.34860  0.32560  0.00000  Biso   1.000  C
  C970     1.0000 0.33460  0.29480  0.00000  Biso   1.000  C
  C971     1.0000 0.35100  0.26450  0.00000  Biso   1.000  C
  H827     1.0000 0.33920  0.24390  0.00000  Biso   1.000  H
  C972     1.0000 0.38330  0.26560  0.00000  Biso   1.000  C
  H828     1.0000 0.39560  0.24540  0.00000  Biso   1.000  H
  O361     1.0000 0.95129  0.17679  0.00000  Biso   1.000  O
  O362     1.0000 0.95156  0.23417  0.00000  Biso   1.000  O
  C973     1.0000 0.93854  0.20450  0.00000  Biso   1.000  C
  C974     1.0000 0.89990  0.20480  0.00000  Biso   1.000  C
  C975     1.0000 0.88450  0.17500  0.00000  Biso   1.000  C
  H829     1.0000 0.89700  0.15480  0.00000  Biso   1.000  H
  C976     1.0000 0.84860  0.17440  0.00000  Biso   1.000  C
  C977     1.0000 0.83460  0.20520  0.00000  Biso   1.000  C
  C978     1.0000 0.85100  0.23550  0.00000  Biso   1.000  C
  H830     1.0000 0.83920  0.25610  0.00000  Biso   1.000  H
  C979     1.0000 0.88330  0.23440  0.00000  Biso   1.000  C
  H831     1.0000 0.89560  0.25460  0.00000  Biso   1.000  H
  O363     1.0000 0.95129  0.67679  0.50000  Biso   1.000  O
  O364     1.0000 0.95156  0.73417  0.50000  Biso   1.000  O
  C980     1.0000 0.93854  0.70450  0.50000  Biso   1.000  C
  C981     1.0000 0.89990  0.70480  0.50000  Biso   1.000  C
  C982     1.0000 0.88450  0.67500  0.50000  Biso   1.000  C
  H832     1.0000 0.89700  0.65480  0.50000  Biso   1.000  H
  C983     1.0000 0.84860  0.67440  0.50000  Biso   1.000  C
  C984     1.0000 0.83460  0.70520  0.50000  Biso   1.000  C
  C985     1.0000 0.85100  0.73550  0.50000  Biso   1.000  C
  H833     1.0000 0.83920  0.75610  0.50000  Biso   1.000  H
  C986     1.0000 0.88330  0.73440  0.50000  Biso   1.000  C
  H834     1.0000 0.89560  0.75460  0.50000  Biso   1.000  H
  O365     1.0000 0.45129  0.17679  0.50000  Biso   1.000  O
  O366     1.0000 0.45156  0.23417  0.50000  Biso   1.000  O
  C987     1.0000 0.43854  0.20450  0.50000  Biso   1.000  C
  C988     1.0000 0.39990  0.20480  0.50000  Biso   1.000  C
  C989     1.0000 0.38450  0.17500  0.50000  Biso   1.000  C
  H835     1.0000 0.39700  0.15480  0.50000  Biso   1.000  H
  C990     1.0000 0.34860  0.17440  0.50000  Biso   1.000  C
  C991     1.0000 0.33460  0.20520  0.50000  Biso   1.000  C
  C992     1.0000 0.35100  0.23550  0.50000  Biso   1.000  C
  H836     1.0000 0.33920  0.25610  0.50000  Biso   1.000  H
  C993     1.0000 0.38330  0.23440  0.50000  Biso   1.000  C
  H837     1.0000 0.39560  0.25460  0.50000  Biso   1.000  H
  O367     1.0000 0.45129  0.67679  0.00000  Biso   1.000  O
  O368     1.0000 0.45156  0.73417  0.00000  Biso   1.000  O
  C994     1.0000 0.43854  0.70450  0.00000  Biso   1.000  C
  C995     1.0000 0.39990  0.70480  0.00000  Biso   1.000  C
  C996     1.0000 0.38450  0.67500  0.00000  Biso   1.000  C
  H838     1.0000 0.39700  0.65480  0.00000  Biso   1.000  H
  C997     1.0000 0.34860  0.67440  0.00000  Biso   1.000  C
  C998     1.0000 0.33460  0.70520  0.00000  Biso   1.000  C
  C999     1.0000 0.35100  0.73550  0.00000  Biso   1.000  C
  H839     1.0000 0.33920  0.75610  0.00000  Biso   1.000  H
  C1000    1.0000 0.38330  0.73440  0.00000  Biso   1.000  C
  H840     1.0000 0.39560  0.75460  0.00000  Biso   1.000  H
  O369     1.0000 0.04871  0.82321  0.00000  Biso   1.000  O
  O370     1.0000 0.04844  0.76583  0.00000  Biso   1.000  O
  C1001    1.0000 0.06146  0.79550  0.00000  Biso   1.000  C
  C1002    1.0000 0.10010  0.79520  0.00000  Biso   1.000  C
  C1003    1.0000 0.11550  0.82500  0.00000  Biso   1.000  C
  H841     1.0000 0.10300  0.84520  0.00000  Biso   1.000  H
  C1004    1.0000 0.15140  0.82560  0.00000  Biso   1.000  C
  C1005    1.0000 0.16540  0.79480  0.00000  Biso   1.000  C
  C1006    1.0000 0.14900  0.76450  0.00000  Biso   1.000  C
  H842     1.0000 0.16080  0.74390  0.00000  Biso   1.000  H
  C1007    1.0000 0.11670  0.76560  0.00000  Biso   1.000  C
  H843     1.0000 0.10440  0.74540  0.00000  Biso   1.000  H
  O371     1.0000 0.04871  0.32321  0.50000  Biso   1.000  O
  O372     1.0000 0.04844  0.26583  0.50000  Biso   1.000  O
  C1008    1.0000 0.06146  0.29550  0.50000  Biso   1.000  C
  C1009    1.0000 0.10010  0.29520  0.50000  Biso   1.000  C
  C1010    1.0000 0.11550  0.32500  0.50000  Biso   1.000  C
  H844     1.0000 0.10300  0.34520  0.50000  Biso   1.000  H
  C1011    1.0000 0.15140  0.32560  0.50000  Biso   1.000  C
  C1012    1.0000 0.16540  0.29480  0.50000  Biso   1.000  C
  C1013    1.0000 0.14900  0.26450  0.50000  Biso   1.000  C
  H845     1.0000 0.16080  0.24390  0.50000  Biso   1.000  H
  C1014    1.0000 0.11670  0.26560  0.50000  Biso   1.000  C
  H846     1.0000 0.10440  0.24540  0.50000  Biso   1.000  H
  O373     1.0000 0.54871  0.82321  0.50000  Biso   1.000  O
  O374     1.0000 0.54844  0.76583  0.50000  Biso   1.000  O
  C1015    1.0000 0.56146  0.79550  0.50000  Biso   1.000  C
  C1016    1.0000 0.60010  0.79520  0.50000  Biso   1.000  C
  C1017    1.0000 0.61550  0.82500  0.50000  Biso   1.000  C
  H847     1.0000 0.60300  0.84520  0.50000  Biso   1.000  H
  C1018    1.0000 0.65140  0.82560  0.50000  Biso   1.000  C
  C1019    1.0000 0.66540  0.79480  0.50000  Biso   1.000  C
  C1020    1.0000 0.64900  0.76450  0.50000  Biso   1.000  C
  H848     1.0000 0.66080  0.74390  0.50000  Biso   1.000  H
  C1021    1.0000 0.61670  0.76560  0.50000  Biso   1.000  C
  H849     1.0000 0.60440  0.74540  0.50000  Biso   1.000  H
  O375     1.0000 0.54871  0.32321  0.00000  Biso   1.000  O
  O376     1.0000 0.54844  0.26583  0.00000  Biso   1.000  O
  C1022    1.0000 0.56146  0.29550  0.00000  Biso   1.000  C
  C1023    1.0000 0.60010  0.29520  0.00000  Biso   1.000  C
  C1024    1.0000 0.61550  0.32500  0.00000  Biso   1.000  C
  H850     1.0000 0.60300  0.34520  0.00000  Biso   1.000  H
  C1025    1.0000 0.65140  0.32560  0.00000  Biso   1.000  C
  C1026    1.0000 0.66540  0.29480  0.00000  Biso   1.000  C
  C1027    1.0000 0.64900  0.26450  0.00000  Biso   1.000  C
  H851     1.0000 0.66080  0.24390  0.00000  Biso   1.000  H
  C1028    1.0000 0.61670  0.26560  0.00000  Biso   1.000  C
  H852     1.0000 0.60440  0.24540  0.00000  Biso   1.000  H
  O377     1.0000 0.04871  0.17679  0.00000  Biso   1.000  O
  O378     1.0000 0.04844  0.23417  0.00000  Biso   1.000  O
  C1029    1.0000 0.06146  0.20450  0.00000  Biso   1.000  C
  C1030    1.0000 0.10010  0.20480  0.00000  Biso   1.000  C
  C1031    1.0000 0.11550  0.17500  0.00000  Biso   1.000  C
  H853     1.0000 0.10300  0.15480  0.00000  Biso   1.000  H
  C1032    1.0000 0.15140  0.17440  0.00000  Biso   1.000  C
  C1033    1.0000 0.16540  0.20520  0.00000  Biso   1.000  C
  C1034    1.0000 0.14900  0.23550  0.00000  Biso   1.000  C
  H854     1.0000 0.16080  0.25610  0.00000  Biso   1.000  H
  C1035    1.0000 0.11670  0.23440  0.00000  Biso   1.000  C
  H855     1.0000 0.10440  0.25460  0.00000  Biso   1.000  H
  O379     1.0000 0.04871  0.67679  0.50000  Biso   1.000  O
  O380     1.0000 0.04844  0.73417  0.50000  Biso   1.000  O
  C1036    1.0000 0.06146  0.70450  0.50000  Biso   1.000  C
  C1037    1.0000 0.10010  0.70480  0.50000  Biso   1.000  C
  C1038    1.0000 0.11550  0.67500  0.50000  Biso   1.000  C
  H856     1.0000 0.10300  0.65480  0.50000  Biso   1.000  H
  C1039    1.0000 0.15140  0.67440  0.50000  Biso   1.000  C
  C1040    1.0000 0.16540  0.70520  0.50000  Biso   1.000  C
  C1041    1.0000 0.14900  0.73550  0.50000  Biso   1.000  C
  H857     1.0000 0.16080  0.75610  0.50000  Biso   1.000  H
  C1042    1.0000 0.11670  0.73440  0.50000  Biso   1.000  C
  H858     1.0000 0.10440  0.75460  0.50000  Biso   1.000  H
  O381     1.0000 0.54871  0.17679  0.50000  Biso   1.000  O
  O382     1.0000 0.54844  0.23417  0.50000  Biso   1.000  O
  C1043    1.0000 0.56146  0.20450  0.50000  Biso   1.000  C
  C1044    1.0000 0.60010  0.20480  0.50000  Biso   1.000  C
  C1045    1.0000 0.61550  0.17500  0.50000  Biso   1.000  C
  H859     1.0000 0.60300  0.15480  0.50000  Biso   1.000  H
  C1046    1.0000 0.65140  0.17440  0.50000  Biso   1.000  C
  C1047    1.0000 0.66540  0.20520  0.50000  Biso   1.000  C
  C1048    1.0000 0.64900  0.23550  0.50000  Biso   1.000  C
  H860     1.0000 0.66080  0.25610  0.50000  Biso   1.000  H
  C1049    1.0000 0.61670  0.23440  0.50000  Biso   1.000  C
  H861     1.0000 0.60440  0.25460  0.50000  Biso   1.000  H
  O383     1.0000 0.54871  0.67679  0.00000  Biso   1.000  O
  O384     1.0000 0.54844  0.73417  0.00000  Biso   1.000  O
  C1050    1.0000 0.56146  0.70450  0.00000  Biso   1.000  C
  C1051    1.0000 0.60010  0.70480  0.00000  Biso   1.000  C
  C1052    1.0000 0.61550  0.67500  0.00000  Biso   1.000  C
  H862     1.0000 0.60300  0.65480  0.00000  Biso   1.000  H
  C1053    1.0000 0.65140  0.67440  0.00000  Biso   1.000  C
  C1054    1.0000 0.66540  0.70520  0.00000  Biso   1.000  C
  C1055    1.0000 0.64900  0.73550  0.00000  Biso   1.000  C
  H863     1.0000 0.66080  0.75610  0.00000  Biso   1.000  H
  C1056    1.0000 0.61670  0.73440  0.00000  Biso   1.000  C
  H864     1.0000 0.60440  0.75460  0.00000  Biso   1.000  H
  N1       1.0000 0.00000  0.79920  0.79920  Biso   1.000  N
  C1057    1.0000 0.00000  0.77220  0.77220  Biso   1.000  C
  N2       1.0000 0.00000  0.29920  0.29920  Biso   1.000  N
  C1058    1.0000 0.00000  0.27220  0.27220  Biso   1.000  C
  N3       1.0000 0.50000  0.79920  0.29920  Biso   1.000  N
  C1059    1.0000 0.50000  0.77220  0.27220  Biso   1.000  C
  N4       1.0000 0.50000  0.29920  0.79920  Biso   1.000  N
  C1060    1.0000 0.50000  0.27220  0.77220  Biso   1.000  C
  N5       1.0000 0.00000  0.20080  0.79920  Biso   1.000  N
  C1061    1.0000 0.00000  0.22780  0.77220  Biso   1.000  C
  N6       1.0000 0.00000  0.70080  0.29920  Biso   1.000  N
  C1062    1.0000 0.00000  0.72780  0.27220  Biso   1.000  C
  N7       1.0000 0.50000  0.20080  0.29920  Biso   1.000  N
  C1063    1.0000 0.50000  0.22780  0.27220  Biso   1.000  C
  N8       1.0000 0.50000  0.70080  0.79920  Biso   1.000  N
  C1064    1.0000 0.50000  0.72780  0.77220  Biso   1.000  C
  N9       1.0000 0.00000  0.79920  0.20080  Biso   1.000  N
  C1065    1.0000 0.00000  0.77220  0.22780  Biso   1.000  C
  N10      1.0000 0.00000  0.29920  0.70080  Biso   1.000  N
  C1066    1.0000 0.00000  0.27220  0.72780  Biso   1.000  C
  N11      1.0000 0.50000  0.79920  0.70080  Biso   1.000  N
  C1067    1.0000 0.50000  0.77220  0.72780  Biso   1.000  C
  N12      1.0000 0.50000  0.29920  0.20080  Biso   1.000  N
  C1068    1.0000 0.50000  0.27220  0.22780  Biso   1.000  C
  N13      1.0000 0.00000  0.20080  0.20080  Biso   1.000  N
  C1069    1.0000 0.00000  0.22780  0.22780  Biso   1.000  C
  N14      1.0000 0.00000  0.70080  0.70080  Biso   1.000  N
  C1070    1.0000 0.00000  0.72780  0.72780  Biso   1.000  C
  N15      1.0000 0.50000  0.20080  0.70080  Biso   1.000  N
  C1071    1.0000 0.50000  0.22780  0.72780  Biso   1.000  C
  N16      1.0000 0.50000  0.70080  0.20080  Biso   1.000  N
  C1072    1.0000 0.50000  0.72780  0.22780  Biso   1.000  C
  N17      1.0000 0.79920  0.00000  0.79920  Biso   1.000  N
  C1073    1.0000 0.77220  0.00000  0.77220  Biso   1.000  C
  N18      1.0000 0.79920  0.50000  0.29920  Biso   1.000  N
  C1074    1.0000 0.77220  0.50000  0.27220  Biso   1.000  C
  N19      1.0000 0.29920  0.00000  0.29920  Biso   1.000  N
  C1075    1.0000 0.27220  0.00000  0.27220  Biso   1.000  C
  N20      1.0000 0.29920  0.50000  0.79920  Biso   1.000  N
  C1076    1.0000 0.27220  0.50000  0.77220  Biso   1.000  C
  N21      1.0000 0.79920  0.00000  0.20080  Biso   1.000  N
  C1077    1.0000 0.77220  0.00000  0.22780  Biso   1.000  C
  N22      1.0000 0.79920  0.50000  0.70080  Biso   1.000  N
  C1078    1.0000 0.77220  0.50000  0.72780  Biso   1.000  C
  N23      1.0000 0.29920  0.00000  0.70080  Biso   1.000  N
  C1079    1.0000 0.27220  0.00000  0.72780  Biso   1.000  C
  N24      1.0000 0.29920  0.50000  0.20080  Biso   1.000  N
  C1080    1.0000 0.27220  0.50000  0.22780  Biso   1.000  C
  N25      1.0000 0.20080  0.00000  0.79920  Biso   1.000  N
  C1081    1.0000 0.22780  0.00000  0.77220  Biso   1.000  C
  N26      1.0000 0.20080  0.50000  0.29920  Biso   1.000  N
  C1082    1.0000 0.22780  0.50000  0.27220  Biso   1.000  C
  N27      1.0000 0.70080  0.00000  0.29920  Biso   1.000  N
  C1083    1.0000 0.72780  0.00000  0.27220  Biso   1.000  C
  N28      1.0000 0.70080  0.50000  0.79920  Biso   1.000  N
  C1084    1.0000 0.72780  0.50000  0.77220  Biso   1.000  C
  N29      1.0000 0.20080  0.00000  0.20080  Biso   1.000  N
  C1085    1.0000 0.22780  0.00000  0.22780  Biso   1.000  C
  N30      1.0000 0.20080  0.50000  0.70080  Biso   1.000  N
  C1086    1.0000 0.22780  0.50000  0.72780  Biso   1.000  C
  N31      1.0000 0.70080  0.00000  0.70080  Biso   1.000  N
  C1087    1.0000 0.72780  0.00000  0.72780  Biso   1.000  C
  N32      1.0000 0.70080  0.50000  0.20080  Biso   1.000  N
  C1088    1.0000 0.72780  0.50000  0.22780  Biso   1.000  C
  N33      1.0000 0.79920  0.79920  0.00000  Biso   1.000  N
  C1089    1.0000 0.77220  0.77220  0.00000  Biso   1.000  C
  N34      1.0000 0.79920  0.29920  0.50000  Biso   1.000  N
  C1090    1.0000 0.77220  0.27220  0.50000  Biso   1.000  C
  N35      1.0000 0.29920  0.79920  0.50000  Biso   1.000  N
  C1091    1.0000 0.27220  0.77220  0.50000  Biso   1.000  C
  N36      1.0000 0.29920  0.29920  0.00000  Biso   1.000  N
  C1092    1.0000 0.27220  0.27220  0.00000  Biso   1.000  C
  N37      1.0000 0.20080  0.79920  0.00000  Biso   1.000  N
  C1093    1.0000 0.22780  0.77220  0.00000  Biso   1.000  C
  N38      1.0000 0.20080  0.29920  0.50000  Biso   1.000  N
  C1094    1.0000 0.22780  0.27220  0.50000  Biso   1.000  C
  N39      1.0000 0.70080  0.79920  0.50000  Biso   1.000  N
  C1095    1.0000 0.72780  0.77220  0.50000  Biso   1.000  C
  N40      1.0000 0.70080  0.29920  0.00000  Biso   1.000  N
  C1096    1.0000 0.72780  0.27220  0.00000  Biso   1.000  C
  N41      1.0000 0.79920  0.20080  0.00000  Biso   1.000  N
  C1097    1.0000 0.77220  0.22780  0.00000  Biso   1.000  C
  N42      1.0000 0.79920  0.70080  0.50000  Biso   1.000  N
  C1098    1.0000 0.77220  0.72780  0.50000  Biso   1.000  C
  N43      1.0000 0.29920  0.20080  0.50000  Biso   1.000  N
  C1099    1.0000 0.27220  0.22780  0.50000  Biso   1.000  C
  N44      1.0000 0.29920  0.70080  0.00000  Biso   1.000  N
  C1100    1.0000 0.27220  0.72780  0.00000  Biso   1.000  C
  N45      1.0000 0.20080  0.20080  0.00000  Biso   1.000  N
  C1101    1.0000 0.22780  0.22780  0.00000  Biso   1.000  C
  N46      1.0000 0.20080  0.70080  0.50000  Biso   1.000  N
  C1102    1.0000 0.22780  0.72780  0.50000  Biso   1.000  C
  N47      1.0000 0.70080  0.20080  0.50000  Biso   1.000  N
  C1103    1.0000 0.72780  0.22780  0.50000  Biso   1.000  C
  N48      1.0000 0.70080  0.70080  0.00000  Biso   1.000  N
  C1104    1.0000 0.72780  0.72780  0.00000  Biso   1.000  C
