data_image0
_cell_length_a       84.115
_cell_length_b       84.115
_cell_length_c       10.0694
_cell_angle_alpha    90
_cell_angle_beta     90
_cell_angle_gamma    90

_symmetry_space_group_name_H-M    "P 1"
_symmetry_int_tables_number       1

loop_
  _symmetry_equiv_pos_as_xyz
  'x, y, z'

loop_
  _atom_site_label
  _atom_site_occupancy
  _atom_site_fract_x
  _atom_site_fract_y
  _atom_site_fract_z
  _atom_site_thermal_displace_type
  _atom_site_B_iso_or_equiv
  _atom_site_type_symbol
  Ga1      1.0000 0.74864  0.52136  0.24950  Biso   1.000  Ga
  Zn1      1.0000 0.82221  0.51042  0.32640  Biso   1.000  Zn
  Zn2      1.0000 0.85891  0.48720  0.17090  Biso   1.000  Zn
  Zn3      1.0000 0.92937  0.48823  0.16320  Biso   1.000  Zn
  Zn4      1.0000 0.96485  0.48830  0.66400  Biso   1.000  Zn
  P1       1.0000 0.78518  0.50922  0.27720  Biso   1.000  P
  P2       1.0000 0.83623  0.47740  0.39800  Biso   1.000  P
  P3       1.0000 0.84566  0.52141  0.10990  Biso   1.000  P
  P4       1.0000 0.89438  0.48037  0.21650  Biso   1.000  P
  P5       1.0000 0.94248  0.47791  0.89320  Biso   1.000  P
  P6       1.0000 0.95163  0.47814  0.39340  Biso   1.000  P
  O1       1.0000 0.80061  0.51561  0.33510  Biso   1.000  O
  O2       1.0000 0.77195  0.52184  0.29360  Biso   1.000  O
  O3       1.0000 0.78744  0.50424  0.13320  Biso   1.000  O
  O4       1.0000 0.82401  0.48695  0.32920  Biso   1.000  O
  O5       1.0000 0.83640  0.47975  0.54440  Biso   1.000  O
  O6       1.0000 0.85269  0.48006  0.35110  Biso   1.000  O
  O7       1.0000 0.85846  0.51040  0.16500  Biso   1.000  O
  O8       1.0000 0.84583  0.52262  0.95780  Biso   1.000  O
  O9       1.0000 0.82886  0.51780  0.15360  Biso   1.000  O
  O10      1.0000 0.89383  0.49430  0.30610  Biso   1.000  O
  O11      1.0000 0.90840  0.48170  0.12260  Biso   1.000  O
  O12      1.0000 0.87986  0.48030  0.13330  Biso   1.000  O
  O13      1.0000 0.94340  0.47790  0.03900  Biso   1.000  O
  O14      1.0000 0.95910  0.48130  0.84340  Biso   1.000  O
  O15      1.0000 0.92960  0.48890  0.84200  Biso   1.000  O
  O16      1.0000 0.95060  0.47740  0.54500  Biso   1.000  O
  O17      1.0000 0.96480  0.48890  0.33700  Biso   1.000  O
  O18      1.0000 0.93470  0.48070  0.34400  Biso   1.000  O
  O19      1.0000 0.98530  0.48110  0.62440  Biso   1.000  O
  H1       1.0000 0.89480  0.46680  0.30130  Biso   1.000  H
  H2       1.0000 0.84770  0.53680  0.17850  Biso   1.000  H
  H3       1.0000 0.93800  0.46520  0.82350  Biso   1.000  H
  H4       1.0000 0.78080  0.49380  0.36550  Biso   1.000  H
  H5       1.0000 0.83220  0.45810  0.37200  Biso   1.000  H
  H6       1.0000 0.95690  0.46250  0.34520  Biso   1.000  H
  Ga2      1.0000 0.24864  0.02136  0.74950  Biso   1.000  Ga
  Zn5      1.0000 0.32221  0.01042  0.82640  Biso   1.000  Zn
  Zn6      1.0000 0.35891  0.98720  0.67090  Biso   1.000  Zn
  Zn7      1.0000 0.42937  0.98823  0.66320  Biso   1.000  Zn
  Zn8      1.0000 0.46485  0.98830  0.16400  Biso   1.000  Zn
  P7       1.0000 0.28518  0.00922  0.77720  Biso   1.000  P
  P8       1.0000 0.33623  0.97740  0.89800  Biso   1.000  P
  P9       1.0000 0.34566  0.02141  0.60990  Biso   1.000  P
  P10      1.0000 0.39438  0.98037  0.71650  Biso   1.000  P
  P11      1.0000 0.44248  0.97791  0.39320  Biso   1.000  P
  P12      1.0000 0.45163  0.97814  0.89340  Biso   1.000  P
  O20      1.0000 0.30061  0.01561  0.83510  Biso   1.000  O
  O21      1.0000 0.27195  0.02184  0.79360  Biso   1.000  O
  O22      1.0000 0.28744  0.00424  0.63320  Biso   1.000  O
  O23      1.0000 0.32401  0.98695  0.82920  Biso   1.000  O
  O24      1.0000 0.33640  0.97975  0.04440  Biso   1.000  O
  O25      1.0000 0.35269  0.98006  0.85110  Biso   1.000  O
  O26      1.0000 0.35846  0.01040  0.66500  Biso   1.000  O
  O27      1.0000 0.34583  0.02262  0.45780  Biso   1.000  O
  O28      1.0000 0.32886  0.01780  0.65360  Biso   1.000  O
  O29      1.0000 0.39383  0.99430  0.80610  Biso   1.000  O
  O30      1.0000 0.40840  0.98170  0.62260  Biso   1.000  O
  O31      1.0000 0.37986  0.98030  0.63330  Biso   1.000  O
  O32      1.0000 0.44340  0.97790  0.53900  Biso   1.000  O
  O33      1.0000 0.45910  0.98130  0.34340  Biso   1.000  O
  O34      1.0000 0.42960  0.98890  0.34200  Biso   1.000  O
  O35      1.0000 0.45060  0.97740  0.04500  Biso   1.000  O
  O36      1.0000 0.46480  0.98890  0.83700  Biso   1.000  O
  O37      1.0000 0.43470  0.98070  0.84400  Biso   1.000  O
  O38      1.0000 0.48530  0.98110  0.12440  Biso   1.000  O
  H7       1.0000 0.39480  0.96680  0.80130  Biso   1.000  H
  H8       1.0000 0.34770  0.03680  0.67850  Biso   1.000  H
  H9       1.0000 0.43800  0.96520  0.32350  Biso   1.000  H
  H10      1.0000 0.28080  0.99380  0.86550  Biso   1.000  H
  H11      1.0000 0.33220  0.95810  0.87200  Biso   1.000  H
  H12      1.0000 0.45690  0.96250  0.84520  Biso   1.000  H
  Ga3      1.0000 0.75136  0.47864  0.74950  Biso   1.000  Ga
  Zn9      1.0000 0.67779  0.48958  0.82640  Biso   1.000  Zn
  Zn10     1.0000 0.64109  0.51280  0.67090  Biso   1.000  Zn
  Zn11     1.0000 0.57063  0.51177  0.66320  Biso   1.000  Zn
  Zn12     1.0000 0.53515  0.51170  0.16400  Biso   1.000  Zn
  P13      1.0000 0.71482  0.49078  0.77720  Biso   1.000  P
  P14      1.0000 0.66377  0.52260  0.89800  Biso   1.000  P
  P15      1.0000 0.65434  0.47859  0.60990  Biso   1.000  P
  P16      1.0000 0.60562  0.51963  0.71650  Biso   1.000  P
  P17      1.0000 0.55752  0.52209  0.39320  Biso   1.000  P
  P18      1.0000 0.54837  0.52186  0.89340  Biso   1.000  P
  O39      1.0000 0.69939  0.48439  0.83510  Biso   1.000  O
  O40      1.0000 0.72805  0.47816  0.79360  Biso   1.000  O
  O41      1.0000 0.71256  0.49576  0.63320  Biso   1.000  O
  O42      1.0000 0.67599  0.51305  0.82920  Biso   1.000  O
  O43      1.0000 0.66360  0.52025  0.04440  Biso   1.000  O
  O44      1.0000 0.64731  0.51994  0.85110  Biso   1.000  O
  O45      1.0000 0.64154  0.48960  0.66500  Biso   1.000  O
  O46      1.0000 0.65417  0.47738  0.45780  Biso   1.000  O
  O47      1.0000 0.67114  0.48220  0.65360  Biso   1.000  O
  O48      1.0000 0.60617  0.50570  0.80610  Biso   1.000  O
  O49      1.0000 0.59160  0.51830  0.62260  Biso   1.000  O
  O50      1.0000 0.62014  0.51970  0.63330  Biso   1.000  O
  O51      1.0000 0.55660  0.52210  0.53900  Biso   1.000  O
  O52      1.0000 0.54090  0.51870  0.34340  Biso   1.000  O
  O53      1.0000 0.57040  0.51110  0.34200  Biso   1.000  O
  O54      1.0000 0.54940  0.52260  0.04500  Biso   1.000  O
  O55      1.0000 0.53520  0.51110  0.83700  Biso   1.000  O
  O56      1.0000 0.56530  0.51930  0.84400  Biso   1.000  O
  O57      1.0000 0.51470  0.51890  0.12440  Biso   1.000  O
  H13      1.0000 0.60520  0.53320  0.80130  Biso   1.000  H
  H14      1.0000 0.65230  0.46320  0.67850  Biso   1.000  H
  H15      1.0000 0.56200  0.53480  0.32350  Biso   1.000  H
  H16      1.0000 0.71920  0.50620  0.86550  Biso   1.000  H
  H17      1.0000 0.66780  0.54190  0.87200  Biso   1.000  H
  H18      1.0000 0.54310  0.53750  0.84520  Biso   1.000  H
  Ga4      1.0000 0.25136  0.97864  0.24950  Biso   1.000  Ga
  Zn13     1.0000 0.17779  0.98958  0.32640  Biso   1.000  Zn
  Zn14     1.0000 0.14109  0.01280  0.17090  Biso   1.000  Zn
  Zn15     1.0000 0.07063  0.01177  0.16320  Biso   1.000  Zn
  Zn16     1.0000 0.03515  0.01170  0.66400  Biso   1.000  Zn
  P19      1.0000 0.21482  0.99078  0.27720  Biso   1.000  P
  P20      1.0000 0.16377  0.02260  0.39800  Biso   1.000  P
  P21      1.0000 0.15434  0.97859  0.10990  Biso   1.000  P
  P22      1.0000 0.10562  0.01963  0.21650  Biso   1.000  P
  P23      1.0000 0.05752  0.02209  0.89320  Biso   1.000  P
  P24      1.0000 0.04837  0.02186  0.39340  Biso   1.000  P
  O58      1.0000 0.19939  0.98439  0.33510  Biso   1.000  O
  O59      1.0000 0.22805  0.97816  0.29360  Biso   1.000  O
  O60      1.0000 0.21256  0.99576  0.13320  Biso   1.000  O
  O61      1.0000 0.17599  0.01305  0.32920  Biso   1.000  O
  O62      1.0000 0.16360  0.02025  0.54440  Biso   1.000  O
  O63      1.0000 0.14731  0.01994  0.35110  Biso   1.000  O
  O64      1.0000 0.14154  0.98960  0.16500  Biso   1.000  O
  O65      1.0000 0.15417  0.97738  0.95780  Biso   1.000  O
  O66      1.0000 0.17114  0.98220  0.15360  Biso   1.000  O
  O67      1.0000 0.10617  0.00570  0.30610  Biso   1.000  O
  O68      1.0000 0.09160  0.01830  0.12260  Biso   1.000  O
  O69      1.0000 0.12014  0.01970  0.13330  Biso   1.000  O
  O70      1.0000 0.05660  0.02210  0.03900  Biso   1.000  O
  O71      1.0000 0.04090  0.01870  0.84340  Biso   1.000  O
  O72      1.0000 0.07040  0.01110  0.84200  Biso   1.000  O
  O73      1.0000 0.04940  0.02260  0.54500  Biso   1.000  O
  O74      1.0000 0.03520  0.01110  0.33700  Biso   1.000  O
  O75      1.0000 0.06530  0.01930  0.34400  Biso   1.000  O
  O76      1.0000 0.01470  0.01890  0.62440  Biso   1.000  O
  H19      1.0000 0.10520  0.03320  0.30130  Biso   1.000  H
  H20      1.0000 0.15230  0.96320  0.17850  Biso   1.000  H
  H21      1.0000 0.06200  0.03480  0.82350  Biso   1.000  H
  H22      1.0000 0.21920  0.00620  0.36550  Biso   1.000  H
  H23      1.0000 0.16780  0.04190  0.37200  Biso   1.000  H
  H24      1.0000 0.04310  0.03750  0.34520  Biso   1.000  H
  Ga5      1.0000 0.72864  0.49864  0.49950  Biso   1.000  Ga
  Zn17     1.0000 0.73958  0.57221  0.57640  Biso   1.000  Zn
  Zn18     1.0000 0.76280  0.60891  0.42090  Biso   1.000  Zn
  Zn19     1.0000 0.76177  0.67937  0.41320  Biso   1.000  Zn
  Zn20     1.0000 0.76170  0.71485  0.91400  Biso   1.000  Zn
  P25      1.0000 0.74078  0.53518  0.52720  Biso   1.000  P
  P26      1.0000 0.77260  0.58623  0.64800  Biso   1.000  P
  P27      1.0000 0.72859  0.59566  0.35990  Biso   1.000  P
  P28      1.0000 0.76963  0.64438  0.46650  Biso   1.000  P
  P29      1.0000 0.77209  0.69248  0.14320  Biso   1.000  P
  P30      1.0000 0.77186  0.70163  0.64340  Biso   1.000  P
  O77      1.0000 0.73439  0.55061  0.58510  Biso   1.000  O
  O78      1.0000 0.72816  0.52195  0.54360  Biso   1.000  O
  O79      1.0000 0.74576  0.53744  0.38320  Biso   1.000  O
  O80      1.0000 0.76305  0.57401  0.57920  Biso   1.000  O
  O81      1.0000 0.77025  0.58640  0.79440  Biso   1.000  O
  O82      1.0000 0.76994  0.60269  0.60110  Biso   1.000  O
  O83      1.0000 0.73960  0.60846  0.41500  Biso   1.000  O
  O84      1.0000 0.72738  0.59583  0.20780  Biso   1.000  O
  O85      1.0000 0.73220  0.57886  0.40360  Biso   1.000  O
  O86      1.0000 0.75570  0.64383  0.55610  Biso   1.000  O
  O87      1.0000 0.76830  0.65840  0.37260  Biso   1.000  O
  O88      1.0000 0.76970  0.62986  0.38330  Biso   1.000  O
  O89      1.0000 0.77210  0.69340  0.28900  Biso   1.000  O
  O90      1.0000 0.76870  0.70910  0.09340  Biso   1.000  O
  O91      1.0000 0.76110  0.67960  0.09200  Biso   1.000  O
  O92      1.0000 0.77260  0.70060  0.79500  Biso   1.000  O
  O93      1.0000 0.76110  0.71480  0.58700  Biso   1.000  O
  O94      1.0000 0.76930  0.68470  0.59400  Biso   1.000  O
  O95      1.0000 0.76890  0.73530  0.87440  Biso   1.000  O
  H25      1.0000 0.78320  0.64480  0.55130  Biso   1.000  H
  H26      1.0000 0.71320  0.59770  0.42850  Biso   1.000  H
  H27      1.0000 0.78480  0.68800  0.07350  Biso   1.000  H
  H28      1.0000 0.75620  0.53080  0.61550  Biso   1.000  H
  H29      1.0000 0.79190  0.58220  0.62200  Biso   1.000  H
  H30      1.0000 0.78750  0.70690  0.59520  Biso   1.000  H
  Ga6      1.0000 0.22864  0.99864  0.99950  Biso   1.000  Ga
  Zn21     1.0000 0.23958  0.07221  0.07640  Biso   1.000  Zn
  Zn22     1.0000 0.26280  0.10891  0.92090  Biso   1.000  Zn
  Zn23     1.0000 0.26177  0.17937  0.91320  Biso   1.000  Zn
  Zn24     1.0000 0.26170  0.21485  0.41400  Biso   1.000  Zn
  P31      1.0000 0.24078  0.03518  0.02720  Biso   1.000  P
  P32      1.0000 0.27260  0.08623  0.14800  Biso   1.000  P
  P33      1.0000 0.22859  0.09566  0.85990  Biso   1.000  P
  P34      1.0000 0.26963  0.14438  0.96650  Biso   1.000  P
  P35      1.0000 0.27209  0.19248  0.64320  Biso   1.000  P
  P36      1.0000 0.27186  0.20163  0.14340  Biso   1.000  P
  O96      1.0000 0.23439  0.05061  0.08510  Biso   1.000  O
  O97      1.0000 0.22816  0.02195  0.04360  Biso   1.000  O
  O98      1.0000 0.24576  0.03744  0.88320  Biso   1.000  O
  O99      1.0000 0.26305  0.07401  0.07920  Biso   1.000  O
  O100     1.0000 0.27025  0.08640  0.29440  Biso   1.000  O
  O101     1.0000 0.26994  0.10269  0.10110  Biso   1.000  O
  O102     1.0000 0.23960  0.10846  0.91500  Biso   1.000  O
  O103     1.0000 0.22738  0.09583  0.70780  Biso   1.000  O
  O104     1.0000 0.23220  0.07886  0.90360  Biso   1.000  O
  O105     1.0000 0.25570  0.14383  0.05610  Biso   1.000  O
  O106     1.0000 0.26830  0.15840  0.87260  Biso   1.000  O
  O107     1.0000 0.26970  0.12986  0.88330  Biso   1.000  O
  O108     1.0000 0.27210  0.19340  0.78900  Biso   1.000  O
  O109     1.0000 0.26870  0.20910  0.59340  Biso   1.000  O
  O110     1.0000 0.26110  0.17960  0.59200  Biso   1.000  O
  O111     1.0000 0.27260  0.20060  0.29500  Biso   1.000  O
  O112     1.0000 0.26110  0.21480  0.08700  Biso   1.000  O
  O113     1.0000 0.26930  0.18470  0.09400  Biso   1.000  O
  O114     1.0000 0.26890  0.23530  0.37440  Biso   1.000  O
  H31      1.0000 0.28320  0.14480  0.05130  Biso   1.000  H
  H32      1.0000 0.21320  0.09770  0.92850  Biso   1.000  H
  H33      1.0000 0.28480  0.18800  0.57350  Biso   1.000  H
  H34      1.0000 0.25620  0.03080  0.11550  Biso   1.000  H
  H35      1.0000 0.29190  0.08220  0.12200  Biso   1.000  H
  H36      1.0000 0.28750  0.20690  0.09520  Biso   1.000  H
  Ga7      1.0000 0.77136  0.50136  0.99950  Biso   1.000  Ga
  Zn25     1.0000 0.76042  0.42779  0.07640  Biso   1.000  Zn
  Zn26     1.0000 0.73720  0.39109  0.92090  Biso   1.000  Zn
  Zn27     1.0000 0.73823  0.32063  0.91320  Biso   1.000  Zn
  Zn28     1.0000 0.73830  0.28515  0.41400  Biso   1.000  Zn
  P37      1.0000 0.75922  0.46482  0.02720  Biso   1.000  P
  P38      1.0000 0.72740  0.41377  0.14800  Biso   1.000  P
  P39      1.0000 0.77141  0.40434  0.85990  Biso   1.000  P
  P40      1.0000 0.73037  0.35562  0.96650  Biso   1.000  P
  P41      1.0000 0.72791  0.30752  0.64320  Biso   1.000  P
  P42      1.0000 0.72814  0.29837  0.14340  Biso   1.000  P
  O115     1.0000 0.76561  0.44939  0.08510  Biso   1.000  O
  O116     1.0000 0.77184  0.47805  0.04360  Biso   1.000  O
  O117     1.0000 0.75424  0.46256  0.88320  Biso   1.000  O
  O118     1.0000 0.73695  0.42599  0.07920  Biso   1.000  O
  O119     1.0000 0.72975  0.41360  0.29440  Biso   1.000  O
  O120     1.0000 0.73006  0.39731  0.10110  Biso   1.000  O
  O121     1.0000 0.76040  0.39154  0.91500  Biso   1.000  O
  O122     1.0000 0.77262  0.40417  0.70780  Biso   1.000  O
  O123     1.0000 0.76780  0.42114  0.90360  Biso   1.000  O
  O124     1.0000 0.74430  0.35617  0.05610  Biso   1.000  O
  O125     1.0000 0.73170  0.34160  0.87260  Biso   1.000  O
  O126     1.0000 0.73030  0.37014  0.88330  Biso   1.000  O
  O127     1.0000 0.72790  0.30660  0.78900  Biso   1.000  O
  O128     1.0000 0.73130  0.29090  0.59340  Biso   1.000  O
  O129     1.0000 0.73890  0.32040  0.59200  Biso   1.000  O
  O130     1.0000 0.72740  0.29940  0.29500  Biso   1.000  O
  O131     1.0000 0.73890  0.28520  0.08700  Biso   1.000  O
  O132     1.0000 0.73070  0.31530  0.09400  Biso   1.000  O
  O133     1.0000 0.73110  0.26470  0.37440  Biso   1.000  O
  H37      1.0000 0.71680  0.35520  0.05130  Biso   1.000  H
  H38      1.0000 0.78680  0.40230  0.92850  Biso   1.000  H
  H39      1.0000 0.71520  0.31200  0.57350  Biso   1.000  H
  H40      1.0000 0.74380  0.46920  0.11550  Biso   1.000  H
  H41      1.0000 0.70810  0.41780  0.12200  Biso   1.000  H
  H42      1.0000 0.71250  0.29310  0.09520  Biso   1.000  H
  Ga8      1.0000 0.27136  0.00136  0.49950  Biso   1.000  Ga
  Zn29     1.0000 0.26042  0.92779  0.57640  Biso   1.000  Zn
  Zn30     1.0000 0.23720  0.89109  0.42090  Biso   1.000  Zn
  Zn31     1.0000 0.23823  0.82063  0.41320  Biso   1.000  Zn
  Zn32     1.0000 0.23830  0.78515  0.91400  Biso   1.000  Zn
  P43      1.0000 0.25922  0.96482  0.52720  Biso   1.000  P
  P44      1.0000 0.22740  0.91377  0.64800  Biso   1.000  P
  P45      1.0000 0.27141  0.90434  0.35990  Biso   1.000  P
  P46      1.0000 0.23037  0.85562  0.46650  Biso   1.000  P
  P47      1.0000 0.22791  0.80752  0.14320  Biso   1.000  P
  P48      1.0000 0.22814  0.79837  0.64340  Biso   1.000  P
  O134     1.0000 0.26561  0.94939  0.58510  Biso   1.000  O
  O135     1.0000 0.27184  0.97805  0.54360  Biso   1.000  O
  O136     1.0000 0.25424  0.96256  0.38320  Biso   1.000  O
  O137     1.0000 0.23695  0.92599  0.57920  Biso   1.000  O
  O138     1.0000 0.22975  0.91360  0.79440  Biso   1.000  O
  O139     1.0000 0.23006  0.89731  0.60110  Biso   1.000  O
  O140     1.0000 0.26040  0.89154  0.41500  Biso   1.000  O
  O141     1.0000 0.27262  0.90417  0.20780  Biso   1.000  O
  O142     1.0000 0.26780  0.92114  0.40360  Biso   1.000  O
  O143     1.0000 0.24430  0.85617  0.55610  Biso   1.000  O
  O144     1.0000 0.23170  0.84160  0.37260  Biso   1.000  O
  O145     1.0000 0.23030  0.87014  0.38330  Biso   1.000  O
  O146     1.0000 0.22790  0.80660  0.28900  Biso   1.000  O
  O147     1.0000 0.23130  0.79090  0.09340  Biso   1.000  O
  O148     1.0000 0.23890  0.82040  0.09200  Biso   1.000  O
  O149     1.0000 0.22740  0.79940  0.79500  Biso   1.000  O
  O150     1.0000 0.23890  0.78520  0.58700  Biso   1.000  O
  O151     1.0000 0.23070  0.81530  0.59400  Biso   1.000  O
  O152     1.0000 0.23110  0.76470  0.87440  Biso   1.000  O
  H43      1.0000 0.21680  0.85520  0.55130  Biso   1.000  H
  H44      1.0000 0.28680  0.90230  0.42850  Biso   1.000  H
  H45      1.0000 0.21520  0.81200  0.07350  Biso   1.000  H
  H46      1.0000 0.24380  0.96920  0.61550  Biso   1.000  H
  H47      1.0000 0.20810  0.91780  0.62200  Biso   1.000  H
  H48      1.0000 0.21250  0.79310  0.59520  Biso   1.000  H
  Ga9      1.0000 0.75136  0.52136  0.25050  Biso   1.000  Ga
  Zn33     1.0000 0.67779  0.51042  0.17360  Biso   1.000  Zn
  Zn34     1.0000 0.64109  0.48720  0.32910  Biso   1.000  Zn
  Zn35     1.0000 0.57063  0.48823  0.33680  Biso   1.000  Zn
  Zn36     1.0000 0.53515  0.48830  0.83600  Biso   1.000  Zn
  P49      1.0000 0.71482  0.50922  0.22280  Biso   1.000  P
  P50      1.0000 0.66377  0.47740  0.10200  Biso   1.000  P
  P51      1.0000 0.65434  0.52141  0.39010  Biso   1.000  P
  P52      1.0000 0.60562  0.48037  0.28350  Biso   1.000  P
  P53      1.0000 0.55752  0.47791  0.60680  Biso   1.000  P
  P54      1.0000 0.54837  0.47814  0.10660  Biso   1.000  P
  O153     1.0000 0.69939  0.51561  0.16490  Biso   1.000  O
  O154     1.0000 0.72805  0.52184  0.20640  Biso   1.000  O
  O155     1.0000 0.71256  0.50424  0.36680  Biso   1.000  O
  O156     1.0000 0.67599  0.48695  0.17080  Biso   1.000  O
  O157     1.0000 0.66360  0.47975  0.95560  Biso   1.000  O
  O158     1.0000 0.64731  0.48006  0.14890  Biso   1.000  O
  O159     1.0000 0.64154  0.51040  0.33500  Biso   1.000  O
  O160     1.0000 0.65417  0.52262  0.54220  Biso   1.000  O
  O161     1.0000 0.67114  0.51780  0.34640  Biso   1.000  O
  O162     1.0000 0.60617  0.49430  0.19390  Biso   1.000  O
  O163     1.0000 0.59160  0.48170  0.37740  Biso   1.000  O
  O164     1.0000 0.62014  0.48030  0.36670  Biso   1.000  O
  O165     1.0000 0.55660  0.47790  0.46100  Biso   1.000  O
  O166     1.0000 0.54090  0.48130  0.65660  Biso   1.000  O
  O167     1.0000 0.57040  0.48890  0.65800  Biso   1.000  O
  O168     1.0000 0.54940  0.47740  0.95500  Biso   1.000  O
  O169     1.0000 0.53520  0.48890  0.16300  Biso   1.000  O
  O170     1.0000 0.56530  0.48070  0.15600  Biso   1.000  O
  O171     1.0000 0.51470  0.48110  0.87560  Biso   1.000  O
  H49      1.0000 0.60520  0.46680  0.19870  Biso   1.000  H
  H50      1.0000 0.65230  0.53680  0.32150  Biso   1.000  H
  H51      1.0000 0.56200  0.46520  0.67650  Biso   1.000  H
  H52      1.0000 0.71920  0.49380  0.13450  Biso   1.000  H
  H53      1.0000 0.66780  0.45810  0.12800  Biso   1.000  H
  H54      1.0000 0.54310  0.46250  0.15480  Biso   1.000  H
  Ga10     1.0000 0.25136  0.02136  0.75050  Biso   1.000  Ga
  Zn37     1.0000 0.17779  0.01042  0.67360  Biso   1.000  Zn
  Zn38     1.0000 0.14109  0.98720  0.82910  Biso   1.000  Zn
  Zn39     1.0000 0.07063  0.98823  0.83680  Biso   1.000  Zn
  Zn40     1.0000 0.03515  0.98830  0.33600  Biso   1.000  Zn
  P55      1.0000 0.21482  0.00922  0.72280  Biso   1.000  P
  P56      1.0000 0.16377  0.97740  0.60200  Biso   1.000  P
  P57      1.0000 0.15434  0.02141  0.89010  Biso   1.000  P
  P58      1.0000 0.10562  0.98037  0.78350  Biso   1.000  P
  P59      1.0000 0.05752  0.97791  0.10680  Biso   1.000  P
  P60      1.0000 0.04837  0.97814  0.60660  Biso   1.000  P
  O172     1.0000 0.19939  0.01561  0.66490  Biso   1.000  O
  O173     1.0000 0.22805  0.02184  0.70640  Biso   1.000  O
  O174     1.0000 0.21256  0.00424  0.86680  Biso   1.000  O
  O175     1.0000 0.17599  0.98695  0.67080  Biso   1.000  O
  O176     1.0000 0.16360  0.97975  0.45560  Biso   1.000  O
  O177     1.0000 0.14731  0.98006  0.64890  Biso   1.000  O
  O178     1.0000 0.14154  0.01040  0.83500  Biso   1.000  O
  O179     1.0000 0.15417  0.02262  0.04220  Biso   1.000  O
  O180     1.0000 0.17114  0.01780  0.84640  Biso   1.000  O
  O181     1.0000 0.10617  0.99430  0.69390  Biso   1.000  O
  O182     1.0000 0.09160  0.98170  0.87740  Biso   1.000  O
  O183     1.0000 0.12014  0.98030  0.86670  Biso   1.000  O
  O184     1.0000 0.05660  0.97790  0.96100  Biso   1.000  O
  O185     1.0000 0.04090  0.98130  0.15660  Biso   1.000  O
  O186     1.0000 0.07040  0.98890  0.15800  Biso   1.000  O
  O187     1.0000 0.04940  0.97740  0.45500  Biso   1.000  O
  O188     1.0000 0.03520  0.98890  0.66300  Biso   1.000  O
  O189     1.0000 0.06530  0.98070  0.65600  Biso   1.000  O
  O190     1.0000 0.01470  0.98110  0.37560  Biso   1.000  O
  H55      1.0000 0.10520  0.96680  0.69870  Biso   1.000  H
  H56      1.0000 0.15230  0.03680  0.82150  Biso   1.000  H
  H57      1.0000 0.06200  0.96520  0.17650  Biso   1.000  H
  H58      1.0000 0.21920  0.99380  0.63450  Biso   1.000  H
  H59      1.0000 0.16780  0.95810  0.62800  Biso   1.000  H
  H60      1.0000 0.04310  0.96250  0.65480  Biso   1.000  H
  Ga11     1.0000 0.74864  0.47864  0.75050  Biso   1.000  Ga
  Zn41     1.0000 0.82221  0.48958  0.67360  Biso   1.000  Zn
  Zn42     1.0000 0.85891  0.51280  0.82910  Biso   1.000  Zn
  Zn43     1.0000 0.92937  0.51177  0.83680  Biso   1.000  Zn
  Zn44     1.0000 0.96485  0.51170  0.33600  Biso   1.000  Zn
  P61      1.0000 0.78518  0.49078  0.72280  Biso   1.000  P
  P62      1.0000 0.83623  0.52260  0.60200  Biso   1.000  P
  P63      1.0000 0.84566  0.47859  0.89010  Biso   1.000  P
  P64      1.0000 0.89438  0.51963  0.78350  Biso   1.000  P
  P65      1.0000 0.94248  0.52209  0.10680  Biso   1.000  P
  P66      1.0000 0.95163  0.52186  0.60660  Biso   1.000  P
  O191     1.0000 0.80061  0.48439  0.66490  Biso   1.000  O
  O192     1.0000 0.77195  0.47816  0.70640  Biso   1.000  O
  O193     1.0000 0.78744  0.49576  0.86680  Biso   1.000  O
  O194     1.0000 0.82401  0.51305  0.67080  Biso   1.000  O
  O195     1.0000 0.83640  0.52025  0.45560  Biso   1.000  O
  O196     1.0000 0.85269  0.51994  0.64890  Biso   1.000  O
  O197     1.0000 0.85846  0.48960  0.83500  Biso   1.000  O
  O198     1.0000 0.84583  0.47738  0.04220  Biso   1.000  O
  O199     1.0000 0.82886  0.48220  0.84640  Biso   1.000  O
  O200     1.0000 0.89383  0.50570  0.69390  Biso   1.000  O
  O201     1.0000 0.90840  0.51830  0.87740  Biso   1.000  O
  O202     1.0000 0.87986  0.51970  0.86670  Biso   1.000  O
  O203     1.0000 0.94340  0.52210  0.96100  Biso   1.000  O
  O204     1.0000 0.95910  0.51870  0.15660  Biso   1.000  O
  O205     1.0000 0.92960  0.51110  0.15800  Biso   1.000  O
  O206     1.0000 0.95060  0.52260  0.45500  Biso   1.000  O
  O207     1.0000 0.96480  0.51110  0.66300  Biso   1.000  O
  O208     1.0000 0.93470  0.51930  0.65600  Biso   1.000  O
  O209     1.0000 0.98530  0.51890  0.37560  Biso   1.000  O
  H61      1.0000 0.89480  0.53320  0.69870  Biso   1.000  H
  H62      1.0000 0.84770  0.46320  0.82150  Biso   1.000  H
  H63      1.0000 0.93800  0.53480  0.17650  Biso   1.000  H
  H64      1.0000 0.78080  0.50620  0.63450  Biso   1.000  H
  H65      1.0000 0.83220  0.54190  0.62800  Biso   1.000  H
  H66      1.0000 0.95690  0.53750  0.65480  Biso   1.000  H
  Ga12     1.0000 0.24864  0.97864  0.25050  Biso   1.000  Ga
  Zn45     1.0000 0.32221  0.98958  0.17360  Biso   1.000  Zn
  Zn46     1.0000 0.35891  0.01280  0.32910  Biso   1.000  Zn
  Zn47     1.0000 0.42937  0.01177  0.33680  Biso   1.000  Zn
  Zn48     1.0000 0.46485  0.01170  0.83600  Biso   1.000  Zn
  P67      1.0000 0.28518  0.99078  0.22280  Biso   1.000  P
  P68      1.0000 0.33623  0.02260  0.10200  Biso   1.000  P
  P69      1.0000 0.34566  0.97859  0.39010  Biso   1.000  P
  P70      1.0000 0.39438  0.01963  0.28350  Biso   1.000  P
  P71      1.0000 0.44248  0.02209  0.60680  Biso   1.000  P
  P72      1.0000 0.45163  0.02186  0.10660  Biso   1.000  P
  O210     1.0000 0.30061  0.98439  0.16490  Biso   1.000  O
  O211     1.0000 0.27195  0.97816  0.20640  Biso   1.000  O
  O212     1.0000 0.28744  0.99576  0.36680  Biso   1.000  O
  O213     1.0000 0.32401  0.01305  0.17080  Biso   1.000  O
  O214     1.0000 0.33640  0.02025  0.95560  Biso   1.000  O
  O215     1.0000 0.35269  0.01994  0.14890  Biso   1.000  O
  O216     1.0000 0.35846  0.98960  0.33500  Biso   1.000  O
  O217     1.0000 0.34583  0.97738  0.54220  Biso   1.000  O
  O218     1.0000 0.32886  0.98220  0.34640  Biso   1.000  O
  O219     1.0000 0.39383  0.00570  0.19390  Biso   1.000  O
  O220     1.0000 0.40840  0.01830  0.37740  Biso   1.000  O
  O221     1.0000 0.37986  0.01970  0.36670  Biso   1.000  O
  O222     1.0000 0.44340  0.02210  0.46100  Biso   1.000  O
  O223     1.0000 0.45910  0.01870  0.65660  Biso   1.000  O
  O224     1.0000 0.42960  0.01110  0.65800  Biso   1.000  O
  O225     1.0000 0.45060  0.02260  0.95500  Biso   1.000  O
  O226     1.0000 0.46480  0.01110  0.16300  Biso   1.000  O
  O227     1.0000 0.43470  0.01930  0.15600  Biso   1.000  O
  O228     1.0000 0.48530  0.01890  0.87560  Biso   1.000  O
  H67      1.0000 0.39480  0.03320  0.19870  Biso   1.000  H
  H68      1.0000 0.34770  0.96320  0.32150  Biso   1.000  H
  H69      1.0000 0.43800  0.03480  0.67650  Biso   1.000  H
  H70      1.0000 0.28080  0.00620  0.13450  Biso   1.000  H
  H71      1.0000 0.33220  0.04190  0.12800  Biso   1.000  H
  H72      1.0000 0.45690  0.03750  0.15480  Biso   1.000  H
  Ga13     1.0000 0.77136  0.49864  0.00050  Biso   1.000  Ga
  Zn49     1.0000 0.76042  0.57221  0.92360  Biso   1.000  Zn
  Zn50     1.0000 0.73720  0.60891  0.07910  Biso   1.000  Zn
  Zn51     1.0000 0.73823  0.67937  0.08680  Biso   1.000  Zn
  Zn52     1.0000 0.73830  0.71485  0.58600  Biso   1.000  Zn
  P73      1.0000 0.75922  0.53518  0.97280  Biso   1.000  P
  P74      1.0000 0.72740  0.58623  0.85200  Biso   1.000  P
  P75      1.0000 0.77141  0.59566  0.14010  Biso   1.000  P
  P76      1.0000 0.73037  0.64438  0.03350  Biso   1.000  P
  P77      1.0000 0.72791  0.69248  0.35680  Biso   1.000  P
  P78      1.0000 0.72814  0.70163  0.85660  Biso   1.000  P
  O229     1.0000 0.76561  0.55061  0.91490  Biso   1.000  O
  O230     1.0000 0.77184  0.52195  0.95640  Biso   1.000  O
  O231     1.0000 0.75424  0.53744  0.11680  Biso   1.000  O
  O232     1.0000 0.73695  0.57401  0.92080  Biso   1.000  O
  O233     1.0000 0.72975  0.58640  0.70560  Biso   1.000  O
  O234     1.0000 0.73006  0.60269  0.89890  Biso   1.000  O
  O235     1.0000 0.76040  0.60846  0.08500  Biso   1.000  O
  O236     1.0000 0.77262  0.59583  0.29220  Biso   1.000  O
  O237     1.0000 0.76780  0.57886  0.09640  Biso   1.000  O
  O238     1.0000 0.74430  0.64383  0.94390  Biso   1.000  O
  O239     1.0000 0.73170  0.65840  0.12740  Biso   1.000  O
  O240     1.0000 0.73030  0.62986  0.11670  Biso   1.000  O
  O241     1.0000 0.72790  0.69340  0.21100  Biso   1.000  O
  O242     1.0000 0.73130  0.70910  0.40660  Biso   1.000  O
  O243     1.0000 0.73890  0.67960  0.40800  Biso   1.000  O
  O244     1.0000 0.72740  0.70060  0.70500  Biso   1.000  O
  O245     1.0000 0.73890  0.71480  0.91300  Biso   1.000  O
  O246     1.0000 0.73070  0.68470  0.90600  Biso   1.000  O
  O247     1.0000 0.73110  0.73530  0.62560  Biso   1.000  O
  H73      1.0000 0.71680  0.64480  0.94870  Biso   1.000  H
  H74      1.0000 0.78680  0.59770  0.07150  Biso   1.000  H
  H75      1.0000 0.71520  0.68800  0.42650  Biso   1.000  H
  H76      1.0000 0.74380  0.53080  0.88450  Biso   1.000  H
  H77      1.0000 0.70810  0.58220  0.87800  Biso   1.000  H
  H78      1.0000 0.71250  0.70690  0.90480  Biso   1.000  H
  Ga14     1.0000 0.27136  0.99864  0.50050  Biso   1.000  Ga
  Zn53     1.0000 0.26042  0.07221  0.42360  Biso   1.000  Zn
  Zn54     1.0000 0.23720  0.10891  0.57910  Biso   1.000  Zn
  Zn55     1.0000 0.23823  0.17937  0.58680  Biso   1.000  Zn
  Zn56     1.0000 0.23830  0.21485  0.08600  Biso   1.000  Zn
  P79      1.0000 0.25922  0.03518  0.47280  Biso   1.000  P
  P80      1.0000 0.22740  0.08623  0.35200  Biso   1.000  P
  P81      1.0000 0.27141  0.09566  0.64010  Biso   1.000  P
  P82      1.0000 0.23037  0.14438  0.53350  Biso   1.000  P
  P83      1.0000 0.22791  0.19248  0.85680  Biso   1.000  P
  P84      1.0000 0.22814  0.20163  0.35660  Biso   1.000  P
  O248     1.0000 0.26561  0.05061  0.41490  Biso   1.000  O
  O249     1.0000 0.27184  0.02195  0.45640  Biso   1.000  O
  O250     1.0000 0.25424  0.03744  0.61680  Biso   1.000  O
  O251     1.0000 0.23695  0.07401  0.42080  Biso   1.000  O
  O252     1.0000 0.22975  0.08640  0.20560  Biso   1.000  O
  O253     1.0000 0.23006  0.10269  0.39890  Biso   1.000  O
  O254     1.0000 0.26040  0.10846  0.58500  Biso   1.000  O
  O255     1.0000 0.27262  0.09583  0.79220  Biso   1.000  O
  O256     1.0000 0.26780  0.07886  0.59640  Biso   1.000  O
  O257     1.0000 0.24430  0.14383  0.44390  Biso   1.000  O
  O258     1.0000 0.23170  0.15840  0.62740  Biso   1.000  O
  O259     1.0000 0.23030  0.12986  0.61670  Biso   1.000  O
  O260     1.0000 0.22790  0.19340  0.71100  Biso   1.000  O
  O261     1.0000 0.23130  0.20910  0.90660  Biso   1.000  O
  O262     1.0000 0.23890  0.17960  0.90800  Biso   1.000  O
  O263     1.0000 0.22740  0.20060  0.20500  Biso   1.000  O
  O264     1.0000 0.23890  0.21480  0.41300  Biso   1.000  O
  O265     1.0000 0.23070  0.18470  0.40600  Biso   1.000  O
  O266     1.0000 0.23110  0.23530  0.12560  Biso   1.000  O
  H79      1.0000 0.21680  0.14480  0.44870  Biso   1.000  H
  H80      1.0000 0.28680  0.09770  0.57150  Biso   1.000  H
  H81      1.0000 0.21520  0.18800  0.92650  Biso   1.000  H
  H82      1.0000 0.24380  0.03080  0.38450  Biso   1.000  H
  H83      1.0000 0.20810  0.08220  0.37800  Biso   1.000  H
  H84      1.0000 0.21250  0.20690  0.40480  Biso   1.000  H
  Ga15     1.0000 0.72864  0.50136  0.50050  Biso   1.000  Ga
  Zn57     1.0000 0.73958  0.42779  0.42360  Biso   1.000  Zn
  Zn58     1.0000 0.76280  0.39109  0.57910  Biso   1.000  Zn
  Zn59     1.0000 0.76177  0.32063  0.58680  Biso   1.000  Zn
  Zn60     1.0000 0.76170  0.28515  0.08600  Biso   1.000  Zn
  P85      1.0000 0.74078  0.46482  0.47280  Biso   1.000  P
  P86      1.0000 0.77260  0.41377  0.35200  Biso   1.000  P
  P87      1.0000 0.72859  0.40434  0.64010  Biso   1.000  P
  P88      1.0000 0.76963  0.35562  0.53350  Biso   1.000  P
  P89      1.0000 0.77209  0.30752  0.85680  Biso   1.000  P
  P90      1.0000 0.77186  0.29837  0.35660  Biso   1.000  P
  O267     1.0000 0.73439  0.44939  0.41490  Biso   1.000  O
  O268     1.0000 0.72816  0.47805  0.45640  Biso   1.000  O
  O269     1.0000 0.74576  0.46256  0.61680  Biso   1.000  O
  O270     1.0000 0.76305  0.42599  0.42080  Biso   1.000  O
  O271     1.0000 0.77025  0.41360  0.20560  Biso   1.000  O
  O272     1.0000 0.76994  0.39731  0.39890  Biso   1.000  O
  O273     1.0000 0.73960  0.39154  0.58500  Biso   1.000  O
  O274     1.0000 0.72738  0.40417  0.79220  Biso   1.000  O
  O275     1.0000 0.73220  0.42114  0.59640  Biso   1.000  O
  O276     1.0000 0.75570  0.35617  0.44390  Biso   1.000  O
  O277     1.0000 0.76830  0.34160  0.62740  Biso   1.000  O
  O278     1.0000 0.76970  0.37014  0.61670  Biso   1.000  O
  O279     1.0000 0.77210  0.30660  0.71100  Biso   1.000  O
  O280     1.0000 0.76870  0.29090  0.90660  Biso   1.000  O
  O281     1.0000 0.76110  0.32040  0.90800  Biso   1.000  O
  O282     1.0000 0.77260  0.29940  0.20500  Biso   1.000  O
  O283     1.0000 0.76110  0.28520  0.41300  Biso   1.000  O
  O284     1.0000 0.76930  0.31530  0.40600  Biso   1.000  O
  O285     1.0000 0.76890  0.26470  0.12560  Biso   1.000  O
  H85      1.0000 0.78320  0.35520  0.44870  Biso   1.000  H
  H86      1.0000 0.71320  0.40230  0.57150  Biso   1.000  H
  H87      1.0000 0.78480  0.31200  0.92650  Biso   1.000  H
  H88      1.0000 0.75620  0.46920  0.38450  Biso   1.000  H
  H89      1.0000 0.79190  0.41780  0.37800  Biso   1.000  H
  H90      1.0000 0.78750  0.29310  0.40480  Biso   1.000  H
  Ga16     1.0000 0.22864  0.00136  0.00050  Biso   1.000  Ga
  Zn61     1.0000 0.23958  0.92779  0.92360  Biso   1.000  Zn
  Zn62     1.0000 0.26280  0.89109  0.07910  Biso   1.000  Zn
  Zn63     1.0000 0.26177  0.82063  0.08680  Biso   1.000  Zn
  Zn64     1.0000 0.26170  0.78515  0.58600  Biso   1.000  Zn
  P91      1.0000 0.24078  0.96482  0.97280  Biso   1.000  P
  P92      1.0000 0.27260  0.91377  0.85200  Biso   1.000  P
  P93      1.0000 0.22859  0.90434  0.14010  Biso   1.000  P
  P94      1.0000 0.26963  0.85562  0.03350  Biso   1.000  P
  P95      1.0000 0.27209  0.80752  0.35680  Biso   1.000  P
  P96      1.0000 0.27186  0.79837  0.85660  Biso   1.000  P
  O286     1.0000 0.23439  0.94939  0.91490  Biso   1.000  O
  O287     1.0000 0.22816  0.97805  0.95640  Biso   1.000  O
  O288     1.0000 0.24576  0.96256  0.11680  Biso   1.000  O
  O289     1.0000 0.26305  0.92599  0.92080  Biso   1.000  O
  O290     1.0000 0.27025  0.91360  0.70560  Biso   1.000  O
  O291     1.0000 0.26994  0.89731  0.89890  Biso   1.000  O
  O292     1.0000 0.23960  0.89154  0.08500  Biso   1.000  O
  O293     1.0000 0.22738  0.90417  0.29220  Biso   1.000  O
  O294     1.0000 0.23220  0.92114  0.09640  Biso   1.000  O
  O295     1.0000 0.25570  0.85617  0.94390  Biso   1.000  O
  O296     1.0000 0.26830  0.84160  0.12740  Biso   1.000  O
  O297     1.0000 0.26970  0.87014  0.11670  Biso   1.000  O
  O298     1.0000 0.27210  0.80660  0.21100  Biso   1.000  O
  O299     1.0000 0.26870  0.79090  0.40660  Biso   1.000  O
  O300     1.0000 0.26110  0.82040  0.40800  Biso   1.000  O
  O301     1.0000 0.27260  0.79940  0.70500  Biso   1.000  O
  O302     1.0000 0.26110  0.78520  0.91300  Biso   1.000  O
  O303     1.0000 0.26930  0.81530  0.90600  Biso   1.000  O
  O304     1.0000 0.26890  0.76470  0.62560  Biso   1.000  O
  H91      1.0000 0.28320  0.85520  0.94870  Biso   1.000  H
  H92      1.0000 0.21320  0.90230  0.07150  Biso   1.000  H
  H93      1.0000 0.28480  0.81200  0.42650  Biso   1.000  H
  H94      1.0000 0.25620  0.96920  0.88450  Biso   1.000  H
  H95      1.0000 0.29190  0.91780  0.87800  Biso   1.000  H
  H96      1.0000 0.28750  0.79310  0.90480  Biso   1.000  H
  Ga17     1.0000 0.25136  0.47864  0.75050  Biso   1.000  Ga
  Zn65     1.0000 0.17779  0.48958  0.67360  Biso   1.000  Zn
  Zn66     1.0000 0.14109  0.51280  0.82910  Biso   1.000  Zn
  Zn67     1.0000 0.07063  0.51177  0.83680  Biso   1.000  Zn
  Zn68     1.0000 0.03515  0.51170  0.33600  Biso   1.000  Zn
  P97      1.0000 0.21482  0.49078  0.72280  Biso   1.000  P
  P98      1.0000 0.16377  0.52260  0.60200  Biso   1.000  P
  P99      1.0000 0.15434  0.47859  0.89010  Biso   1.000  P
  P100     1.0000 0.10562  0.51963  0.78350  Biso   1.000  P
  P101     1.0000 0.05752  0.52209  0.10680  Biso   1.000  P
  P102     1.0000 0.04837  0.52186  0.60660  Biso   1.000  P
  O305     1.0000 0.19939  0.48439  0.66490  Biso   1.000  O
  O306     1.0000 0.22805  0.47816  0.70640  Biso   1.000  O
  O307     1.0000 0.21256  0.49576  0.86680  Biso   1.000  O
  O308     1.0000 0.17599  0.51305  0.67080  Biso   1.000  O
  O309     1.0000 0.16360  0.52025  0.45560  Biso   1.000  O
  O310     1.0000 0.14731  0.51994  0.64890  Biso   1.000  O
  O311     1.0000 0.14154  0.48960  0.83500  Biso   1.000  O
  O312     1.0000 0.15417  0.47738  0.04220  Biso   1.000  O
  O313     1.0000 0.17114  0.48220  0.84640  Biso   1.000  O
  O314     1.0000 0.10617  0.50570  0.69390  Biso   1.000  O
  O315     1.0000 0.09160  0.51830  0.87740  Biso   1.000  O
  O316     1.0000 0.12014  0.51970  0.86670  Biso   1.000  O
  O317     1.0000 0.05660  0.52210  0.96100  Biso   1.000  O
  O318     1.0000 0.04090  0.51870  0.15660  Biso   1.000  O
  O319     1.0000 0.07040  0.51110  0.15800  Biso   1.000  O
  O320     1.0000 0.04940  0.52260  0.45500  Biso   1.000  O
  O321     1.0000 0.03520  0.51110  0.66300  Biso   1.000  O
  O322     1.0000 0.06530  0.51930  0.65600  Biso   1.000  O
  O323     1.0000 0.01470  0.51890  0.37560  Biso   1.000  O
  H97      1.0000 0.10520  0.53320  0.69870  Biso   1.000  H
  H98      1.0000 0.15230  0.46320  0.82150  Biso   1.000  H
  H99      1.0000 0.06200  0.53480  0.17650  Biso   1.000  H
  H100     1.0000 0.21920  0.50620  0.63450  Biso   1.000  H
  H101     1.0000 0.16780  0.54190  0.62800  Biso   1.000  H
  H102     1.0000 0.04310  0.53750  0.65480  Biso   1.000  H
  Ga18     1.0000 0.75136  0.97864  0.25050  Biso   1.000  Ga
  Zn69     1.0000 0.67779  0.98958  0.17360  Biso   1.000  Zn
  Zn70     1.0000 0.64109  0.01280  0.32910  Biso   1.000  Zn
  Zn71     1.0000 0.57063  0.01177  0.33680  Biso   1.000  Zn
  Zn72     1.0000 0.53515  0.01170  0.83600  Biso   1.000  Zn
  P103     1.0000 0.71482  0.99078  0.22280  Biso   1.000  P
  P104     1.0000 0.66377  0.02260  0.10200  Biso   1.000  P
  P105     1.0000 0.65434  0.97859  0.39010  Biso   1.000  P
  P106     1.0000 0.60562  0.01963  0.28350  Biso   1.000  P
  P107     1.0000 0.55752  0.02209  0.60680  Biso   1.000  P
  P108     1.0000 0.54837  0.02186  0.10660  Biso   1.000  P
  O324     1.0000 0.69939  0.98439  0.16490  Biso   1.000  O
  O325     1.0000 0.72805  0.97816  0.20640  Biso   1.000  O
  O326     1.0000 0.71256  0.99576  0.36680  Biso   1.000  O
  O327     1.0000 0.67599  0.01305  0.17080  Biso   1.000  O
  O328     1.0000 0.66360  0.02025  0.95560  Biso   1.000  O
  O329     1.0000 0.64731  0.01994  0.14890  Biso   1.000  O
  O330     1.0000 0.64154  0.98960  0.33500  Biso   1.000  O
  O331     1.0000 0.65417  0.97738  0.54220  Biso   1.000  O
  O332     1.0000 0.67114  0.98220  0.34640  Biso   1.000  O
  O333     1.0000 0.60617  0.00570  0.19390  Biso   1.000  O
  O334     1.0000 0.59160  0.01830  0.37740  Biso   1.000  O
  O335     1.0000 0.62014  0.01970  0.36670  Biso   1.000  O
  O336     1.0000 0.55660  0.02210  0.46100  Biso   1.000  O
  O337     1.0000 0.54090  0.01870  0.65660  Biso   1.000  O
  O338     1.0000 0.57040  0.01110  0.65800  Biso   1.000  O
  O339     1.0000 0.54940  0.02260  0.95500  Biso   1.000  O
  O340     1.0000 0.53520  0.01110  0.16300  Biso   1.000  O
  O341     1.0000 0.56530  0.01930  0.15600  Biso   1.000  O
  O342     1.0000 0.51470  0.01890  0.87560  Biso   1.000  O
  H103     1.0000 0.60520  0.03320  0.19870  Biso   1.000  H
  H104     1.0000 0.65230  0.96320  0.32150  Biso   1.000  H
  H105     1.0000 0.56200  0.03480  0.67650  Biso   1.000  H
  H106     1.0000 0.71920  0.00620  0.13450  Biso   1.000  H
  H107     1.0000 0.66780  0.04190  0.12800  Biso   1.000  H
  H108     1.0000 0.54310  0.03750  0.15480  Biso   1.000  H
  Ga19     1.0000 0.24864  0.52136  0.25050  Biso   1.000  Ga
  Zn73     1.0000 0.32221  0.51042  0.17360  Biso   1.000  Zn
  Zn74     1.0000 0.35891  0.48720  0.32910  Biso   1.000  Zn
  Zn75     1.0000 0.42937  0.48823  0.33680  Biso   1.000  Zn
  Zn76     1.0000 0.46485  0.48830  0.83600  Biso   1.000  Zn
  P109     1.0000 0.28518  0.50922  0.22280  Biso   1.000  P
  P110     1.0000 0.33623  0.47740  0.10200  Biso   1.000  P
  P111     1.0000 0.34566  0.52141  0.39010  Biso   1.000  P
  P112     1.0000 0.39438  0.48037  0.28350  Biso   1.000  P
  P113     1.0000 0.44248  0.47791  0.60680  Biso   1.000  P
  P114     1.0000 0.45163  0.47814  0.10660  Biso   1.000  P
  O343     1.0000 0.30061  0.51561  0.16490  Biso   1.000  O
  O344     1.0000 0.27195  0.52184  0.20640  Biso   1.000  O
  O345     1.0000 0.28744  0.50424  0.36680  Biso   1.000  O
  O346     1.0000 0.32401  0.48695  0.17080  Biso   1.000  O
  O347     1.0000 0.33640  0.47975  0.95560  Biso   1.000  O
  O348     1.0000 0.35269  0.48006  0.14890  Biso   1.000  O
  O349     1.0000 0.35846  0.51040  0.33500  Biso   1.000  O
  O350     1.0000 0.34583  0.52262  0.54220  Biso   1.000  O
  O351     1.0000 0.32886  0.51780  0.34640  Biso   1.000  O
  O352     1.0000 0.39383  0.49430  0.19390  Biso   1.000  O
  O353     1.0000 0.40840  0.48170  0.37740  Biso   1.000  O
  O354     1.0000 0.37986  0.48030  0.36670  Biso   1.000  O
  O355     1.0000 0.44340  0.47790  0.46100  Biso   1.000  O
  O356     1.0000 0.45910  0.48130  0.65660  Biso   1.000  O
  O357     1.0000 0.42960  0.48890  0.65800  Biso   1.000  O
  O358     1.0000 0.45060  0.47740  0.95500  Biso   1.000  O
  O359     1.0000 0.46480  0.48890  0.16300  Biso   1.000  O
  O360     1.0000 0.43470  0.48070  0.15600  Biso   1.000  O
  O361     1.0000 0.48530  0.48110  0.87560  Biso   1.000  O
  H109     1.0000 0.39480  0.46680  0.19870  Biso   1.000  H
  H110     1.0000 0.34770  0.53680  0.32150  Biso   1.000  H
  H111     1.0000 0.43800  0.46520  0.67650  Biso   1.000  H
  H112     1.0000 0.28080  0.49380  0.13450  Biso   1.000  H
  H113     1.0000 0.33220  0.45810  0.12800  Biso   1.000  H
  H114     1.0000 0.45690  0.46250  0.15480  Biso   1.000  H
  Ga20     1.0000 0.74864  0.02136  0.75050  Biso   1.000  Ga
  Zn77     1.0000 0.82221  0.01042  0.67360  Biso   1.000  Zn
  Zn78     1.0000 0.85891  0.98720  0.82910  Biso   1.000  Zn
  Zn79     1.0000 0.92937  0.98823  0.83680  Biso   1.000  Zn
  Zn80     1.0000 0.96485  0.98830  0.33600  Biso   1.000  Zn
  P115     1.0000 0.78518  0.00922  0.72280  Biso   1.000  P
  P116     1.0000 0.83623  0.97740  0.60200  Biso   1.000  P
  P117     1.0000 0.84566  0.02141  0.89010  Biso   1.000  P
  P118     1.0000 0.89438  0.98037  0.78350  Biso   1.000  P
  P119     1.0000 0.94248  0.97791  0.10680  Biso   1.000  P
  P120     1.0000 0.95163  0.97814  0.60660  Biso   1.000  P
  O362     1.0000 0.80061  0.01561  0.66490  Biso   1.000  O
  O363     1.0000 0.77195  0.02184  0.70640  Biso   1.000  O
  O364     1.0000 0.78744  0.00424  0.86680  Biso   1.000  O
  O365     1.0000 0.82401  0.98695  0.67080  Biso   1.000  O
  O366     1.0000 0.83640  0.97975  0.45560  Biso   1.000  O
  O367     1.0000 0.85269  0.98006  0.64890  Biso   1.000  O
  O368     1.0000 0.85846  0.01040  0.83500  Biso   1.000  O
  O369     1.0000 0.84583  0.02262  0.04220  Biso   1.000  O
  O370     1.0000 0.82886  0.01780  0.84640  Biso   1.000  O
  O371     1.0000 0.89383  0.99430  0.69390  Biso   1.000  O
  O372     1.0000 0.90840  0.98170  0.87740  Biso   1.000  O
  O373     1.0000 0.87986  0.98030  0.86670  Biso   1.000  O
  O374     1.0000 0.94340  0.97790  0.96100  Biso   1.000  O
  O375     1.0000 0.95910  0.98130  0.15660  Biso   1.000  O
  O376     1.0000 0.92960  0.98890  0.15800  Biso   1.000  O
  O377     1.0000 0.95060  0.97740  0.45500  Biso   1.000  O
  O378     1.0000 0.96480  0.98890  0.66300  Biso   1.000  O
  O379     1.0000 0.93470  0.98070  0.65600  Biso   1.000  O
  O380     1.0000 0.98530  0.98110  0.37560  Biso   1.000  O
  H115     1.0000 0.89480  0.96680  0.69870  Biso   1.000  H
  H116     1.0000 0.84770  0.03680  0.82150  Biso   1.000  H
  H117     1.0000 0.93800  0.96520  0.17650  Biso   1.000  H
  H118     1.0000 0.78080  0.99380  0.63450  Biso   1.000  H
  H119     1.0000 0.83220  0.95810  0.62800  Biso   1.000  H
  H120     1.0000 0.95690  0.96250  0.65480  Biso   1.000  H
  Ga21     1.0000 0.27136  0.50136  0.50050  Biso   1.000  Ga
  Zn81     1.0000 0.26042  0.42779  0.42360  Biso   1.000  Zn
  Zn82     1.0000 0.23720  0.39109  0.57910  Biso   1.000  Zn
  Zn83     1.0000 0.23823  0.32063  0.58680  Biso   1.000  Zn
  Zn84     1.0000 0.23830  0.28515  0.08600  Biso   1.000  Zn
  P121     1.0000 0.25922  0.46482  0.47280  Biso   1.000  P
  P122     1.0000 0.22740  0.41377  0.35200  Biso   1.000  P
  P123     1.0000 0.27141  0.40434  0.64010  Biso   1.000  P
  P124     1.0000 0.23037  0.35562  0.53350  Biso   1.000  P
  P125     1.0000 0.22791  0.30752  0.85680  Biso   1.000  P
  P126     1.0000 0.22814  0.29837  0.35660  Biso   1.000  P
  O381     1.0000 0.26561  0.44939  0.41490  Biso   1.000  O
  O382     1.0000 0.27184  0.47805  0.45640  Biso   1.000  O
  O383     1.0000 0.25424  0.46256  0.61680  Biso   1.000  O
  O384     1.0000 0.23695  0.42599  0.42080  Biso   1.000  O
  O385     1.0000 0.22975  0.41360  0.20560  Biso   1.000  O
  O386     1.0000 0.23006  0.39731  0.39890  Biso   1.000  O
  O387     1.0000 0.26040  0.39154  0.58500  Biso   1.000  O
  O388     1.0000 0.27262  0.40417  0.79220  Biso   1.000  O
  O389     1.0000 0.26780  0.42114  0.59640  Biso   1.000  O
  O390     1.0000 0.24430  0.35617  0.44390  Biso   1.000  O
  O391     1.0000 0.23170  0.34160  0.62740  Biso   1.000  O
  O392     1.0000 0.23030  0.37014  0.61670  Biso   1.000  O
  O393     1.0000 0.22790  0.30660  0.71100  Biso   1.000  O
  O394     1.0000 0.23130  0.29090  0.90660  Biso   1.000  O
  O395     1.0000 0.23890  0.32040  0.90800  Biso   1.000  O
  O396     1.0000 0.22740  0.29940  0.20500  Biso   1.000  O
  O397     1.0000 0.23890  0.28520  0.41300  Biso   1.000  O
  O398     1.0000 0.23070  0.31530  0.40600  Biso   1.000  O
  O399     1.0000 0.23110  0.26470  0.12560  Biso   1.000  O
  H121     1.0000 0.21680  0.35520  0.44870  Biso   1.000  H
  H122     1.0000 0.28680  0.40230  0.57150  Biso   1.000  H
  H123     1.0000 0.21520  0.31200  0.92650  Biso   1.000  H
  H124     1.0000 0.24380  0.46920  0.38450  Biso   1.000  H
  H125     1.0000 0.20810  0.41780  0.37800  Biso   1.000  H
  H126     1.0000 0.21250  0.29310  0.40480  Biso   1.000  H
  Ga22     1.0000 0.77136  0.00136  0.00050  Biso   1.000  Ga
  Zn85     1.0000 0.76042  0.92779  0.92360  Biso   1.000  Zn
  Zn86     1.0000 0.73720  0.89109  0.07910  Biso   1.000  Zn
  Zn87     1.0000 0.73823  0.82063  0.08680  Biso   1.000  Zn
  Zn88     1.0000 0.73830  0.78515  0.58600  Biso   1.000  Zn
  P127     1.0000 0.75922  0.96482  0.97280  Biso   1.000  P
  P128     1.0000 0.72740  0.91377  0.85200  Biso   1.000  P
  P129     1.0000 0.77141  0.90434  0.14010  Biso   1.000  P
  P130     1.0000 0.73037  0.85562  0.03350  Biso   1.000  P
  P131     1.0000 0.72791  0.80752  0.35680  Biso   1.000  P
  P132     1.0000 0.72814  0.79837  0.85660  Biso   1.000  P
  O400     1.0000 0.76561  0.94939  0.91490  Biso   1.000  O
  O401     1.0000 0.77184  0.97805  0.95640  Biso   1.000  O
  O402     1.0000 0.75424  0.96256  0.11680  Biso   1.000  O
  O403     1.0000 0.73695  0.92599  0.92080  Biso   1.000  O
  O404     1.0000 0.72975  0.91360  0.70560  Biso   1.000  O
  O405     1.0000 0.73006  0.89731  0.89890  Biso   1.000  O
  O406     1.0000 0.76040  0.89154  0.08500  Biso   1.000  O
  O407     1.0000 0.77262  0.90417  0.29220  Biso   1.000  O
  O408     1.0000 0.76780  0.92114  0.09640  Biso   1.000  O
  O409     1.0000 0.74430  0.85617  0.94390  Biso   1.000  O
  O410     1.0000 0.73170  0.84160  0.12740  Biso   1.000  O
  O411     1.0000 0.73030  0.87014  0.11670  Biso   1.000  O
  O412     1.0000 0.72790  0.80660  0.21100  Biso   1.000  O
  O413     1.0000 0.73130  0.79090  0.40660  Biso   1.000  O
  O414     1.0000 0.73890  0.82040  0.40800  Biso   1.000  O
  O415     1.0000 0.72740  0.79940  0.70500  Biso   1.000  O
  O416     1.0000 0.73890  0.78520  0.91300  Biso   1.000  O
  O417     1.0000 0.73070  0.81530  0.90600  Biso   1.000  O
  O418     1.0000 0.73110  0.76470  0.62560  Biso   1.000  O
  H127     1.0000 0.71680  0.85520  0.94870  Biso   1.000  H
  H128     1.0000 0.78680  0.90230  0.07150  Biso   1.000  H
  H129     1.0000 0.71520  0.81200  0.42650  Biso   1.000  H
  H130     1.0000 0.74380  0.96920  0.88450  Biso   1.000  H
  H131     1.0000 0.70810  0.91780  0.87800  Biso   1.000  H
  H132     1.0000 0.71250  0.79310  0.90480  Biso   1.000  H
  Ga23     1.0000 0.22864  0.49864  0.00050  Biso   1.000  Ga
  Zn89     1.0000 0.23958  0.57221  0.92360  Biso   1.000  Zn
  Zn90     1.0000 0.26280  0.60891  0.07910  Biso   1.000  Zn
  Zn91     1.0000 0.26177  0.67937  0.08680  Biso   1.000  Zn
  Zn92     1.0000 0.26170  0.71485  0.58600  Biso   1.000  Zn
  P133     1.0000 0.24078  0.53518  0.97280  Biso   1.000  P
  P134     1.0000 0.27260  0.58623  0.85200  Biso   1.000  P
  P135     1.0000 0.22859  0.59566  0.14010  Biso   1.000  P
  P136     1.0000 0.26963  0.64438  0.03350  Biso   1.000  P
  P137     1.0000 0.27209  0.69248  0.35680  Biso   1.000  P
  P138     1.0000 0.27186  0.70163  0.85660  Biso   1.000  P
  O419     1.0000 0.23439  0.55061  0.91490  Biso   1.000  O
  O420     1.0000 0.22816  0.52195  0.95640  Biso   1.000  O
  O421     1.0000 0.24576  0.53744  0.11680  Biso   1.000  O
  O422     1.0000 0.26305  0.57401  0.92080  Biso   1.000  O
  O423     1.0000 0.27025  0.58640  0.70560  Biso   1.000  O
  O424     1.0000 0.26994  0.60269  0.89890  Biso   1.000  O
  O425     1.0000 0.23960  0.60846  0.08500  Biso   1.000  O
  O426     1.0000 0.22738  0.59583  0.29220  Biso   1.000  O
  O427     1.0000 0.23220  0.57886  0.09640  Biso   1.000  O
  O428     1.0000 0.25570  0.64383  0.94390  Biso   1.000  O
  O429     1.0000 0.26830  0.65840  0.12740  Biso   1.000  O
  O430     1.0000 0.26970  0.62986  0.11670  Biso   1.000  O
  O431     1.0000 0.27210  0.69340  0.21100  Biso   1.000  O
  O432     1.0000 0.26870  0.70910  0.40660  Biso   1.000  O
  O433     1.0000 0.26110  0.67960  0.40800  Biso   1.000  O
  O434     1.0000 0.27260  0.70060  0.70500  Biso   1.000  O
  O435     1.0000 0.26110  0.71480  0.91300  Biso   1.000  O
  O436     1.0000 0.26930  0.68470  0.90600  Biso   1.000  O
  O437     1.0000 0.26890  0.73530  0.62560  Biso   1.000  O
  H133     1.0000 0.28320  0.64480  0.94870  Biso   1.000  H
  H134     1.0000 0.21320  0.59770  0.07150  Biso   1.000  H
  H135     1.0000 0.28480  0.68800  0.42650  Biso   1.000  H
  H136     1.0000 0.25620  0.53080  0.88450  Biso   1.000  H
  H137     1.0000 0.29190  0.58220  0.87800  Biso   1.000  H
  H138     1.0000 0.28750  0.70690  0.90480  Biso   1.000  H
  Ga24     1.0000 0.72864  0.99864  0.50050  Biso   1.000  Ga
  Zn93     1.0000 0.73958  0.07221  0.42360  Biso   1.000  Zn
  Zn94     1.0000 0.76280  0.10891  0.57910  Biso   1.000  Zn
  Zn95     1.0000 0.76177  0.17937  0.58680  Biso   1.000  Zn
  Zn96     1.0000 0.76170  0.21485  0.08600  Biso   1.000  Zn
  P139     1.0000 0.74078  0.03518  0.47280  Biso   1.000  P
  P140     1.0000 0.77260  0.08623  0.35200  Biso   1.000  P
  P141     1.0000 0.72859  0.09566  0.64010  Biso   1.000  P
  P142     1.0000 0.76963  0.14438  0.53350  Biso   1.000  P
  P143     1.0000 0.77209  0.19248  0.85680  Biso   1.000  P
  P144     1.0000 0.77186  0.20163  0.35660  Biso   1.000  P
  O438     1.0000 0.73439  0.05061  0.41490  Biso   1.000  O
  O439     1.0000 0.72816  0.02195  0.45640  Biso   1.000  O
  O440     1.0000 0.74576  0.03744  0.61680  Biso   1.000  O
  O441     1.0000 0.76305  0.07401  0.42080  Biso   1.000  O
  O442     1.0000 0.77025  0.08640  0.20560  Biso   1.000  O
  O443     1.0000 0.76994  0.10269  0.39890  Biso   1.000  O
  O444     1.0000 0.73960  0.10846  0.58500  Biso   1.000  O
  O445     1.0000 0.72738  0.09583  0.79220  Biso   1.000  O
  O446     1.0000 0.73220  0.07886  0.59640  Biso   1.000  O
  O447     1.0000 0.75570  0.14383  0.44390  Biso   1.000  O
  O448     1.0000 0.76830  0.15840  0.62740  Biso   1.000  O
  O449     1.0000 0.76970  0.12986  0.61670  Biso   1.000  O
  O450     1.0000 0.77210  0.19340  0.71100  Biso   1.000  O
  O451     1.0000 0.76870  0.20910  0.90660  Biso   1.000  O
  O452     1.0000 0.76110  0.17960  0.90800  Biso   1.000  O
  O453     1.0000 0.77260  0.20060  0.20500  Biso   1.000  O
  O454     1.0000 0.76110  0.21480  0.41300  Biso   1.000  O
  O455     1.0000 0.76930  0.18470  0.40600  Biso   1.000  O
  O456     1.0000 0.76890  0.23530  0.12560  Biso   1.000  O
  H139     1.0000 0.78320  0.14480  0.44870  Biso   1.000  H
  H140     1.0000 0.71320  0.09770  0.57150  Biso   1.000  H
  H141     1.0000 0.78480  0.18800  0.92650  Biso   1.000  H
  H142     1.0000 0.75620  0.03080  0.38450  Biso   1.000  H
  H143     1.0000 0.79190  0.08220  0.37800  Biso   1.000  H
  H144     1.0000 0.78750  0.20690  0.40480  Biso   1.000  H
  Ga25     1.0000 0.24864  0.47864  0.74950  Biso   1.000  Ga
  Zn97     1.0000 0.32221  0.48958  0.82640  Biso   1.000  Zn
  Zn98     1.0000 0.35891  0.51280  0.67090  Biso   1.000  Zn
  Zn99     1.0000 0.42937  0.51177  0.66320  Biso   1.000  Zn
  Zn100    1.0000 0.46485  0.51170  0.16400  Biso   1.000  Zn
  P145     1.0000 0.28518  0.49078  0.77720  Biso   1.000  P
  P146     1.0000 0.33623  0.52260  0.89800  Biso   1.000  P
  P147     1.0000 0.34566  0.47859  0.60990  Biso   1.000  P
  P148     1.0000 0.39438  0.51963  0.71650  Biso   1.000  P
  P149     1.0000 0.44248  0.52209  0.39320  Biso   1.000  P
  P150     1.0000 0.45163  0.52186  0.89340  Biso   1.000  P
  O457     1.0000 0.30061  0.48439  0.83510  Biso   1.000  O
  O458     1.0000 0.27195  0.47816  0.79360  Biso   1.000  O
  O459     1.0000 0.28744  0.49576  0.63320  Biso   1.000  O
  O460     1.0000 0.32401  0.51305  0.82920  Biso   1.000  O
  O461     1.0000 0.33640  0.52025  0.04440  Biso   1.000  O
  O462     1.0000 0.35269  0.51994  0.85110  Biso   1.000  O
  O463     1.0000 0.35846  0.48960  0.66500  Biso   1.000  O
  O464     1.0000 0.34583  0.47738  0.45780  Biso   1.000  O
  O465     1.0000 0.32886  0.48220  0.65360  Biso   1.000  O
  O466     1.0000 0.39383  0.50570  0.80610  Biso   1.000  O
  O467     1.0000 0.40840  0.51830  0.62260  Biso   1.000  O
  O468     1.0000 0.37986  0.51970  0.63330  Biso   1.000  O
  O469     1.0000 0.44340  0.52210  0.53900  Biso   1.000  O
  O470     1.0000 0.45910  0.51870  0.34340  Biso   1.000  O
  O471     1.0000 0.42960  0.51110  0.34200  Biso   1.000  O
  O472     1.0000 0.45060  0.52260  0.04500  Biso   1.000  O
  O473     1.0000 0.46480  0.51110  0.83700  Biso   1.000  O
  O474     1.0000 0.43470  0.51930  0.84400  Biso   1.000  O
  O475     1.0000 0.48530  0.51890  0.12440  Biso   1.000  O
  H145     1.0000 0.39480  0.53320  0.80130  Biso   1.000  H
  H146     1.0000 0.34770  0.46320  0.67850  Biso   1.000  H
  H147     1.0000 0.43800  0.53480  0.32350  Biso   1.000  H
  H148     1.0000 0.28080  0.50620  0.86550  Biso   1.000  H
  H149     1.0000 0.33220  0.54190  0.87200  Biso   1.000  H
  H150     1.0000 0.45690  0.53750  0.84520  Biso   1.000  H
  Ga26     1.0000 0.74864  0.97864  0.24950  Biso   1.000  Ga
  Zn101    1.0000 0.82221  0.98958  0.32640  Biso   1.000  Zn
  Zn102    1.0000 0.85891  0.01280  0.17090  Biso   1.000  Zn
  Zn103    1.0000 0.92937  0.01177  0.16320  Biso   1.000  Zn
  Zn104    1.0000 0.96485  0.01170  0.66400  Biso   1.000  Zn
  P151     1.0000 0.78518  0.99078  0.27720  Biso   1.000  P
  P152     1.0000 0.83623  0.02260  0.39800  Biso   1.000  P
  P153     1.0000 0.84566  0.97859  0.10990  Biso   1.000  P
  P154     1.0000 0.89438  0.01963  0.21650  Biso   1.000  P
  P155     1.0000 0.94248  0.02209  0.89320  Biso   1.000  P
  P156     1.0000 0.95163  0.02186  0.39340  Biso   1.000  P
  O476     1.0000 0.80061  0.98439  0.33510  Biso   1.000  O
  O477     1.0000 0.77195  0.97816  0.29360  Biso   1.000  O
  O478     1.0000 0.78744  0.99576  0.13320  Biso   1.000  O
  O479     1.0000 0.82401  0.01305  0.32920  Biso   1.000  O
  O480     1.0000 0.83640  0.02025  0.54440  Biso   1.000  O
  O481     1.0000 0.85269  0.01994  0.35110  Biso   1.000  O
  O482     1.0000 0.85846  0.98960  0.16500  Biso   1.000  O
  O483     1.0000 0.84583  0.97738  0.95780  Biso   1.000  O
  O484     1.0000 0.82886  0.98220  0.15360  Biso   1.000  O
  O485     1.0000 0.89383  0.00570  0.30610  Biso   1.000  O
  O486     1.0000 0.90840  0.01830  0.12260  Biso   1.000  O
  O487     1.0000 0.87986  0.01970  0.13330  Biso   1.000  O
  O488     1.0000 0.94340  0.02210  0.03900  Biso   1.000  O
  O489     1.0000 0.95910  0.01870  0.84340  Biso   1.000  O
  O490     1.0000 0.92960  0.01110  0.84200  Biso   1.000  O
  O491     1.0000 0.95060  0.02260  0.54500  Biso   1.000  O
  O492     1.0000 0.96480  0.01110  0.33700  Biso   1.000  O
  O493     1.0000 0.93470  0.01930  0.34400  Biso   1.000  O
  O494     1.0000 0.98530  0.01890  0.62440  Biso   1.000  O
  H151     1.0000 0.89480  0.03320  0.30130  Biso   1.000  H
  H152     1.0000 0.84770  0.96320  0.17850  Biso   1.000  H
  H153     1.0000 0.93800  0.03480  0.82350  Biso   1.000  H
  H154     1.0000 0.78080  0.00620  0.36550  Biso   1.000  H
  H155     1.0000 0.83220  0.04190  0.37200  Biso   1.000  H
  H156     1.0000 0.95690  0.03750  0.34520  Biso   1.000  H
  Ga27     1.0000 0.25136  0.52136  0.24950  Biso   1.000  Ga
  Zn105    1.0000 0.17779  0.51042  0.32640  Biso   1.000  Zn
  Zn106    1.0000 0.14109  0.48720  0.17090  Biso   1.000  Zn
  Zn107    1.0000 0.07063  0.48823  0.16320  Biso   1.000  Zn
  Zn108    1.0000 0.03515  0.48830  0.66400  Biso   1.000  Zn
  P157     1.0000 0.21482  0.50922  0.27720  Biso   1.000  P
  P158     1.0000 0.16377  0.47740  0.39800  Biso   1.000  P
  P159     1.0000 0.15434  0.52141  0.10990  Biso   1.000  P
  P160     1.0000 0.10562  0.48037  0.21650  Biso   1.000  P
  P161     1.0000 0.05752  0.47791  0.89320  Biso   1.000  P
  P162     1.0000 0.04837  0.47814  0.39340  Biso   1.000  P
  O495     1.0000 0.19939  0.51561  0.33510  Biso   1.000  O
  O496     1.0000 0.22805  0.52184  0.29360  Biso   1.000  O
  O497     1.0000 0.21256  0.50424  0.13320  Biso   1.000  O
  O498     1.0000 0.17599  0.48695  0.32920  Biso   1.000  O
  O499     1.0000 0.16360  0.47975  0.54440  Biso   1.000  O
  O500     1.0000 0.14731  0.48006  0.35110  Biso   1.000  O
  O501     1.0000 0.14154  0.51040  0.16500  Biso   1.000  O
  O502     1.0000 0.15417  0.52262  0.95780  Biso   1.000  O
  O503     1.0000 0.17114  0.51780  0.15360  Biso   1.000  O
  O504     1.0000 0.10617  0.49430  0.30610  Biso   1.000  O
  O505     1.0000 0.09160  0.48170  0.12260  Biso   1.000  O
  O506     1.0000 0.12014  0.48030  0.13330  Biso   1.000  O
  O507     1.0000 0.05660  0.47790  0.03900  Biso   1.000  O
  O508     1.0000 0.04090  0.48130  0.84340  Biso   1.000  O
  O509     1.0000 0.07040  0.48890  0.84200  Biso   1.000  O
  O510     1.0000 0.04940  0.47740  0.54500  Biso   1.000  O
  O511     1.0000 0.03520  0.48890  0.33700  Biso   1.000  O
  O512     1.0000 0.06530  0.48070  0.34400  Biso   1.000  O
  O513     1.0000 0.01470  0.48110  0.62440  Biso   1.000  O
  H157     1.0000 0.10520  0.46680  0.30130  Biso   1.000  H
  H158     1.0000 0.15230  0.53680  0.17850  Biso   1.000  H
  H159     1.0000 0.06200  0.46520  0.82350  Biso   1.000  H
  H160     1.0000 0.21920  0.49380  0.36550  Biso   1.000  H
  H161     1.0000 0.16780  0.45810  0.37200  Biso   1.000  H
  H162     1.0000 0.04310  0.46250  0.34520  Biso   1.000  H
  Ga28     1.0000 0.75136  0.02136  0.74950  Biso   1.000  Ga
  Zn109    1.0000 0.67779  0.01042  0.82640  Biso   1.000  Zn
  Zn110    1.0000 0.64109  0.98720  0.67090  Biso   1.000  Zn
  Zn111    1.0000 0.57063  0.98823  0.66320  Biso   1.000  Zn
  Zn112    1.0000 0.53515  0.98830  0.16400  Biso   1.000  Zn
  P163     1.0000 0.71482  0.00922  0.77720  Biso   1.000  P
  P164     1.0000 0.66377  0.97740  0.89800  Biso   1.000  P
  P165     1.0000 0.65434  0.02141  0.60990  Biso   1.000  P
  P166     1.0000 0.60562  0.98037  0.71650  Biso   1.000  P
  P167     1.0000 0.55752  0.97791  0.39320  Biso   1.000  P
  P168     1.0000 0.54837  0.97814  0.89340  Biso   1.000  P
  O514     1.0000 0.69939  0.01561  0.83510  Biso   1.000  O
  O515     1.0000 0.72805  0.02184  0.79360  Biso   1.000  O
  O516     1.0000 0.71256  0.00424  0.63320  Biso   1.000  O
  O517     1.0000 0.67599  0.98695  0.82920  Biso   1.000  O
  O518     1.0000 0.66360  0.97975  0.04440  Biso   1.000  O
  O519     1.0000 0.64731  0.98006  0.85110  Biso   1.000  O
  O520     1.0000 0.64154  0.01040  0.66500  Biso   1.000  O
  O521     1.0000 0.65417  0.02262  0.45780  Biso   1.000  O
  O522     1.0000 0.67114  0.01780  0.65360  Biso   1.000  O
  O523     1.0000 0.60617  0.99430  0.80610  Biso   1.000  O
  O524     1.0000 0.59160  0.98170  0.62260  Biso   1.000  O
  O525     1.0000 0.62014  0.98030  0.63330  Biso   1.000  O
  O526     1.0000 0.55660  0.97790  0.53900  Biso   1.000  O
  O527     1.0000 0.54090  0.98130  0.34340  Biso   1.000  O
  O528     1.0000 0.57040  0.98890  0.34200  Biso   1.000  O
  O529     1.0000 0.54940  0.97740  0.04500  Biso   1.000  O
  O530     1.0000 0.53520  0.98890  0.83700  Biso   1.000  O
  O531     1.0000 0.56530  0.98070  0.84400  Biso   1.000  O
  O532     1.0000 0.51470  0.98110  0.12440  Biso   1.000  O
  H163     1.0000 0.60520  0.96680  0.80130  Biso   1.000  H
  H164     1.0000 0.65230  0.03680  0.67850  Biso   1.000  H
  H165     1.0000 0.56200  0.96520  0.32350  Biso   1.000  H
  H166     1.0000 0.71920  0.99380  0.86550  Biso   1.000  H
  H167     1.0000 0.66780  0.95810  0.87200  Biso   1.000  H
  H168     1.0000 0.54310  0.96250  0.84520  Biso   1.000  H
  Ga29     1.0000 0.22864  0.50136  0.99950  Biso   1.000  Ga
  Zn113    1.0000 0.23958  0.42779  0.07640  Biso   1.000  Zn
  Zn114    1.0000 0.26280  0.39109  0.92090  Biso   1.000  Zn
  Zn115    1.0000 0.26177  0.32063  0.91320  Biso   1.000  Zn
  Zn116    1.0000 0.26170  0.28515  0.41400  Biso   1.000  Zn
  P169     1.0000 0.24078  0.46482  0.02720  Biso   1.000  P
  P170     1.0000 0.27260  0.41377  0.14800  Biso   1.000  P
  P171     1.0000 0.22859  0.40434  0.85990  Biso   1.000  P
  P172     1.0000 0.26963  0.35562  0.96650  Biso   1.000  P
  P173     1.0000 0.27209  0.30752  0.64320  Biso   1.000  P
  P174     1.0000 0.27186  0.29837  0.14340  Biso   1.000  P
  O533     1.0000 0.23439  0.44939  0.08510  Biso   1.000  O
  O534     1.0000 0.22816  0.47805  0.04360  Biso   1.000  O
  O535     1.0000 0.24576  0.46256  0.88320  Biso   1.000  O
  O536     1.0000 0.26305  0.42599  0.07920  Biso   1.000  O
  O537     1.0000 0.27025  0.41360  0.29440  Biso   1.000  O
  O538     1.0000 0.26994  0.39731  0.10110  Biso   1.000  O
  O539     1.0000 0.23960  0.39154  0.91500  Biso   1.000  O
  O540     1.0000 0.22738  0.40417  0.70780  Biso   1.000  O
  O541     1.0000 0.23220  0.42114  0.90360  Biso   1.000  O
  O542     1.0000 0.25570  0.35617  0.05610  Biso   1.000  O
  O543     1.0000 0.26830  0.34160  0.87260  Biso   1.000  O
  O544     1.0000 0.26970  0.37014  0.88330  Biso   1.000  O
  O545     1.0000 0.27210  0.30660  0.78900  Biso   1.000  O
  O546     1.0000 0.26870  0.29090  0.59340  Biso   1.000  O
  O547     1.0000 0.26110  0.32040  0.59200  Biso   1.000  O
  O548     1.0000 0.27260  0.29940  0.29500  Biso   1.000  O
  O549     1.0000 0.26110  0.28520  0.08700  Biso   1.000  O
  O550     1.0000 0.26930  0.31530  0.09400  Biso   1.000  O
  O551     1.0000 0.26890  0.26470  0.37440  Biso   1.000  O
  H169     1.0000 0.28320  0.35520  0.05130  Biso   1.000  H
  H170     1.0000 0.21320  0.40230  0.92850  Biso   1.000  H
  H171     1.0000 0.28480  0.31200  0.57350  Biso   1.000  H
  H172     1.0000 0.25620  0.46920  0.11550  Biso   1.000  H
  H173     1.0000 0.29190  0.41780  0.12200  Biso   1.000  H
  H174     1.0000 0.28750  0.29310  0.09520  Biso   1.000  H
  Ga30     1.0000 0.72864  0.00136  0.49950  Biso   1.000  Ga
  Zn117    1.0000 0.73958  0.92779  0.57640  Biso   1.000  Zn
  Zn118    1.0000 0.76280  0.89109  0.42090  Biso   1.000  Zn
  Zn119    1.0000 0.76177  0.82063  0.41320  Biso   1.000  Zn
  Zn120    1.0000 0.76170  0.78515  0.91400  Biso   1.000  Zn
  P175     1.0000 0.74078  0.96482  0.52720  Biso   1.000  P
  P176     1.0000 0.77260  0.91377  0.64800  Biso   1.000  P
  P177     1.0000 0.72859  0.90434  0.35990  Biso   1.000  P
  P178     1.0000 0.76963  0.85562  0.46650  Biso   1.000  P
  P179     1.0000 0.77209  0.80752  0.14320  Biso   1.000  P
  P180     1.0000 0.77186  0.79837  0.64340  Biso   1.000  P
  O552     1.0000 0.73439  0.94939  0.58510  Biso   1.000  O
  O553     1.0000 0.72816  0.97805  0.54360  Biso   1.000  O
  O554     1.0000 0.74576  0.96256  0.38320  Biso   1.000  O
  O555     1.0000 0.76305  0.92599  0.57920  Biso   1.000  O
  O556     1.0000 0.77025  0.91360  0.79440  Biso   1.000  O
  O557     1.0000 0.76994  0.89731  0.60110  Biso   1.000  O
  O558     1.0000 0.73960  0.89154  0.41500  Biso   1.000  O
  O559     1.0000 0.72738  0.90417  0.20780  Biso   1.000  O
  O560     1.0000 0.73220  0.92114  0.40360  Biso   1.000  O
  O561     1.0000 0.75570  0.85617  0.55610  Biso   1.000  O
  O562     1.0000 0.76830  0.84160  0.37260  Biso   1.000  O
  O563     1.0000 0.76970  0.87014  0.38330  Biso   1.000  O
  O564     1.0000 0.77210  0.80660  0.28900  Biso   1.000  O
  O565     1.0000 0.76870  0.79090  0.09340  Biso   1.000  O
  O566     1.0000 0.76110  0.82040  0.09200  Biso   1.000  O
  O567     1.0000 0.77260  0.79940  0.79500  Biso   1.000  O
  O568     1.0000 0.76110  0.78520  0.58700  Biso   1.000  O
  O569     1.0000 0.76930  0.81530  0.59400  Biso   1.000  O
  O570     1.0000 0.76890  0.76470  0.87440  Biso   1.000  O
  H175     1.0000 0.78320  0.85520  0.55130  Biso   1.000  H
  H176     1.0000 0.71320  0.90230  0.42850  Biso   1.000  H
  H177     1.0000 0.78480  0.81200  0.07350  Biso   1.000  H
  H178     1.0000 0.75620  0.96920  0.61550  Biso   1.000  H
  H179     1.0000 0.79190  0.91780  0.62200  Biso   1.000  H
  H180     1.0000 0.78750  0.79310  0.59520  Biso   1.000  H
  Ga31     1.0000 0.27136  0.49864  0.49950  Biso   1.000  Ga
  Zn121    1.0000 0.26042  0.57221  0.57640  Biso   1.000  Zn
  Zn122    1.0000 0.23720  0.60891  0.42090  Biso   1.000  Zn
  Zn123    1.0000 0.23823  0.67937  0.41320  Biso   1.000  Zn
  Zn124    1.0000 0.23830  0.71485  0.91400  Biso   1.000  Zn
  P181     1.0000 0.25922  0.53518  0.52720  Biso   1.000  P
  P182     1.0000 0.22740  0.58623  0.64800  Biso   1.000  P
  P183     1.0000 0.27141  0.59566  0.35990  Biso   1.000  P
  P184     1.0000 0.23037  0.64438  0.46650  Biso   1.000  P
  P185     1.0000 0.22791  0.69248  0.14320  Biso   1.000  P
  P186     1.0000 0.22814  0.70163  0.64340  Biso   1.000  P
  O571     1.0000 0.26561  0.55061  0.58510  Biso   1.000  O
  O572     1.0000 0.27184  0.52195  0.54360  Biso   1.000  O
  O573     1.0000 0.25424  0.53744  0.38320  Biso   1.000  O
  O574     1.0000 0.23695  0.57401  0.57920  Biso   1.000  O
  O575     1.0000 0.22975  0.58640  0.79440  Biso   1.000  O
  O576     1.0000 0.23006  0.60269  0.60110  Biso   1.000  O
  O577     1.0000 0.26040  0.60846  0.41500  Biso   1.000  O
  O578     1.0000 0.27262  0.59583  0.20780  Biso   1.000  O
  O579     1.0000 0.26780  0.57886  0.40360  Biso   1.000  O
  O580     1.0000 0.24430  0.64383  0.55610  Biso   1.000  O
  O581     1.0000 0.23170  0.65840  0.37260  Biso   1.000  O
  O582     1.0000 0.23030  0.62986  0.38330  Biso   1.000  O
  O583     1.0000 0.22790  0.69340  0.28900  Biso   1.000  O
  O584     1.0000 0.23130  0.70910  0.09340  Biso   1.000  O
  O585     1.0000 0.23890  0.67960  0.09200  Biso   1.000  O
  O586     1.0000 0.22740  0.70060  0.79500  Biso   1.000  O
  O587     1.0000 0.23890  0.71480  0.58700  Biso   1.000  O
  O588     1.0000 0.23070  0.68470  0.59400  Biso   1.000  O
  O589     1.0000 0.23110  0.73530  0.87440  Biso   1.000  O
  H181     1.0000 0.21680  0.64480  0.55130  Biso   1.000  H
  H182     1.0000 0.28680  0.59770  0.42850  Biso   1.000  H
  H183     1.0000 0.21520  0.68800  0.07350  Biso   1.000  H
  H184     1.0000 0.24380  0.53080  0.61550  Biso   1.000  H
  H185     1.0000 0.20810  0.58220  0.62200  Biso   1.000  H
  H186     1.0000 0.21250  0.70690  0.59520  Biso   1.000  H
  Ga32     1.0000 0.77136  0.99864  0.99950  Biso   1.000  Ga
  Zn125    1.0000 0.76042  0.07221  0.07640  Biso   1.000  Zn
  Zn126    1.0000 0.73720  0.10891  0.92090  Biso   1.000  Zn
  Zn127    1.0000 0.73823  0.17937  0.91320  Biso   1.000  Zn
  Zn128    1.0000 0.73830  0.21485  0.41400  Biso   1.000  Zn
  P187     1.0000 0.75922  0.03518  0.02720  Biso   1.000  P
  P188     1.0000 0.72740  0.08623  0.14800  Biso   1.000  P
  P189     1.0000 0.77141  0.09566  0.85990  Biso   1.000  P
  P190     1.0000 0.73037  0.14438  0.96650  Biso   1.000  P
  P191     1.0000 0.72791  0.19248  0.64320  Biso   1.000  P
  P192     1.0000 0.72814  0.20163  0.14340  Biso   1.000  P
  O590     1.0000 0.76561  0.05061  0.08510  Biso   1.000  O
  O591     1.0000 0.77184  0.02195  0.04360  Biso   1.000  O
  O592     1.0000 0.75424  0.03744  0.88320  Biso   1.000  O
  O593     1.0000 0.73695  0.07401  0.07920  Biso   1.000  O
  O594     1.0000 0.72975  0.08640  0.29440  Biso   1.000  O
  O595     1.0000 0.73006  0.10269  0.10110  Biso   1.000  O
  O596     1.0000 0.76040  0.10846  0.91500  Biso   1.000  O
  O597     1.0000 0.77262  0.09583  0.70780  Biso   1.000  O
  O598     1.0000 0.76780  0.07886  0.90360  Biso   1.000  O
  O599     1.0000 0.74430  0.14383  0.05610  Biso   1.000  O
  O600     1.0000 0.73170  0.15840  0.87260  Biso   1.000  O
  O601     1.0000 0.73030  0.12986  0.88330  Biso   1.000  O
  O602     1.0000 0.72790  0.19340  0.78900  Biso   1.000  O
  O603     1.0000 0.73130  0.20910  0.59340  Biso   1.000  O
  O604     1.0000 0.73890  0.17960  0.59200  Biso   1.000  O
  O605     1.0000 0.72740  0.20060  0.29500  Biso   1.000  O
  O606     1.0000 0.73890  0.21480  0.08700  Biso   1.000  O
  O607     1.0000 0.73070  0.18470  0.09400  Biso   1.000  O
  O608     1.0000 0.73110  0.23530  0.37440  Biso   1.000  O
  H187     1.0000 0.71680  0.14480  0.05130  Biso   1.000  H
  H188     1.0000 0.78680  0.09770  0.92850  Biso   1.000  H
  H189     1.0000 0.71520  0.18800  0.57350  Biso   1.000  H
  H190     1.0000 0.74380  0.03080  0.11550  Biso   1.000  H
  H191     1.0000 0.70810  0.08220  0.12200  Biso   1.000  H
  H192     1.0000 0.71250  0.20690  0.09520  Biso   1.000  H
  Zn129    1.0000 0.89403  0.50000  0.50000  Biso   1.000  Zn
  Zn130    1.0000 0.39403  0.00000  0.00000  Biso   1.000  Zn
  Zn131    1.0000 0.60597  0.50000  0.00000  Biso   1.000  Zn
  Zn132    1.0000 0.10597  0.00000  0.50000  Biso   1.000  Zn
  Zn133    1.0000 0.75000  0.64403  0.75000  Biso   1.000  Zn
  Zn134    1.0000 0.25000  0.14403  0.25000  Biso   1.000  Zn
  Zn135    1.0000 0.75000  0.35597  0.25000  Biso   1.000  Zn
  Zn136    1.0000 0.25000  0.85597  0.75000  Biso   1.000  Zn
  Zn137    1.0000 0.10597  0.50000  0.50000  Biso   1.000  Zn
  Zn138    1.0000 0.60597  0.00000  0.00000  Biso   1.000  Zn
  Zn139    1.0000 0.39403  0.50000  0.00000  Biso   1.000  Zn
  Zn140    1.0000 0.89403  0.00000  0.50000  Biso   1.000  Zn
  Zn141    1.0000 0.25000  0.35597  0.25000  Biso   1.000  Zn
  Zn142    1.0000 0.75000  0.85597  0.75000  Biso   1.000  Zn
  Zn143    1.0000 0.25000  0.64403  0.75000  Biso   1.000  Zn
  Zn144    1.0000 0.75000  0.14403  0.25000  Biso   1.000  Zn
  Zn145    1.0000 0.00000  0.50000  0.00000  Biso   1.000  Zn
  Zn146    1.0000 0.50000  0.00000  0.50000  Biso   1.000  Zn
  Zn147    1.0000 0.50000  0.50000  0.50000  Biso   1.000  Zn
  Zn148    1.0000 0.00000  0.00000  0.00000  Biso   1.000  Zn
  Zn149    1.0000 0.75000  0.75000  0.25000  Biso   1.000  Zn
  Zn150    1.0000 0.75000  0.25000  0.75000  Biso   1.000  Zn
  Zn151    1.0000 0.25000  0.25000  0.75000  Biso   1.000  Zn
  Zn152    1.0000 0.25000  0.75000  0.25000  Biso   1.000  Zn
  P193     1.0000 0.00000  0.48030  0.71680  Biso   1.000  P
  O609     1.0000 0.00000  0.49440  0.80500  Biso   1.000  O
  P194     1.0000 0.50000  0.98030  0.21680  Biso   1.000  P
  O610     1.0000 0.50000  0.99440  0.30500  Biso   1.000  O
  P195     1.0000 0.50000  0.51970  0.21680  Biso   1.000  P
  O611     1.0000 0.50000  0.50560  0.30500  Biso   1.000  O
  P196     1.0000 0.00000  0.01970  0.71680  Biso   1.000  P
  O612     1.0000 0.00000  0.00560  0.80500  Biso   1.000  O
  P197     1.0000 0.76970  0.75000  0.96680  Biso   1.000  P
  O613     1.0000 0.75560  0.75000  0.05500  Biso   1.000  O
  P198     1.0000 0.73030  0.25000  0.46680  Biso   1.000  P
  O614     1.0000 0.74440  0.25000  0.55500  Biso   1.000  O
  P199     1.0000 0.50000  0.48030  0.78320  Biso   1.000  P
  O615     1.0000 0.50000  0.49440  0.69500  Biso   1.000  O
  P200     1.0000 0.00000  0.98030  0.28320  Biso   1.000  P
  O616     1.0000 0.00000  0.99440  0.19500  Biso   1.000  O
  P201     1.0000 0.00000  0.51970  0.28320  Biso   1.000  P
  O617     1.0000 0.00000  0.50560  0.19500  Biso   1.000  O
  P202     1.0000 0.50000  0.01970  0.78320  Biso   1.000  P
  O618     1.0000 0.50000  0.00560  0.69500  Biso   1.000  O
  P203     1.0000 0.73030  0.75000  0.53320  Biso   1.000  P
  O619     1.0000 0.74440  0.75000  0.44500  Biso   1.000  O
  P204     1.0000 0.76970  0.25000  0.03320  Biso   1.000  P
  O620     1.0000 0.75560  0.25000  0.94500  Biso   1.000  O
  P205     1.0000 0.23030  0.25000  0.03320  Biso   1.000  P
  O621     1.0000 0.24440  0.25000  0.94500  Biso   1.000  O
  P206     1.0000 0.26970  0.75000  0.53320  Biso   1.000  P
  O622     1.0000 0.25560  0.75000  0.44500  Biso   1.000  O
  P207     1.0000 0.26970  0.25000  0.46680  Biso   1.000  P
  O623     1.0000 0.25560  0.25000  0.55500  Biso   1.000  O
  P208     1.0000 0.23030  0.75000  0.96680  Biso   1.000  P
  O624     1.0000 0.24440  0.75000  0.05500  Biso   1.000  O
  F1       1.0000 0.75434  0.50434  0.12500  Biso   1.000  F
  F2       1.0000 0.25434  0.00434  0.62500  Biso   1.000  F
  F3       1.0000 0.74566  0.49566  0.62500  Biso   1.000  F
  F4       1.0000 0.24566  0.99566  0.12500  Biso   1.000  F
  F5       1.0000 0.74566  0.50434  0.37500  Biso   1.000  F
  F6       1.0000 0.24566  0.00434  0.87500  Biso   1.000  F
  F7       1.0000 0.75434  0.49566  0.87500  Biso   1.000  F
  F8       1.0000 0.25434  0.99566  0.37500  Biso   1.000  F
  F9       1.0000 0.24566  0.49566  0.87500  Biso   1.000  F
  F10      1.0000 0.74566  0.99566  0.37500  Biso   1.000  F
  F11      1.0000 0.25434  0.50434  0.37500  Biso   1.000  F
  F12      1.0000 0.75434  0.00434  0.87500  Biso   1.000  F
  F13      1.0000 0.25434  0.49566  0.62500  Biso   1.000  F
  F14      1.0000 0.75434  0.99566  0.12500  Biso   1.000  F
  F15      1.0000 0.24566  0.50434  0.12500  Biso   1.000  F
  F16      1.0000 0.74566  0.00434  0.62500  Biso   1.000  F
