data_image0
_cell_length_a       31.8565
_cell_length_b       31.8565
_cell_length_c       12.6269
_cell_angle_alpha    90
_cell_angle_beta     90
_cell_angle_gamma    120

_symmetry_space_group_name_H-M    "P 1"
_symmetry_int_tables_number       1

loop_
  _symmetry_equiv_pos_as_xyz
  'x, y, z'

loop_
  _atom_site_label
  _atom_site_occupancy
  _atom_site_fract_x
  _atom_site_fract_y
  _atom_site_fract_z
  _atom_site_thermal_displace_type
  _atom_site_B_iso_or_equiv
  _atom_site_type_symbol
  Zn1      1.0000 0.70923  0.01641  0.68810  Biso   1.000  Zn
  O1       1.0000 0.69989  0.00249  0.53430  Biso   1.000  O
  O2       1.0000 0.70834  0.00848  0.36140  Biso   1.000  O
  C1       1.0000 0.77704  0.05720  0.46570  Biso   1.000  C
  H1       1.0000 0.78830  0.07030  0.53420  Biso   1.000  H
  C2       1.0000 0.72580  0.02110  0.45290  Biso   1.000  C
  C3       1.0000 0.69800  0.94180  0.84370  Biso   1.000  C
  H2       1.0000 0.71040  0.96850  0.89100  Biso   1.000  H
  C4       1.0000 0.68940  0.89780  0.88120  Biso   1.000  C
  H3       1.0000 0.69610  0.89480  0.95320  Biso   1.000  H
  C5       1.0000 0.67100  0.85710  0.81460  Biso   1.000  C
  C6       1.0000 0.66250  0.86530  0.71130  Biso   1.000  C
  H4       1.0000 0.64970  0.83920  0.66220  Biso   1.000  H
  C7       1.0000 0.67220  0.91000  0.67830  Biso   1.000  C
  H5       1.0000 0.66630  0.91410  0.60630  Biso   1.000  H
  C8       1.0000 0.88460  0.12870  0.47850  Biso   1.000  C
  H6       1.0000 0.86630  0.12410  0.54110  Biso   1.000  H
  C9       1.0000 0.93390  0.16230  0.47730  Biso   1.000  C
  C10      1.0000 0.96080  0.16900  0.38570  Biso   1.000  C
  H7       1.0000 0.99450  0.19190  0.38480  Biso   1.000  H
  C11      1.0000 0.93830  0.14220  0.29530  Biso   1.000  C
  H8       1.0000 0.95670  0.14680  0.23270  Biso   1.000  H
  C12      1.0000 0.88900  0.10870  0.29660  Biso   1.000  C
  H9       1.0000 0.87360  0.09030  0.23480  Biso   1.000  H
  C13      1.0000 0.86210  0.10190  0.38820  Biso   1.000  C
  O3       1.0000 0.95620  0.18820  0.56270  Biso   1.000  O
  H10      1.0000 0.93570  0.18880  0.60360  Biso   1.000  H
  C14      1.0000 0.80910  0.07270  0.38510  Biso   1.000  C
  H11      1.0000 0.79540  0.06340  0.31640  Biso   1.000  H
  C15      1.0000 0.94390  0.20050  0.83040  Biso   1.000  C
  H12      1.0000 0.92960  0.21380  0.78590  Biso   1.000  H
  C16      1.0000 0.99050  0.22990  0.86970  Biso   1.000  C
  H13      1.0000 0.00790  0.26330  0.85200  Biso   1.000  H
  C17      1.0000 0.01150  0.21030  0.93490  Biso   1.000  C
  H14      1.0000 0.04330  0.23040  0.96170  Biso   1.000  H
  C18      1.0000 0.98600  0.16140  0.96070  Biso   1.000  C
  C19      1.0000 0.93950  0.13200  0.92140  Biso   1.000  C
  H15      1.0000 0.92210  0.09850  0.93910  Biso   1.000  H
  C20      1.0000 0.91850  0.15150  0.85630  Biso   1.000  C
  O4       1.0000 0.00710  0.14270  0.02150  Biso   1.000  O
  H16      1.0000 0.01590  0.12690  0.98360  Biso   1.000  H
  C21      1.0000 0.86728  0.11740  0.81620  Biso   1.000  C
  H17      1.0000 0.85400  0.08360  0.82720  Biso   1.000  H
  C22      1.0000 0.84000  0.13230  0.76650  Biso   1.000  C
  H18      1.0000 0.85230  0.16580  0.75330  Biso   1.000  H
  C23      1.0000 0.79130  0.09690  0.73300  Biso   1.000  C
  O5       1.0000 0.77300  0.05270  0.75190  Biso   1.000  O
  O6       1.0000 0.76790  0.11320  0.68690  Biso   1.000  O
  C24      1.0000 0.89120  0.10740  0.30890  Biso   1.000  C
  H19      1.0000 0.87750  0.08820  0.24720  Biso   1.000  H
  C25      1.0000 0.94070  0.13990  0.31390  Biso   1.000  C
  C26      1.0000 0.96060  0.16800  0.40410  Biso   1.000  C
  H20      1.0000 0.99450  0.19020  0.40760  Biso   1.000  H
  C27      1.0000 0.93100  0.16350  0.48930  Biso   1.000  C
  H21      1.0000 0.94460  0.18270  0.55100  Biso   1.000  H
  C28      1.0000 0.88150  0.13100  0.48430  Biso   1.000  C
  H22      1.0000 0.86130  0.12790  0.54250  Biso   1.000  H
  C29      1.0000 0.86160  0.10290  0.39410  Biso   1.000  C
  O7       1.0000 0.96760  0.15280  0.22600  Biso   1.000  O
  H23      1.0000 0.95000  0.14900  0.17330  Biso   1.000  H
  C30      1.0000 0.81080  0.06400  0.39310  Biso   1.000  C
  H24      1.0000 0.80090  0.04150  0.33620  Biso   1.000  H
  C31      1.0000 0.94930  0.19348  0.84630  Biso   1.000  C
  H25      1.0000 0.93520  0.20280  0.79140  Biso   1.000  H
  C32      1.0000 0.99431  0.22690  0.88730  Biso   1.000  C
  H26      1.0000 0.01100  0.25910  0.86040  Biso   1.000  H
  C33      1.0000 0.01490  0.21330  0.96770  Biso   1.000  C
  H27      1.0000 0.04570  0.23620  0.99580  Biso   1.000  H
  C34      1.0000 0.99047  0.16630  0.00710  Biso   1.000  C
  C35      1.0000 0.94546  0.13280  0.96610  Biso   1.000  C
  H28      1.0000 0.92880  0.10070  0.99300  Biso   1.000  H
  C36      1.0000 0.92487  0.14640  0.88570  Biso   1.000  C
  O8       1.0000 0.01263  0.15260  0.07730  Biso   1.000  O
  H29      1.0000 0.99280  0.12500  0.10090  Biso   1.000  H
  C37      1.0000 0.87540  0.10796  0.84470  Biso   1.000  C
  H30      1.0000 0.86460  0.07520  0.86290  Biso   1.000  H
  C38      1.0000 0.84595  0.11675  0.78500  Biso   1.000  C
  H31      1.0000 0.85570  0.14870  0.76180  Biso   1.000  H
  C39      1.0000 0.79875  0.07638  0.75660  Biso   1.000  C
  O9       1.0000 0.78765  0.03346  0.77490  Biso   1.000  O
  O10      1.0000 0.77057  0.08635  0.70970  Biso   1.000  O
  N1       1.0000 0.68952  0.94843  0.74280  Biso   1.000  N
  Zn2      1.0000 0.37590  0.34974  0.02143  Biso   1.000  Zn
  O11      1.0000 0.36656  0.33582  0.86763  Biso   1.000  O
  O12      1.0000 0.37501  0.34181  0.69473  Biso   1.000  O
  C40      1.0000 0.44371  0.39053  0.79903  Biso   1.000  C
  H32      1.0000 0.45497  0.40363  0.86753  Biso   1.000  H
  C41      1.0000 0.39247  0.35443  0.78623  Biso   1.000  C
  C42      1.0000 0.36467  0.27513  0.17703  Biso   1.000  C
  H33      1.0000 0.37707  0.30183  0.22433  Biso   1.000  H
  C43      1.0000 0.35607  0.23113  0.21453  Biso   1.000  C
  H34      1.0000 0.36277  0.22813  0.28653  Biso   1.000  H
  C44      1.0000 0.33767  0.19043  0.14793  Biso   1.000  C
  C45      1.0000 0.32917  0.19863  0.04463  Biso   1.000  C
  H35      1.0000 0.31637  0.17253  0.99553  Biso   1.000  H
  C46      1.0000 0.33887  0.24333  0.01163  Biso   1.000  C
  H36      1.0000 0.33297  0.24743  0.93963  Biso   1.000  H
  C47      1.0000 0.55127  0.46203  0.81183  Biso   1.000  C
  H37      1.0000 0.53297  0.45743  0.87443  Biso   1.000  H
  C48      1.0000 0.60057  0.49563  0.81063  Biso   1.000  C
  C49      1.0000 0.62747  0.50233  0.71903  Biso   1.000  C
  H38      1.0000 0.66117  0.52523  0.71813  Biso   1.000  H
  C50      1.0000 0.60497  0.47553  0.62863  Biso   1.000  C
  H39      1.0000 0.62337  0.48013  0.56603  Biso   1.000  H
  C51      1.0000 0.55567  0.44203  0.62993  Biso   1.000  C
  H40      1.0000 0.54027  0.42363  0.56813  Biso   1.000  H
  C52      1.0000 0.52877  0.43523  0.72153  Biso   1.000  C
  O13      1.0000 0.62287  0.52153  0.89603  Biso   1.000  O
  H41      1.0000 0.60237  0.52213  0.93693  Biso   1.000  H
  C53      1.0000 0.47577  0.40603  0.71843  Biso   1.000  C
  H42      1.0000 0.46207  0.39673  0.64973  Biso   1.000  H
  C54      1.0000 0.61057  0.53383  0.16373  Biso   1.000  C
  H43      1.0000 0.59627  0.54713  0.11923  Biso   1.000  H
  C55      1.0000 0.65717  0.56323  0.20303  Biso   1.000  C
  H44      1.0000 0.67457  0.59663  0.18533  Biso   1.000  H
  C56      1.0000 0.67817  0.54363  0.26823  Biso   1.000  C
  H45      1.0000 0.70997  0.56373  0.29503  Biso   1.000  H
  C57      1.0000 0.65267  0.49473  0.29403  Biso   1.000  C
  C58      1.0000 0.60617  0.46533  0.25473  Biso   1.000  C
  H46      1.0000 0.58877  0.43183  0.27243  Biso   1.000  H
  C59      1.0000 0.58517  0.48483  0.18963  Biso   1.000  C
  O14      1.0000 0.67377  0.47603  0.35483  Biso   1.000  O
  H47      1.0000 0.68257  0.46023  0.31693  Biso   1.000  H
  C60      1.0000 0.53395  0.45073  0.14953  Biso   1.000  C
  H48      1.0000 0.52067  0.41693  0.16053  Biso   1.000  H
  C61      1.0000 0.50667  0.46563  0.09983  Biso   1.000  C
  H49      1.0000 0.51897  0.49913  0.08663  Biso   1.000  H
  C62      1.0000 0.45797  0.43023  0.06633  Biso   1.000  C
  O15      1.0000 0.43967  0.38603  0.08523  Biso   1.000  O
  O16      1.0000 0.43457  0.44653  0.02023  Biso   1.000  O
  C63      1.0000 0.55787  0.44073  0.64223  Biso   1.000  C
  H50      1.0000 0.54417  0.42153  0.58053  Biso   1.000  H
  C64      1.0000 0.60737  0.47323  0.64723  Biso   1.000  C
  C65      1.0000 0.62727  0.50133  0.73743  Biso   1.000  C
  H51      1.0000 0.66117  0.52353  0.74093  Biso   1.000  H
  C66      1.0000 0.59767  0.49683  0.82263  Biso   1.000  C
  H52      1.0000 0.61127  0.51603  0.88433  Biso   1.000  H
  C67      1.0000 0.54817  0.46433  0.81763  Biso   1.000  C
  H53      1.0000 0.52797  0.46123  0.87583  Biso   1.000  H
  C68      1.0000 0.52827  0.43623  0.72743  Biso   1.000  C
  O17      1.0000 0.63427  0.48613  0.55933  Biso   1.000  O
  H54      1.0000 0.61667  0.48233  0.50663  Biso   1.000  H
  C69      1.0000 0.47747  0.39733  0.72643  Biso   1.000  C
  H55      1.0000 0.46757  0.37483  0.66953  Biso   1.000  H
  C70      1.0000 0.61597  0.52681  0.17963  Biso   1.000  C
  H56      1.0000 0.60187  0.53613  0.12473  Biso   1.000  H
  C71      1.0000 0.66098  0.56023  0.22063  Biso   1.000  C
  H57      1.0000 0.67767  0.59243  0.19373  Biso   1.000  H
  C72      1.0000 0.68157  0.54663  0.30103  Biso   1.000  C
  H58      1.0000 0.71237  0.56953  0.32913  Biso   1.000  H
  C73      1.0000 0.65714  0.49963  0.34043  Biso   1.000  C
  C74      1.0000 0.61213  0.46613  0.29943  Biso   1.000  C
  H59      1.0000 0.59547  0.43403  0.32633  Biso   1.000  H
  C75      1.0000 0.59154  0.47973  0.21903  Biso   1.000  C
  O18      1.0000 0.67930  0.48593  0.41063  Biso   1.000  O
  H60      1.0000 0.65947  0.45833  0.43423  Biso   1.000  H
  C76      1.0000 0.54207  0.44129  0.17803  Biso   1.000  C
  H61      1.0000 0.53127  0.40853  0.19623  Biso   1.000  H
  C77      1.0000 0.51262  0.45008  0.11833  Biso   1.000  C
  H62      1.0000 0.52237  0.48203  0.09513  Biso   1.000  H
  C78      1.0000 0.46542  0.40971  0.08993  Biso   1.000  C
  O19      1.0000 0.45432  0.36679  0.10823  Biso   1.000  O
  O20      1.0000 0.43724  0.41968  0.04303  Biso   1.000  O
  N2       1.0000 0.35619  0.28176  0.07613  Biso   1.000  N
  Zn3      1.0000 0.04256  0.68308  0.35477  Biso   1.000  Zn
  O21      1.0000 0.03322  0.66916  0.20097  Biso   1.000  O
  O22      1.0000 0.04167  0.67515  0.02807  Biso   1.000  O
  C79      1.0000 0.11037  0.72387  0.13237  Biso   1.000  C
  H63      1.0000 0.12163  0.73697  0.20087  Biso   1.000  H
  C80      1.0000 0.05913  0.68777  0.11957  Biso   1.000  C
  C81      1.0000 0.03133  0.60847  0.51037  Biso   1.000  C
  H64      1.0000 0.04373  0.63517  0.55767  Biso   1.000  H
  C82      1.0000 0.02273  0.56447  0.54787  Biso   1.000  C
  H65      1.0000 0.02943  0.56147  0.61987  Biso   1.000  H
  C83      1.0000 0.00433  0.52377  0.48127  Biso   1.000  C
  C84      1.0000 0.99583  0.53197  0.37797  Biso   1.000  C
  H66      1.0000 0.98303  0.50587  0.32887  Biso   1.000  H
  C85      1.0000 0.00553  0.57667  0.34497  Biso   1.000  C
  H67      1.0000 0.99963  0.58077  0.27297  Biso   1.000  H
  C86      1.0000 0.21793  0.79537  0.14517  Biso   1.000  C
  H68      1.0000 0.19963  0.79077  0.20777  Biso   1.000  H
  C87      1.0000 0.26723  0.82897  0.14397  Biso   1.000  C
  C88      1.0000 0.29413  0.83567  0.05237  Biso   1.000  C
  H69      1.0000 0.32783  0.85857  0.05147  Biso   1.000  H
  C89      1.0000 0.27163  0.80887  0.96197  Biso   1.000  C
  H70      1.0000 0.29003  0.81347  0.89937  Biso   1.000  H
  C90      1.0000 0.22233  0.77537  0.96327  Biso   1.000  C
  H71      1.0000 0.20693  0.75697  0.90147  Biso   1.000  H
  C91      1.0000 0.19543  0.76857  0.05487  Biso   1.000  C
  O23      1.0000 0.28953  0.85487  0.22937  Biso   1.000  O
  H72      1.0000 0.26903  0.85547  0.27027  Biso   1.000  H
  C92      1.0000 0.14243  0.73937  0.05177  Biso   1.000  C
  H73      1.0000 0.12873  0.73007  0.98307  Biso   1.000  H
  C93      1.0000 0.27723  0.86717  0.49707  Biso   1.000  C
  H74      1.0000 0.26293  0.88047  0.45257  Biso   1.000  H
  C94      1.0000 0.32383  0.89657  0.53637  Biso   1.000  C
  H75      1.0000 0.34123  0.92997  0.51867  Biso   1.000  H
  C95      1.0000 0.34483  0.87697  0.60157  Biso   1.000  C
  H76      1.0000 0.37663  0.89707  0.62837  Biso   1.000  H
  C96      1.0000 0.31933  0.82807  0.62737  Biso   1.000  C
  C97      1.0000 0.27283  0.79867  0.58807  Biso   1.000  C
  H77      1.0000 0.25543  0.76517  0.60577  Biso   1.000  H
  C98      1.0000 0.25183  0.81817  0.52297  Biso   1.000  C
  O24      1.0000 0.34043  0.80937  0.68817  Biso   1.000  O
  H78      1.0000 0.34923  0.79357  0.65027  Biso   1.000  H
  C99      1.0000 0.20061  0.78407  0.48287  Biso   1.000  C
  H79      1.0000 0.18733  0.75027  0.49387  Biso   1.000  H
  C100     1.0000 0.17333  0.79897  0.43317  Biso   1.000  C
  H80      1.0000 0.18563  0.83247  0.41997  Biso   1.000  H
  C101     1.0000 0.12463  0.76357  0.39967  Biso   1.000  C
  O25      1.0000 0.10633  0.71937  0.41857  Biso   1.000  O
  O26      1.0000 0.10123  0.77987  0.35357  Biso   1.000  O
  C102     1.0000 0.22453  0.77407  0.97557  Biso   1.000  C
  H81      1.0000 0.21083  0.75487  0.91387  Biso   1.000  H
  C103     1.0000 0.27403  0.80657  0.98057  Biso   1.000  C
  C104     1.0000 0.29393  0.83467  0.07077  Biso   1.000  C
  H82      1.0000 0.32783  0.85687  0.07427  Biso   1.000  H
  C105     1.0000 0.26433  0.83017  0.15597  Biso   1.000  C
  H83      1.0000 0.27793  0.84937  0.21767  Biso   1.000  H
  C106     1.0000 0.21483  0.79767  0.15097  Biso   1.000  C
  H84      1.0000 0.19463  0.79457  0.20917  Biso   1.000  H
  C107     1.0000 0.19493  0.76957  0.06077  Biso   1.000  C
  O27      1.0000 0.30093  0.81947  0.89267  Biso   1.000  O
  H85      1.0000 0.28333  0.81567  0.83997  Biso   1.000  H
  C108     1.0000 0.14413  0.73067  0.05977  Biso   1.000  C
  H86      1.0000 0.13423  0.70817  0.00287  Biso   1.000  H
  C109     1.0000 0.28263  0.86015  0.51297  Biso   1.000  C
  H87      1.0000 0.26853  0.86947  0.45807  Biso   1.000  H
  C110     1.0000 0.32764  0.89357  0.55397  Biso   1.000  C
  H88      1.0000 0.34433  0.92577  0.52707  Biso   1.000  H
  C111     1.0000 0.34823  0.87997  0.63437  Biso   1.000  C
  H89      1.0000 0.37903  0.90287  0.66247  Biso   1.000  H
  C112     1.0000 0.32380  0.83297  0.67377  Biso   1.000  C
  C113     1.0000 0.27879  0.79947  0.63277  Biso   1.000  C
  H90      1.0000 0.26213  0.76737  0.65967  Biso   1.000  H
  C114     1.0000 0.25820  0.81307  0.55237  Biso   1.000  C
  O28      1.0000 0.34596  0.81927  0.74397  Biso   1.000  O
  H91      1.0000 0.32613  0.79167  0.76757  Biso   1.000  H
  C115     1.0000 0.20873  0.77463  0.51137  Biso   1.000  C
  H92      1.0000 0.19793  0.74187  0.52957  Biso   1.000  H
  C116     1.0000 0.17928  0.78342  0.45167  Biso   1.000  C
  H93      1.0000 0.18903  0.81537  0.42847  Biso   1.000  H
  C117     1.0000 0.13208  0.74305  0.42327  Biso   1.000  C
  O29      1.0000 0.12098  0.70013  0.44157  Biso   1.000  O
  O30      1.0000 0.10390  0.75302  0.37637  Biso   1.000  O
  N3       1.0000 0.02285  0.61510  0.40947  Biso   1.000  N
  Zn4      1.0000 0.98359  0.69282  0.68810  Biso   1.000  Zn
  O31      1.0000 0.99751  0.69740  0.53430  Biso   1.000  O
  O32      1.0000 0.99152  0.69986  0.36140  Biso   1.000  O
  C118     1.0000 0.94280  0.71984  0.46570  Biso   1.000  C
  H94      1.0000 0.92970  0.71800  0.53420  Biso   1.000  H
  C119     1.0000 0.97890  0.70470  0.45290  Biso   1.000  C
  C120     1.0000 0.05820  0.75620  0.84370  Biso   1.000  C
  H95      1.0000 0.03150  0.74190  0.89100  Biso   1.000  H
  C121     1.0000 0.10220  0.79160  0.88120  Biso   1.000  C
  H96      1.0000 0.10520  0.80130  0.95320  Biso   1.000  H
  C122     1.0000 0.14290  0.81390  0.81460  Biso   1.000  C
  C123     1.0000 0.13470  0.79720  0.71130  Biso   1.000  C
  H97      1.0000 0.16080  0.81050  0.66220  Biso   1.000  H
  C124     1.0000 0.09000  0.76220  0.67830  Biso   1.000  C
  H98      1.0000 0.08590  0.75220  0.60630  Biso   1.000  H
  C125     1.0000 0.87130  0.75590  0.47850  Biso   1.000  C
  H99      1.0000 0.87590  0.74220  0.54110  Biso   1.000  H
  C126     1.0000 0.83770  0.77160  0.47730  Biso   1.000  C
  C127     1.0000 0.83100  0.79180  0.38570  Biso   1.000  C
  H100     1.0000 0.80810  0.80260  0.38480  Biso   1.000  H
  C128     1.0000 0.85780  0.79610  0.29530  Biso   1.000  C
  H101     1.0000 0.85320  0.80990  0.23270  Biso   1.000  H
  C129     1.0000 0.89130  0.78030  0.29660  Biso   1.000  C
  H102     1.0000 0.90970  0.78330  0.23480  Biso   1.000  H
  C130     1.0000 0.89810  0.76020  0.38820  Biso   1.000  C
  O33      1.0000 0.81180  0.76800  0.56270  Biso   1.000  O
  H103     1.0000 0.81120  0.74690  0.60360  Biso   1.000  H
  C131     1.0000 0.92730  0.73640  0.38510  Biso   1.000  C
  H104     1.0000 0.93660  0.73200  0.31640  Biso   1.000  H
  C132     1.0000 0.79950  0.74340  0.83040  Biso   1.000  C
  H105     1.0000 0.78620  0.71580  0.78590  Biso   1.000  H
  C133     1.0000 0.77010  0.76060  0.86970  Biso   1.000  C
  H106     1.0000 0.73670  0.74460  0.85200  Biso   1.000  H
  C134     1.0000 0.78970  0.80120  0.93490  Biso   1.000  C
  H107     1.0000 0.76960  0.81290  0.96170  Biso   1.000  H
  C135     1.0000 0.83860  0.82460  0.96070  Biso   1.000  C
  C136     1.0000 0.86800  0.80750  0.92140  Biso   1.000  C
  H108     1.0000 0.90150  0.82360  0.93910  Biso   1.000  H
  C137     1.0000 0.84850  0.76700  0.85630  Biso   1.000  C
  O34      1.0000 0.85730  0.86440  0.02150  Biso   1.000  O
  H109     1.0000 0.87310  0.88900  0.98360  Biso   1.000  H
  C138     1.0000 0.88260  0.74988  0.81620  Biso   1.000  C
  H110     1.0000 0.91640  0.77040  0.82720  Biso   1.000  H
  C139     1.0000 0.86770  0.70770  0.76650  Biso   1.000  C
  H111     1.0000 0.83420  0.68650  0.75330  Biso   1.000  H
  C140     1.0000 0.90310  0.69440  0.73300  Biso   1.000  C
  O35      1.0000 0.94730  0.72030  0.75190  Biso   1.000  O
  O36      1.0000 0.88680  0.65470  0.68690  Biso   1.000  O
  C141     1.0000 0.89260  0.78380  0.30890  Biso   1.000  C
  H112     1.0000 0.91180  0.78930  0.24720  Biso   1.000  H
  C142     1.0000 0.86010  0.80080  0.31390  Biso   1.000  C
  C143     1.0000 0.83200  0.79260  0.40410  Biso   1.000  C
  H113     1.0000 0.80980  0.80430  0.40760  Biso   1.000  H
  C144     1.0000 0.83650  0.76750  0.48930  Biso   1.000  C
  H114     1.0000 0.81730  0.76190  0.55100  Biso   1.000  H
  C145     1.0000 0.86900  0.75050  0.48430  Biso   1.000  C
  H115     1.0000 0.87210  0.73340  0.54250  Biso   1.000  H
  C146     1.0000 0.89710  0.75870  0.39410  Biso   1.000  C
  O37      1.0000 0.84720  0.81480  0.22600  Biso   1.000  O
  H116     1.0000 0.85100  0.80100  0.17330  Biso   1.000  H
  C147     1.0000 0.93600  0.74680  0.39310  Biso   1.000  C
  H117     1.0000 0.95850  0.75940  0.33620  Biso   1.000  H
  C148     1.0000 0.80652  0.75582  0.84630  Biso   1.000  C
  H118     1.0000 0.79720  0.73240  0.79140  Biso   1.000  H
  C149     1.0000 0.77310  0.76741  0.88730  Biso   1.000  C
  H119     1.0000 0.74090  0.75190  0.86040  Biso   1.000  H
  C150     1.0000 0.78670  0.80160  0.96770  Biso   1.000  C
  H120     1.0000 0.76380  0.80950  0.99580  Biso   1.000  H
  C151     1.0000 0.83370  0.82417  0.00710  Biso   1.000  C
  C152     1.0000 0.86720  0.81266  0.96610  Biso   1.000  C
  H121     1.0000 0.89930  0.82810  0.99300  Biso   1.000  H
  C153     1.0000 0.85360  0.77847  0.88570  Biso   1.000  C
  O38      1.0000 0.84740  0.86003  0.07730  Biso   1.000  O
  H122     1.0000 0.87500  0.86780  0.10090  Biso   1.000  H
  C154     1.0000 0.89204  0.76744  0.84470  Biso   1.000  C
  H123     1.0000 0.92480  0.78940  0.86290  Biso   1.000  H
  C155     1.0000 0.88325  0.72920  0.78500  Biso   1.000  C
  H124     1.0000 0.85130  0.70700  0.76180  Biso   1.000  H
  C156     1.0000 0.92362  0.72237  0.75660  Biso   1.000  C
  O39      1.0000 0.96654  0.75419  0.77490  Biso   1.000  O
  O40      1.0000 0.91365  0.68422  0.70970  Biso   1.000  O
  N4       1.0000 0.05157  0.74109  0.74280  Biso   1.000  N
  Zn5      1.0000 0.65026  0.02615  0.02143  Biso   1.000  Zn
  O41      1.0000 0.66418  0.03073  0.86763  Biso   1.000  O
  O42      1.0000 0.65819  0.03319  0.69473  Biso   1.000  O
  C157     1.0000 0.60947  0.05317  0.79903  Biso   1.000  C
  H125     1.0000 0.59637  0.05133  0.86753  Biso   1.000  H
  C158     1.0000 0.64557  0.03803  0.78623  Biso   1.000  C
  C159     1.0000 0.72487  0.08953  0.17703  Biso   1.000  C
  H126     1.0000 0.69817  0.07523  0.22433  Biso   1.000  H
  C160     1.0000 0.76887  0.12493  0.21453  Biso   1.000  C
  H127     1.0000 0.77187  0.13463  0.28653  Biso   1.000  H
  C161     1.0000 0.80957  0.14723  0.14793  Biso   1.000  C
  C162     1.0000 0.80137  0.13053  0.04463  Biso   1.000  C
  H128     1.0000 0.82747  0.14383  0.99553  Biso   1.000  H
  C163     1.0000 0.75667  0.09553  0.01163  Biso   1.000  C
  H129     1.0000 0.75257  0.08553  0.93963  Biso   1.000  H
  C164     1.0000 0.53797  0.08923  0.81183  Biso   1.000  C
  H130     1.0000 0.54257  0.07553  0.87443  Biso   1.000  H
  C165     1.0000 0.50437  0.10493  0.81063  Biso   1.000  C
  C166     1.0000 0.49767  0.12513  0.71903  Biso   1.000  C
  H131     1.0000 0.47477  0.13593  0.71813  Biso   1.000  H
  C167     1.0000 0.52447  0.12943  0.62863  Biso   1.000  C
  H132     1.0000 0.51987  0.14323  0.56603  Biso   1.000  H
  C168     1.0000 0.55797  0.11363  0.62993  Biso   1.000  C
  H133     1.0000 0.57637  0.11663  0.56813  Biso   1.000  H
  C169     1.0000 0.56477  0.09353  0.72153  Biso   1.000  C
  O43      1.0000 0.47847  0.10133  0.89603  Biso   1.000  O
  H134     1.0000 0.47787  0.08023  0.93693  Biso   1.000  H
  C170     1.0000 0.59397  0.06973  0.71843  Biso   1.000  C
  H135     1.0000 0.60327  0.06533  0.64973  Biso   1.000  H
  C171     1.0000 0.46617  0.07673  0.16373  Biso   1.000  C
  H136     1.0000 0.45287  0.04913  0.11923  Biso   1.000  H
  C172     1.0000 0.43677  0.09393  0.20303  Biso   1.000  C
  H137     1.0000 0.40337  0.07793  0.18533  Biso   1.000  H
  C173     1.0000 0.45637  0.13453  0.26823  Biso   1.000  C
  H138     1.0000 0.43627  0.14623  0.29503  Biso   1.000  H
  C174     1.0000 0.50527  0.15793  0.29403  Biso   1.000  C
  C175     1.0000 0.53467  0.14083  0.25473  Biso   1.000  C
  H139     1.0000 0.56817  0.15693  0.27243  Biso   1.000  H
  C176     1.0000 0.51517  0.10033  0.18963  Biso   1.000  C
  O44      1.0000 0.52397  0.19773  0.35483  Biso   1.000  O
  H140     1.0000 0.53977  0.22233  0.31693  Biso   1.000  H
  C177     1.0000 0.54927  0.08321  0.14953  Biso   1.000  C
  H141     1.0000 0.58307  0.10373  0.16053  Biso   1.000  H
  C178     1.0000 0.53437  0.04103  0.09983  Biso   1.000  C
  H142     1.0000 0.50087  0.01983  0.08663  Biso   1.000  H
  C179     1.0000 0.56977  0.02773  0.06633  Biso   1.000  C
  O45      1.0000 0.61397  0.05363  0.08523  Biso   1.000  O
  O46      1.0000 0.55347  0.98803  0.02023  Biso   1.000  O
  C180     1.0000 0.55927  0.11713  0.64223  Biso   1.000  C
  H143     1.0000 0.57847  0.12263  0.58053  Biso   1.000  H
  C181     1.0000 0.52677  0.13413  0.64723  Biso   1.000  C
  C182     1.0000 0.49867  0.12593  0.73743  Biso   1.000  C
  H144     1.0000 0.47647  0.13763  0.74093  Biso   1.000  H
  C183     1.0000 0.50317  0.10083  0.82263  Biso   1.000  C
  H145     1.0000 0.48397  0.09523  0.88433  Biso   1.000  H
  C184     1.0000 0.53567  0.08383  0.81763  Biso   1.000  C
  H146     1.0000 0.53877  0.06673  0.87583  Biso   1.000  H
  C185     1.0000 0.56377  0.09203  0.72743  Biso   1.000  C
  O47      1.0000 0.51387  0.14813  0.55933  Biso   1.000  O
  H147     1.0000 0.51767  0.13433  0.50663  Biso   1.000  H
  C186     1.0000 0.60267  0.08013  0.72643  Biso   1.000  C
  H148     1.0000 0.62517  0.09273  0.66953  Biso   1.000  H
  C187     1.0000 0.47319  0.08915  0.17963  Biso   1.000  C
  H149     1.0000 0.46387  0.06573  0.12473  Biso   1.000  H
  C188     1.0000 0.43977  0.10074  0.22063  Biso   1.000  C
  H150     1.0000 0.40757  0.08523  0.19373  Biso   1.000  H
  C189     1.0000 0.45337  0.13493  0.30103  Biso   1.000  C
  H151     1.0000 0.43047  0.14283  0.32913  Biso   1.000  H
  C190     1.0000 0.50037  0.15750  0.34043  Biso   1.000  C
  C191     1.0000 0.53387  0.14599  0.29943  Biso   1.000  C
  H152     1.0000 0.56597  0.16143  0.32633  Biso   1.000  H
  C192     1.0000 0.52027  0.11180  0.21903  Biso   1.000  C
  O48      1.0000 0.51407  0.19336  0.41063  Biso   1.000  O
  H153     1.0000 0.54167  0.20113  0.43423  Biso   1.000  H
  C193     1.0000 0.55871  0.10077  0.17803  Biso   1.000  C
  H154     1.0000 0.59147  0.12273  0.19623  Biso   1.000  H
  C194     1.0000 0.54992  0.06253  0.11833  Biso   1.000  C
  H155     1.0000 0.51797  0.04033  0.09513  Biso   1.000  H
  C195     1.0000 0.59029  0.05570  0.08993  Biso   1.000  C
  O49      1.0000 0.63321  0.08752  0.10823  Biso   1.000  O
  O50      1.0000 0.58032  0.01755  0.04303  Biso   1.000  O
  N5       1.0000 0.71824  0.07442  0.07613  Biso   1.000  N
  Zn6      1.0000 0.31692  0.35949  0.35477  Biso   1.000  Zn
  O51      1.0000 0.33084  0.36407  0.20097  Biso   1.000  O
  O52      1.0000 0.32485  0.36653  0.02807  Biso   1.000  O
  C196     1.0000 0.27613  0.38651  0.13237  Biso   1.000  C
  H156     1.0000 0.26303  0.38467  0.20087  Biso   1.000  H
  C197     1.0000 0.31223  0.37137  0.11957  Biso   1.000  C
  C198     1.0000 0.39153  0.42287  0.51037  Biso   1.000  C
  H157     1.0000 0.36483  0.40857  0.55767  Biso   1.000  H
  C199     1.0000 0.43553  0.45827  0.54787  Biso   1.000  C
  H158     1.0000 0.43853  0.46797  0.61987  Biso   1.000  H
  C200     1.0000 0.47623  0.48057  0.48127  Biso   1.000  C
  C201     1.0000 0.46803  0.46387  0.37797  Biso   1.000  C
  H159     1.0000 0.49413  0.47717  0.32887  Biso   1.000  H
  C202     1.0000 0.42333  0.42887  0.34497  Biso   1.000  C
  H160     1.0000 0.41923  0.41887  0.27297  Biso   1.000  H
  C203     1.0000 0.20463  0.42257  0.14517  Biso   1.000  C
  H161     1.0000 0.20923  0.40887  0.20777  Biso   1.000  H
  C204     1.0000 0.17103  0.43827  0.14397  Biso   1.000  C
  C205     1.0000 0.16433  0.45847  0.05237  Biso   1.000  C
  H162     1.0000 0.14143  0.46927  0.05147  Biso   1.000  H
  C206     1.0000 0.19113  0.46277  0.96197  Biso   1.000  C
  H163     1.0000 0.18653  0.47657  0.89937  Biso   1.000  H
  C207     1.0000 0.22463  0.44697  0.96327  Biso   1.000  C
  H164     1.0000 0.24303  0.44997  0.90147  Biso   1.000  H
  C208     1.0000 0.23143  0.42687  0.05487  Biso   1.000  C
  O53      1.0000 0.14513  0.43467  0.22937  Biso   1.000  O
  H165     1.0000 0.14453  0.41357  0.27027  Biso   1.000  H
  C209     1.0000 0.26063  0.40307  0.05177  Biso   1.000  C
  H166     1.0000 0.26993  0.39867  0.98307  Biso   1.000  H
  C210     1.0000 0.13283  0.41007  0.49707  Biso   1.000  C
  H167     1.0000 0.11953  0.38247  0.45257  Biso   1.000  H
  C211     1.0000 0.10343  0.42727  0.53637  Biso   1.000  C
  H168     1.0000 0.07003  0.41127  0.51867  Biso   1.000  H
  C212     1.0000 0.12303  0.46787  0.60157  Biso   1.000  C
  H169     1.0000 0.10293  0.47957  0.62837  Biso   1.000  H
  C213     1.0000 0.17193  0.49127  0.62737  Biso   1.000  C
  C214     1.0000 0.20133  0.47417  0.58807  Biso   1.000  C
  H170     1.0000 0.23483  0.49027  0.60577  Biso   1.000  H
  C215     1.0000 0.18183  0.43367  0.52297  Biso   1.000  C
  O54      1.0000 0.19063  0.53107  0.68817  Biso   1.000  O
  H171     1.0000 0.20643  0.55567  0.65027  Biso   1.000  H
  C216     1.0000 0.21593  0.41655  0.48287  Biso   1.000  C
  H172     1.0000 0.24973  0.43707  0.49387  Biso   1.000  H
  C217     1.0000 0.20103  0.37437  0.43317  Biso   1.000  C
  H173     1.0000 0.16753  0.35317  0.41997  Biso   1.000  H
  C218     1.0000 0.23643  0.36107  0.39967  Biso   1.000  C
  O55      1.0000 0.28063  0.38697  0.41857  Biso   1.000  O
  O56      1.0000 0.22013  0.32137  0.35357  Biso   1.000  O
  C219     1.0000 0.22593  0.45047  0.97557  Biso   1.000  C
  H174     1.0000 0.24513  0.45597  0.91387  Biso   1.000  H
  C220     1.0000 0.19343  0.46747  0.98057  Biso   1.000  C
  C221     1.0000 0.16533  0.45927  0.07077  Biso   1.000  C
  H175     1.0000 0.14313  0.47097  0.07427  Biso   1.000  H
  C222     1.0000 0.16983  0.43417  0.15597  Biso   1.000  C
  H176     1.0000 0.15063  0.42857  0.21767  Biso   1.000  H
  C223     1.0000 0.20233  0.41717  0.15097  Biso   1.000  C
  H177     1.0000 0.20543  0.40007  0.20917  Biso   1.000  H
  C224     1.0000 0.23043  0.42537  0.06077  Biso   1.000  C
  O57      1.0000 0.18053  0.48147  0.89267  Biso   1.000  O
  H178     1.0000 0.18433  0.46767  0.83997  Biso   1.000  H
  C225     1.0000 0.26933  0.41347  0.05977  Biso   1.000  C
  H179     1.0000 0.29183  0.42607  0.00287  Biso   1.000  H
  C226     1.0000 0.13985  0.42249  0.51297  Biso   1.000  C
  H180     1.0000 0.13053  0.39907  0.45807  Biso   1.000  H
  C227     1.0000 0.10643  0.43408  0.55397  Biso   1.000  C
  H181     1.0000 0.07423  0.41857  0.52707  Biso   1.000  H
  C228     1.0000 0.12003  0.46827  0.63437  Biso   1.000  C
  H182     1.0000 0.09713  0.47617  0.66247  Biso   1.000  H
  C229     1.0000 0.16703  0.49084  0.67377  Biso   1.000  C
  C230     1.0000 0.20053  0.47933  0.63277  Biso   1.000  C
  H183     1.0000 0.23263  0.49477  0.65967  Biso   1.000  H
  C231     1.0000 0.18693  0.44514  0.55237  Biso   1.000  C
  O58      1.0000 0.18073  0.52670  0.74397  Biso   1.000  O
  H184     1.0000 0.20833  0.53447  0.76757  Biso   1.000  H
  C232     1.0000 0.22537  0.43411  0.51137  Biso   1.000  C
  H185     1.0000 0.25813  0.45607  0.52957  Biso   1.000  H
  C233     1.0000 0.21658  0.39587  0.45167  Biso   1.000  C
  H186     1.0000 0.18463  0.37367  0.42847  Biso   1.000  H
  C234     1.0000 0.25695  0.38904  0.42327  Biso   1.000  C
  O59      1.0000 0.29987  0.42086  0.44157  Biso   1.000  O
  O60      1.0000 0.24698  0.35089  0.37637  Biso   1.000  O
  N6       1.0000 0.38490  0.40776  0.40947  Biso   1.000  N
  Zn7      1.0000 0.30718  0.29077  0.68810  Biso   1.000  Zn
  O61      1.0000 0.30260  0.30011  0.53430  Biso   1.000  O
  O62      1.0000 0.30014  0.29166  0.36140  Biso   1.000  O
  C235     1.0000 0.28016  0.22296  0.46570  Biso   1.000  C
  H187     1.0000 0.28200  0.21170  0.53420  Biso   1.000  H
  C236     1.0000 0.29530  0.27420  0.45290  Biso   1.000  C
  C237     1.0000 0.24380  0.30200  0.84370  Biso   1.000  C
  H188     1.0000 0.25810  0.28960  0.89100  Biso   1.000  H
  C238     1.0000 0.20840  0.31060  0.88120  Biso   1.000  C
  H189     1.0000 0.19870  0.30390  0.95320  Biso   1.000  H
  C239     1.0000 0.18610  0.32900  0.81460  Biso   1.000  C
  C240     1.0000 0.20280  0.33750  0.71130  Biso   1.000  C
  H190     1.0000 0.18950  0.35030  0.66220  Biso   1.000  H
  C241     1.0000 0.23780  0.32780  0.67830  Biso   1.000  C
  H191     1.0000 0.24780  0.33370  0.60630  Biso   1.000  H
  C242     1.0000 0.24410  0.11540  0.47850  Biso   1.000  C
  H192     1.0000 0.25780  0.13370  0.54110  Biso   1.000  H
  C243     1.0000 0.22840  0.06610  0.47730  Biso   1.000  C
  C244     1.0000 0.20820  0.03920  0.38570  Biso   1.000  C
  H193     1.0000 0.19740  0.00550  0.38480  Biso   1.000  H
  C245     1.0000 0.20390  0.06170  0.29530  Biso   1.000  C
  H194     1.0000 0.19010  0.04330  0.23270  Biso   1.000  H
  C246     1.0000 0.21970  0.11100  0.29660  Biso   1.000  C
  H195     1.0000 0.21670  0.12640  0.23480  Biso   1.000  H
  C247     1.0000 0.23980  0.13790  0.38820  Biso   1.000  C
  O63      1.0000 0.23200  0.04380  0.56270  Biso   1.000  O
  H196     1.0000 0.25310  0.06430  0.60360  Biso   1.000  H
  C248     1.0000 0.26360  0.19090  0.38510  Biso   1.000  C
  H197     1.0000 0.26800  0.20460  0.31640  Biso   1.000  H
  C249     1.0000 0.25660  0.05610  0.83040  Biso   1.000  C
  H198     1.0000 0.28420  0.07040  0.78590  Biso   1.000  H
  C250     1.0000 0.23940  0.00950  0.86970  Biso   1.000  C
  H199     1.0000 0.25540  0.99210  0.85200  Biso   1.000  H
  C251     1.0000 0.19880  0.98850  0.93490  Biso   1.000  C
  H200     1.0000 0.18710  0.95670  0.96170  Biso   1.000  H
  C252     1.0000 0.17540  0.01400  0.96070  Biso   1.000  C
  C253     1.0000 0.19250  0.06050  0.92140  Biso   1.000  C
  H201     1.0000 0.17640  0.07790  0.93910  Biso   1.000  H
  C254     1.0000 0.23300  0.08150  0.85630  Biso   1.000  C
  O64      1.0000 0.13560  0.99290  0.02150  Biso   1.000  O
  H202     1.0000 0.11100  0.98410  0.98360  Biso   1.000  H
  C255     1.0000 0.25012  0.13272  0.81620  Biso   1.000  C
  H203     1.0000 0.22960  0.14600  0.82720  Biso   1.000  H
  C256     1.0000 0.29230  0.16000  0.76650  Biso   1.000  C
  H204     1.0000 0.31350  0.14770  0.75330  Biso   1.000  H
  C257     1.0000 0.30560  0.20870  0.73300  Biso   1.000  C
  O65      1.0000 0.27970  0.22700  0.75190  Biso   1.000  O
  O66      1.0000 0.34530  0.23210  0.68690  Biso   1.000  O
  C258     1.0000 0.21620  0.10880  0.30890  Biso   1.000  C
  H205     1.0000 0.21070  0.12250  0.24720  Biso   1.000  H
  C259     1.0000 0.19920  0.05930  0.31390  Biso   1.000  C
  C260     1.0000 0.20740  0.03940  0.40410  Biso   1.000  C
  H206     1.0000 0.19570  0.00550  0.40760  Biso   1.000  H
  C261     1.0000 0.23250  0.06900  0.48930  Biso   1.000  C
  H207     1.0000 0.23810  0.05540  0.55100  Biso   1.000  H
  C262     1.0000 0.24950  0.11850  0.48430  Biso   1.000  C
  H208     1.0000 0.26660  0.13870  0.54250  Biso   1.000  H
  C263     1.0000 0.24130  0.13840  0.39410  Biso   1.000  C
  O67      1.0000 0.18520  0.03240  0.22600  Biso   1.000  O
  H209     1.0000 0.19900  0.05000  0.17330  Biso   1.000  H
  C264     1.0000 0.25320  0.18920  0.39310  Biso   1.000  C
  H210     1.0000 0.24060  0.19910  0.33620  Biso   1.000  H
  C265     1.0000 0.24418  0.05070  0.84630  Biso   1.000  C
  H211     1.0000 0.26760  0.06480  0.79140  Biso   1.000  H
  C266     1.0000 0.23259  0.00569  0.88730  Biso   1.000  C
  H212     1.0000 0.24810  0.98900  0.86040  Biso   1.000  H
  C267     1.0000 0.19840  0.98510  0.96770  Biso   1.000  C
  H213     1.0000 0.19050  0.95430  0.99580  Biso   1.000  H
  C268     1.0000 0.17583  0.00953  0.00710  Biso   1.000  C
  C269     1.0000 0.18734  0.05454  0.96610  Biso   1.000  C
  H214     1.0000 0.17190  0.07120  0.99300  Biso   1.000  H
  C270     1.0000 0.22153  0.07513  0.88570  Biso   1.000  C
  O68      1.0000 0.13997  0.98737  0.07730  Biso   1.000  O
  H215     1.0000 0.13220  0.00720  0.10090  Biso   1.000  H
  C271     1.0000 0.23256  0.12460  0.84470  Biso   1.000  C
  H216     1.0000 0.21060  0.13540  0.86290  Biso   1.000  H
  C272     1.0000 0.27080  0.15405  0.78500  Biso   1.000  C
  H217     1.0000 0.29300  0.14430  0.76180  Biso   1.000  H
  C273     1.0000 0.27763  0.20125  0.75660  Biso   1.000  C
  O69      1.0000 0.24581  0.21235  0.77490  Biso   1.000  O
  O70      1.0000 0.31578  0.22943  0.70970  Biso   1.000  O
  N7       1.0000 0.25891  0.31048  0.74280  Biso   1.000  N
  Zn8      1.0000 0.97385  0.62410  0.02143  Biso   1.000  Zn
  O71      1.0000 0.96927  0.63344  0.86763  Biso   1.000  O
  O72      1.0000 0.96681  0.62499  0.69473  Biso   1.000  O
  C274     1.0000 0.94683  0.55629  0.79903  Biso   1.000  C
  H218     1.0000 0.94867  0.54503  0.86753  Biso   1.000  H
  C275     1.0000 0.96197  0.60753  0.78623  Biso   1.000  C
  C276     1.0000 0.91047  0.63533  0.17703  Biso   1.000  C
  H219     1.0000 0.92477  0.62293  0.22433  Biso   1.000  H
  C277     1.0000 0.87507  0.64393  0.21453  Biso   1.000  C
  H220     1.0000 0.86537  0.63723  0.28653  Biso   1.000  H
  C278     1.0000 0.85277  0.66233  0.14793  Biso   1.000  C
  C279     1.0000 0.86947  0.67083  0.04463  Biso   1.000  C
  H221     1.0000 0.85617  0.68363  0.99553  Biso   1.000  H
  C280     1.0000 0.90447  0.66113  0.01163  Biso   1.000  C
  H222     1.0000 0.91447  0.66703  0.93963  Biso   1.000  H
  C281     1.0000 0.91077  0.44873  0.81183  Biso   1.000  C
  H223     1.0000 0.92447  0.46703  0.87443  Biso   1.000  H
  C282     1.0000 0.89507  0.39943  0.81063  Biso   1.000  C
  C283     1.0000 0.87487  0.37253  0.71903  Biso   1.000  C
  H224     1.0000 0.86407  0.33883  0.71813  Biso   1.000  H
  C284     1.0000 0.87057  0.39503  0.62863  Biso   1.000  C
  H225     1.0000 0.85677  0.37663  0.56603  Biso   1.000  H
  C285     1.0000 0.88637  0.44433  0.62993  Biso   1.000  C
  H226     1.0000 0.88337  0.45973  0.56813  Biso   1.000  H
  C286     1.0000 0.90647  0.47123  0.72153  Biso   1.000  C
  O73      1.0000 0.89867  0.37713  0.89603  Biso   1.000  O
  H227     1.0000 0.91977  0.39763  0.93693  Biso   1.000  H
  C287     1.0000 0.93027  0.52423  0.71843  Biso   1.000  C
  H228     1.0000 0.93467  0.53793  0.64973  Biso   1.000  H
  C288     1.0000 0.92327  0.38943  0.16373  Biso   1.000  C
  H229     1.0000 0.95087  0.40373  0.11923  Biso   1.000  H
  C289     1.0000 0.90607  0.34283  0.20303  Biso   1.000  C
  H230     1.0000 0.92207  0.32543  0.18533  Biso   1.000  H
  C290     1.0000 0.86547  0.32183  0.26823  Biso   1.000  C
  H231     1.0000 0.85377  0.29003  0.29503  Biso   1.000  H
  C291     1.0000 0.84207  0.34733  0.29403  Biso   1.000  C
  C292     1.0000 0.85917  0.39383  0.25473  Biso   1.000  C
  H232     1.0000 0.84307  0.41123  0.27243  Biso   1.000  H
  C293     1.0000 0.89967  0.41483  0.18963  Biso   1.000  C
  O74      1.0000 0.80227  0.32623  0.35483  Biso   1.000  O
  H233     1.0000 0.77767  0.31743  0.31693  Biso   1.000  H
  C294     1.0000 0.91679  0.46605  0.14953  Biso   1.000  C
  H234     1.0000 0.89627  0.47933  0.16053  Biso   1.000  H
  C295     1.0000 0.95897  0.49333  0.09983  Biso   1.000  C
  H235     1.0000 0.98017  0.48103  0.08663  Biso   1.000  H
  C296     1.0000 0.97227  0.54203  0.06633  Biso   1.000  C
  O75      1.0000 0.94637  0.56033  0.08523  Biso   1.000  O
  O76      1.0000 0.01197  0.56543  0.02023  Biso   1.000  O
  C297     1.0000 0.88287  0.44213  0.64223  Biso   1.000  C
  H236     1.0000 0.87737  0.45583  0.58053  Biso   1.000  H
  C298     1.0000 0.86587  0.39263  0.64723  Biso   1.000  C
  C299     1.0000 0.87407  0.37273  0.73743  Biso   1.000  C
  H237     1.0000 0.86237  0.33883  0.74093  Biso   1.000  H
  C300     1.0000 0.89917  0.40233  0.82263  Biso   1.000  C
  H238     1.0000 0.90477  0.38873  0.88433  Biso   1.000  H
  C301     1.0000 0.91617  0.45183  0.81763  Biso   1.000  C
  H239     1.0000 0.93327  0.47203  0.87583  Biso   1.000  H
  C302     1.0000 0.90797  0.47173  0.72743  Biso   1.000  C
  O77      1.0000 0.85187  0.36573  0.55933  Biso   1.000  O
  H240     1.0000 0.86567  0.38333  0.50663  Biso   1.000  H
  C303     1.0000 0.91987  0.52253  0.72643  Biso   1.000  C
  H241     1.0000 0.90727  0.53243  0.66953  Biso   1.000  H
  C304     1.0000 0.91085  0.38403  0.17963  Biso   1.000  C
  H242     1.0000 0.93427  0.39813  0.12473  Biso   1.000  H
  C305     1.0000 0.89926  0.33902  0.22063  Biso   1.000  C
  H243     1.0000 0.91477  0.32233  0.19373  Biso   1.000  H
  C306     1.0000 0.86507  0.31843  0.30103  Biso   1.000  C
  H244     1.0000 0.85717  0.28763  0.32913  Biso   1.000  H
  C307     1.0000 0.84250  0.34286  0.34043  Biso   1.000  C
  C308     1.0000 0.85401  0.38787  0.29943  Biso   1.000  C
  H245     1.0000 0.83857  0.40453  0.32633  Biso   1.000  H
  C309     1.0000 0.88820  0.40846  0.21903  Biso   1.000  C
  O78      1.0000 0.80664  0.32070  0.41063  Biso   1.000  O
  H246     1.0000 0.79887  0.34053  0.43423  Biso   1.000  H
  C310     1.0000 0.89923  0.45793  0.17803  Biso   1.000  C
  H247     1.0000 0.87727  0.46873  0.19623  Biso   1.000  H
  C311     1.0000 0.93747  0.48738  0.11833  Biso   1.000  C
  H248     1.0000 0.95967  0.47763  0.09513  Biso   1.000  H
  C312     1.0000 0.94430  0.53458  0.08993  Biso   1.000  C
  O79      1.0000 0.91248  0.54568  0.10823  Biso   1.000  O
  O80      1.0000 0.98245  0.56276  0.04303  Biso   1.000  O
  N8       1.0000 0.92558  0.64381  0.07613  Biso   1.000  N
  Zn9      1.0000 0.64051  0.95744  0.35477  Biso   1.000  Zn
  O81      1.0000 0.63593  0.96678  0.20097  Biso   1.000  O
  O82      1.0000 0.63347  0.95833  0.02807  Biso   1.000  O
  C313     1.0000 0.61349  0.88963  0.13237  Biso   1.000  C
  H249     1.0000 0.61533  0.87837  0.20087  Biso   1.000  H
  C314     1.0000 0.62863  0.94087  0.11957  Biso   1.000  C
  C315     1.0000 0.57713  0.96867  0.51037  Biso   1.000  C
  H250     1.0000 0.59143  0.95627  0.55767  Biso   1.000  H
  C316     1.0000 0.54173  0.97727  0.54787  Biso   1.000  C
  H251     1.0000 0.53203  0.97057  0.61987  Biso   1.000  H
  C317     1.0000 0.51943  0.99567  0.48127  Biso   1.000  C
  C318     1.0000 0.53613  0.00417  0.37797  Biso   1.000  C
  H252     1.0000 0.52283  0.01697  0.32887  Biso   1.000  H
  C319     1.0000 0.57113  0.99447  0.34497  Biso   1.000  C
  H253     1.0000 0.58113  0.00037  0.27297  Biso   1.000  H
  C320     1.0000 0.57743  0.78207  0.14517  Biso   1.000  C
  H254     1.0000 0.59113  0.80037  0.20777  Biso   1.000  H
  C321     1.0000 0.56173  0.73277  0.14397  Biso   1.000  C
  C322     1.0000 0.54153  0.70587  0.05237  Biso   1.000  C
  H255     1.0000 0.53073  0.67217  0.05147  Biso   1.000  H
  C323     1.0000 0.53723  0.72837  0.96197  Biso   1.000  C
  H256     1.0000 0.52343  0.70997  0.89937  Biso   1.000  H
  C324     1.0000 0.55303  0.77767  0.96327  Biso   1.000  C
  H257     1.0000 0.55003  0.79307  0.90147  Biso   1.000  H
  C325     1.0000 0.57313  0.80457  0.05487  Biso   1.000  C
  O83      1.0000 0.56533  0.71047  0.22937  Biso   1.000  O
  H258     1.0000 0.58643  0.73097  0.27027  Biso   1.000  H
  C326     1.0000 0.59693  0.85757  0.05177  Biso   1.000  C
  H259     1.0000 0.60133  0.87127  0.98307  Biso   1.000  H
  C327     1.0000 0.58993  0.72277  0.49707  Biso   1.000  C
  H260     1.0000 0.61753  0.73707  0.45257  Biso   1.000  H
  C328     1.0000 0.57273  0.67617  0.53637  Biso   1.000  C
  H261     1.0000 0.58873  0.65877  0.51867  Biso   1.000  H
  C329     1.0000 0.53213  0.65517  0.60157  Biso   1.000  C
  H262     1.0000 0.52043  0.62337  0.62837  Biso   1.000  H
  C330     1.0000 0.50873  0.68067  0.62737  Biso   1.000  C
  C331     1.0000 0.52583  0.72717  0.58807  Biso   1.000  C
  H263     1.0000 0.50973  0.74457  0.60577  Biso   1.000  H
  C332     1.0000 0.56633  0.74817  0.52297  Biso   1.000  C
  O84      1.0000 0.46893  0.65957  0.68817  Biso   1.000  O
  H264     1.0000 0.44433  0.65077  0.65027  Biso   1.000  H
  C333     1.0000 0.58345  0.79939  0.48287  Biso   1.000  C
  H265     1.0000 0.56293  0.81267  0.49387  Biso   1.000  H
  C334     1.0000 0.62563  0.82667  0.43317  Biso   1.000  C
  H266     1.0000 0.64683  0.81437  0.41997  Biso   1.000  H
  C335     1.0000 0.63893  0.87537  0.39967  Biso   1.000  C
  O85      1.0000 0.61303  0.89367  0.41857  Biso   1.000  O
  O86      1.0000 0.67863  0.89877  0.35357  Biso   1.000  O
  C336     1.0000 0.54953  0.77547  0.97557  Biso   1.000  C
  H267     1.0000 0.54403  0.78917  0.91387  Biso   1.000  H
  C337     1.0000 0.53253  0.72597  0.98057  Biso   1.000  C
  C338     1.0000 0.54073  0.70607  0.07077  Biso   1.000  C
  H268     1.0000 0.52903  0.67217  0.07427  Biso   1.000  H
  C339     1.0000 0.56583  0.73567  0.15597  Biso   1.000  C
  H269     1.0000 0.57143  0.72207  0.21767  Biso   1.000  H
  C340     1.0000 0.58283  0.78517  0.15097  Biso   1.000  C
  H270     1.0000 0.59993  0.80537  0.20917  Biso   1.000  H
  C341     1.0000 0.57463  0.80507  0.06077  Biso   1.000  C
  O87      1.0000 0.51853  0.69907  0.89267  Biso   1.000  O
  H271     1.0000 0.53233  0.71667  0.83997  Biso   1.000  H
  C342     1.0000 0.58653  0.85587  0.05977  Biso   1.000  C
  H272     1.0000 0.57393  0.86577  0.00287  Biso   1.000  H
  C343     1.0000 0.57751  0.71737  0.51297  Biso   1.000  C
  H273     1.0000 0.60093  0.73147  0.45807  Biso   1.000  H
  C344     1.0000 0.56592  0.67236  0.55397  Biso   1.000  C
  H274     1.0000 0.58143  0.65567  0.52707  Biso   1.000  H
  C345     1.0000 0.53173  0.65177  0.63437  Biso   1.000  C
  H275     1.0000 0.52383  0.62097  0.66247  Biso   1.000  H
  C346     1.0000 0.50916  0.67620  0.67377  Biso   1.000  C
  C347     1.0000 0.52067  0.72121  0.63277  Biso   1.000  C
  H276     1.0000 0.50523  0.73787  0.65967  Biso   1.000  H
  C348     1.0000 0.55486  0.74180  0.55237  Biso   1.000  C
  O88      1.0000 0.47330  0.65404  0.74397  Biso   1.000  O
  H277     1.0000 0.46553  0.67387  0.76757  Biso   1.000  H
  C349     1.0000 0.56589  0.79127  0.51137  Biso   1.000  C
  H278     1.0000 0.54393  0.80207  0.52957  Biso   1.000  H
  C350     1.0000 0.60413  0.82072  0.45167  Biso   1.000  C
  H279     1.0000 0.62633  0.81097  0.42847  Biso   1.000  H
  C351     1.0000 0.61096  0.86792  0.42327  Biso   1.000  C
  O89      1.0000 0.57914  0.87902  0.44157  Biso   1.000  O
  O90      1.0000 0.64911  0.89610  0.37637  Biso   1.000  O
  N9       1.0000 0.59224  0.97715  0.40947  Biso   1.000  N
  Zn10     1.0000 0.29077  0.98359  0.31190  Biso   1.000  Zn
  O91      1.0000 0.30011  0.99751  0.46570  Biso   1.000  O
  O92      1.0000 0.29166  0.99152  0.63860  Biso   1.000  O
  C352     1.0000 0.22296  0.94280  0.53430  Biso   1.000  C
  H280     1.0000 0.21170  0.92970  0.46580  Biso   1.000  H
  C353     1.0000 0.27420  0.97890  0.54710  Biso   1.000  C
  C354     1.0000 0.30200  0.05820  0.15630  Biso   1.000  C
  H281     1.0000 0.28960  0.03150  0.10900  Biso   1.000  H
  C355     1.0000 0.31060  0.10220  0.11880  Biso   1.000  C
  H282     1.0000 0.30390  0.10520  0.04680  Biso   1.000  H
  C356     1.0000 0.32900  0.14290  0.18540  Biso   1.000  C
  C357     1.0000 0.33750  0.13470  0.28870  Biso   1.000  C
  H283     1.0000 0.35030  0.16080  0.33780  Biso   1.000  H
  C358     1.0000 0.32780  0.09000  0.32170  Biso   1.000  C
  H284     1.0000 0.33370  0.08590  0.39370  Biso   1.000  H
  C359     1.0000 0.11540  0.87130  0.52150  Biso   1.000  C
  H285     1.0000 0.13370  0.87590  0.45890  Biso   1.000  H
  C360     1.0000 0.06610  0.83770  0.52270  Biso   1.000  C
  C361     1.0000 0.03920  0.83100  0.61430  Biso   1.000  C
  H286     1.0000 0.00550  0.80810  0.61520  Biso   1.000  H
  C362     1.0000 0.06170  0.85780  0.70470  Biso   1.000  C
  H287     1.0000 0.04330  0.85320  0.76730  Biso   1.000  H
  C363     1.0000 0.11100  0.89130  0.70340  Biso   1.000  C
  H288     1.0000 0.12640  0.90970  0.76520  Biso   1.000  H
  C364     1.0000 0.13790  0.89810  0.61180  Biso   1.000  C
  O93      1.0000 0.04380  0.81180  0.43730  Biso   1.000  O
  H289     1.0000 0.06430  0.81120  0.39640  Biso   1.000  H
  C365     1.0000 0.19090  0.92730  0.61490  Biso   1.000  C
  H290     1.0000 0.20460  0.93660  0.68360  Biso   1.000  H
  C366     1.0000 0.05610  0.79950  0.16960  Biso   1.000  C
  H291     1.0000 0.07040  0.78620  0.21410  Biso   1.000  H
  C367     1.0000 0.00950  0.77010  0.13030  Biso   1.000  C
  H292     1.0000 0.99210  0.73670  0.14800  Biso   1.000  H
  C368     1.0000 0.98850  0.78970  0.06510  Biso   1.000  C
  H293     1.0000 0.95670  0.76960  0.03830  Biso   1.000  H
  C369     1.0000 0.01400  0.83860  0.03930  Biso   1.000  C
  C370     1.0000 0.06050  0.86800  0.07860  Biso   1.000  C
  H294     1.0000 0.07790  0.90150  0.06090  Biso   1.000  H
  C371     1.0000 0.08150  0.84850  0.14370  Biso   1.000  C
  O94      1.0000 0.99290  0.85730  0.97850  Biso   1.000  O
  H295     1.0000 0.98410  0.87310  0.01640  Biso   1.000  H
  C372     1.0000 0.13272  0.88260  0.18380  Biso   1.000  C
  H296     1.0000 0.14600  0.91640  0.17280  Biso   1.000  H
  C373     1.0000 0.16000  0.86770  0.23350  Biso   1.000  C
  H297     1.0000 0.14770  0.83420  0.24670  Biso   1.000  H
  C374     1.0000 0.20870  0.90310  0.26700  Biso   1.000  C
  O95      1.0000 0.22700  0.94730  0.24810  Biso   1.000  O
  O96      1.0000 0.23210  0.88680  0.31310  Biso   1.000  O
  C375     1.0000 0.10880  0.89260  0.69110  Biso   1.000  C
  H298     1.0000 0.12250  0.91180  0.75280  Biso   1.000  H
  C376     1.0000 0.05930  0.86010  0.68610  Biso   1.000  C
  C377     1.0000 0.03940  0.83200  0.59590  Biso   1.000  C
  H299     1.0000 0.00550  0.80980  0.59240  Biso   1.000  H
  C378     1.0000 0.06900  0.83650  0.51070  Biso   1.000  C
  H300     1.0000 0.05540  0.81730  0.44900  Biso   1.000  H
  C379     1.0000 0.11850  0.86900  0.51570  Biso   1.000  C
  H301     1.0000 0.13870  0.87210  0.45750  Biso   1.000  H
  C380     1.0000 0.13840  0.89710  0.60590  Biso   1.000  C
  O97      1.0000 0.03240  0.84720  0.77400  Biso   1.000  O
  H302     1.0000 0.05000  0.85100  0.82670  Biso   1.000  H
  C381     1.0000 0.18920  0.93600  0.60690  Biso   1.000  C
  H303     1.0000 0.19910  0.95850  0.66380  Biso   1.000  H
  C382     1.0000 0.05070  0.80652  0.15370  Biso   1.000  C
  H304     1.0000 0.06480  0.79720  0.20860  Biso   1.000  H
  C383     1.0000 0.00569  0.77310  0.11270  Biso   1.000  C
  H305     1.0000 0.98900  0.74090  0.13960  Biso   1.000  H
  C384     1.0000 0.98510  0.78670  0.03230  Biso   1.000  C
  H306     1.0000 0.95430  0.76380  0.00420  Biso   1.000  H
  C385     1.0000 0.00953  0.83370  0.99290  Biso   1.000  C
  C386     1.0000 0.05454  0.86720  0.03390  Biso   1.000  C
  H307     1.0000 0.07120  0.89930  0.00700  Biso   1.000  H
  C387     1.0000 0.07513  0.85360  0.11430  Biso   1.000  C
  O98      1.0000 0.98737  0.84740  0.92270  Biso   1.000  O
  H308     1.0000 0.00720  0.87500  0.89910  Biso   1.000  H
  C388     1.0000 0.12460  0.89204  0.15530  Biso   1.000  C
  H309     1.0000 0.13540  0.92480  0.13710  Biso   1.000  H
  C389     1.0000 0.15405  0.88325  0.21500  Biso   1.000  C
  H310     1.0000 0.14430  0.85130  0.23820  Biso   1.000  H
  C390     1.0000 0.20125  0.92362  0.24340  Biso   1.000  C
  O99      1.0000 0.21235  0.96654  0.22510  Biso   1.000  O
  O100     1.0000 0.22943  0.91365  0.29030  Biso   1.000  O
  N10      1.0000 0.31048  0.05157  0.25720  Biso   1.000  N
  Zn11     1.0000 0.95744  0.31692  0.64523  Biso   1.000  Zn
  O101     1.0000 0.96678  0.33084  0.79903  Biso   1.000  O
  O102     1.0000 0.95833  0.32485  0.97193  Biso   1.000  O
  C391     1.0000 0.88963  0.27613  0.86763  Biso   1.000  C
  H311     1.0000 0.87837  0.26303  0.79913  Biso   1.000  H
  C392     1.0000 0.94087  0.31223  0.88043  Biso   1.000  C
  C393     1.0000 0.96867  0.39153  0.48963  Biso   1.000  C
  H312     1.0000 0.95627  0.36483  0.44233  Biso   1.000  H
  C394     1.0000 0.97727  0.43553  0.45213  Biso   1.000  C
  H313     1.0000 0.97057  0.43853  0.38013  Biso   1.000  H
  C395     1.0000 0.99567  0.47623  0.51873  Biso   1.000  C
  C396     1.0000 0.00417  0.46803  0.62203  Biso   1.000  C
  H314     1.0000 0.01697  0.49413  0.67113  Biso   1.000  H
  C397     1.0000 0.99447  0.42333  0.65503  Biso   1.000  C
  H315     1.0000 0.00037  0.41923  0.72703  Biso   1.000  H
  C398     1.0000 0.78207  0.20463  0.85483  Biso   1.000  C
  H316     1.0000 0.80037  0.20923  0.79223  Biso   1.000  H
  C399     1.0000 0.73277  0.17103  0.85603  Biso   1.000  C
  C400     1.0000 0.70587  0.16433  0.94763  Biso   1.000  C
  H317     1.0000 0.67217  0.14143  0.94853  Biso   1.000  H
  C401     1.0000 0.72837  0.19113  0.03803  Biso   1.000  C
  H318     1.0000 0.70997  0.18653  0.10063  Biso   1.000  H
  C402     1.0000 0.77767  0.22463  0.03673  Biso   1.000  C
  H319     1.0000 0.79307  0.24303  0.09853  Biso   1.000  H
  C403     1.0000 0.80457  0.23143  0.94513  Biso   1.000  C
  O103     1.0000 0.71047  0.14513  0.77063  Biso   1.000  O
  H320     1.0000 0.73097  0.14453  0.72973  Biso   1.000  H
  C404     1.0000 0.85757  0.26063  0.94823  Biso   1.000  C
  H321     1.0000 0.87127  0.26993  0.01693  Biso   1.000  H
  C405     1.0000 0.72277  0.13283  0.50293  Biso   1.000  C
  H322     1.0000 0.73707  0.11953  0.54743  Biso   1.000  H
  C406     1.0000 0.67617  0.10343  0.46363  Biso   1.000  C
  H323     1.0000 0.65877  0.07003  0.48133  Biso   1.000  H
  C407     1.0000 0.65517  0.12303  0.39843  Biso   1.000  C
  H324     1.0000 0.62337  0.10293  0.37163  Biso   1.000  H
  C408     1.0000 0.68067  0.17193  0.37263  Biso   1.000  C
  C409     1.0000 0.72717  0.20133  0.41193  Biso   1.000  C
  H325     1.0000 0.74457  0.23483  0.39423  Biso   1.000  H
  C410     1.0000 0.74817  0.18183  0.47703  Biso   1.000  C
  O104     1.0000 0.65957  0.19063  0.31183  Biso   1.000  O
  H326     1.0000 0.65077  0.20643  0.34973  Biso   1.000  H
  C411     1.0000 0.79939  0.21593  0.51713  Biso   1.000  C
  H327     1.0000 0.81267  0.24973  0.50613  Biso   1.000  H
  C412     1.0000 0.82667  0.20103  0.56683  Biso   1.000  C
  H328     1.0000 0.81437  0.16753  0.58003  Biso   1.000  H
  C413     1.0000 0.87537  0.23643  0.60033  Biso   1.000  C
  O105     1.0000 0.89367  0.28063  0.58143  Biso   1.000  O
  O106     1.0000 0.89877  0.22013  0.64643  Biso   1.000  O
  C414     1.0000 0.77547  0.22593  0.02443  Biso   1.000  C
  H329     1.0000 0.78917  0.24513  0.08613  Biso   1.000  H
  C415     1.0000 0.72597  0.19343  0.01943  Biso   1.000  C
  C416     1.0000 0.70607  0.16533  0.92923  Biso   1.000  C
  H330     1.0000 0.67217  0.14313  0.92573  Biso   1.000  H
  C417     1.0000 0.73567  0.16983  0.84403  Biso   1.000  C
  H331     1.0000 0.72207  0.15063  0.78233  Biso   1.000  H
  C418     1.0000 0.78517  0.20233  0.84903  Biso   1.000  C
  H332     1.0000 0.80537  0.20543  0.79083  Biso   1.000  H
  C419     1.0000 0.80507  0.23043  0.93923  Biso   1.000  C
  O107     1.0000 0.69907  0.18053  0.10733  Biso   1.000  O
  H333     1.0000 0.71667  0.18433  0.16003  Biso   1.000  H
  C420     1.0000 0.85587  0.26933  0.94023  Biso   1.000  C
  H334     1.0000 0.86577  0.29183  0.99713  Biso   1.000  H
  C421     1.0000 0.71737  0.13985  0.48703  Biso   1.000  C
  H335     1.0000 0.73147  0.13053  0.54193  Biso   1.000  H
  C422     1.0000 0.67236  0.10643  0.44603  Biso   1.000  C
  H336     1.0000 0.65567  0.07423  0.47293  Biso   1.000  H
  C423     1.0000 0.65177  0.12003  0.36563  Biso   1.000  C
  H337     1.0000 0.62097  0.09713  0.33753  Biso   1.000  H
  C424     1.0000 0.67620  0.16703  0.32623  Biso   1.000  C
  C425     1.0000 0.72121  0.20053  0.36723  Biso   1.000  C
  H338     1.0000 0.73787  0.23263  0.34033  Biso   1.000  H
  C426     1.0000 0.74180  0.18693  0.44763  Biso   1.000  C
  O108     1.0000 0.65404  0.18073  0.25603  Biso   1.000  O
  H339     1.0000 0.67387  0.20833  0.23243  Biso   1.000  H
  C427     1.0000 0.79127  0.22537  0.48863  Biso   1.000  C
  H340     1.0000 0.80207  0.25813  0.47043  Biso   1.000  H
  C428     1.0000 0.82072  0.21658  0.54833  Biso   1.000  C
  H341     1.0000 0.81097  0.18463  0.57153  Biso   1.000  H
  C429     1.0000 0.86792  0.25695  0.57673  Biso   1.000  C
  O109     1.0000 0.87902  0.29987  0.55843  Biso   1.000  O
  O110     1.0000 0.89610  0.24698  0.62363  Biso   1.000  O
  N11      1.0000 0.97715  0.38490  0.59053  Biso   1.000  N
  Zn12     1.0000 0.62410  0.65026  0.97857  Biso   1.000  Zn
  O111     1.0000 0.63344  0.66418  0.13237  Biso   1.000  O
  O112     1.0000 0.62499  0.65819  0.30527  Biso   1.000  O
  C430     1.0000 0.55629  0.60947  0.20097  Biso   1.000  C
  H342     1.0000 0.54503  0.59637  0.13247  Biso   1.000  H
  C431     1.0000 0.60753  0.64557  0.21377  Biso   1.000  C
  C432     1.0000 0.63533  0.72487  0.82297  Biso   1.000  C
  H343     1.0000 0.62293  0.69817  0.77567  Biso   1.000  H
  C433     1.0000 0.64393  0.76887  0.78547  Biso   1.000  C
  H344     1.0000 0.63723  0.77187  0.71347  Biso   1.000  H
  C434     1.0000 0.66233  0.80957  0.85207  Biso   1.000  C
  C435     1.0000 0.67083  0.80137  0.95537  Biso   1.000  C
  H345     1.0000 0.68363  0.82747  0.00447  Biso   1.000  H
  C436     1.0000 0.66113  0.75667  0.98837  Biso   1.000  C
  H346     1.0000 0.66703  0.75257  0.06037  Biso   1.000  H
  C437     1.0000 0.44873  0.53797  0.18817  Biso   1.000  C
  H347     1.0000 0.46703  0.54257  0.12557  Biso   1.000  H
  C438     1.0000 0.39943  0.50437  0.18937  Biso   1.000  C
  C439     1.0000 0.37253  0.49767  0.28097  Biso   1.000  C
  H348     1.0000 0.33883  0.47477  0.28187  Biso   1.000  H
  C440     1.0000 0.39503  0.52447  0.37137  Biso   1.000  C
  H349     1.0000 0.37663  0.51987  0.43397  Biso   1.000  H
  C441     1.0000 0.44433  0.55797  0.37007  Biso   1.000  C
  H350     1.0000 0.45973  0.57637  0.43187  Biso   1.000  H
  C442     1.0000 0.47123  0.56477  0.27847  Biso   1.000  C
  O113     1.0000 0.37713  0.47847  0.10397  Biso   1.000  O
  H351     1.0000 0.39763  0.47787  0.06307  Biso   1.000  H
  C443     1.0000 0.52423  0.59397  0.28157  Biso   1.000  C
  H352     1.0000 0.53793  0.60327  0.35027  Biso   1.000  H
  C444     1.0000 0.38943  0.46617  0.83627  Biso   1.000  C
  H353     1.0000 0.40373  0.45287  0.88077  Biso   1.000  H
  C445     1.0000 0.34283  0.43677  0.79697  Biso   1.000  C
  H354     1.0000 0.32543  0.40337  0.81467  Biso   1.000  H
  C446     1.0000 0.32183  0.45637  0.73177  Biso   1.000  C
  H355     1.0000 0.29003  0.43627  0.70497  Biso   1.000  H
  C447     1.0000 0.34733  0.50527  0.70597  Biso   1.000  C
  C448     1.0000 0.39383  0.53467  0.74527  Biso   1.000  C
  H356     1.0000 0.41123  0.56817  0.72757  Biso   1.000  H
  C449     1.0000 0.41483  0.51517  0.81037  Biso   1.000  C
  O114     1.0000 0.32623  0.52397  0.64517  Biso   1.000  O
  H357     1.0000 0.31743  0.53977  0.68307  Biso   1.000  H
  C450     1.0000 0.46605  0.54927  0.85047  Biso   1.000  C
  H358     1.0000 0.47933  0.58307  0.83947  Biso   1.000  H
  C451     1.0000 0.49333  0.53437  0.90017  Biso   1.000  C
  H359     1.0000 0.48103  0.50087  0.91337  Biso   1.000  H
  C452     1.0000 0.54203  0.56977  0.93367  Biso   1.000  C
  O115     1.0000 0.56033  0.61397  0.91477  Biso   1.000  O
  O116     1.0000 0.56543  0.55347  0.97977  Biso   1.000  O
  C453     1.0000 0.44213  0.55927  0.35777  Biso   1.000  C
  H360     1.0000 0.45583  0.57847  0.41947  Biso   1.000  H
  C454     1.0000 0.39263  0.52677  0.35277  Biso   1.000  C
  C455     1.0000 0.37273  0.49867  0.26257  Biso   1.000  C
  H361     1.0000 0.33883  0.47647  0.25907  Biso   1.000  H
  C456     1.0000 0.40233  0.50317  0.17737  Biso   1.000  C
  H362     1.0000 0.38873  0.48397  0.11567  Biso   1.000  H
  C457     1.0000 0.45183  0.53567  0.18237  Biso   1.000  C
  H363     1.0000 0.47203  0.53877  0.12417  Biso   1.000  H
  C458     1.0000 0.47173  0.56377  0.27257  Biso   1.000  C
  O117     1.0000 0.36573  0.51387  0.44067  Biso   1.000  O
  H364     1.0000 0.38333  0.51767  0.49337  Biso   1.000  H
  C459     1.0000 0.52253  0.60267  0.27357  Biso   1.000  C
  H365     1.0000 0.53243  0.62517  0.33047  Biso   1.000  H
  C460     1.0000 0.38403  0.47319  0.82037  Biso   1.000  C
  H366     1.0000 0.39813  0.46387  0.87527  Biso   1.000  H
  C461     1.0000 0.33902  0.43977  0.77937  Biso   1.000  C
  H367     1.0000 0.32233  0.40757  0.80627  Biso   1.000  H
  C462     1.0000 0.31843  0.45337  0.69897  Biso   1.000  C
  H368     1.0000 0.28763  0.43047  0.67087  Biso   1.000  H
  C463     1.0000 0.34286  0.50037  0.65957  Biso   1.000  C
  C464     1.0000 0.38787  0.53387  0.70057  Biso   1.000  C
  H369     1.0000 0.40453  0.56597  0.67367  Biso   1.000  H
  C465     1.0000 0.40846  0.52027  0.78097  Biso   1.000  C
  O118     1.0000 0.32070  0.51407  0.58937  Biso   1.000  O
  H370     1.0000 0.34053  0.54167  0.56577  Biso   1.000  H
  C466     1.0000 0.45793  0.55871  0.82197  Biso   1.000  C
  H371     1.0000 0.46873  0.59147  0.80377  Biso   1.000  H
  C467     1.0000 0.48738  0.54992  0.88167  Biso   1.000  C
  H372     1.0000 0.47763  0.51797  0.90487  Biso   1.000  H
  C468     1.0000 0.53458  0.59029  0.91007  Biso   1.000  C
  O119     1.0000 0.54568  0.63321  0.89177  Biso   1.000  O
  O120     1.0000 0.56276  0.58032  0.95697  Biso   1.000  O
  N12      1.0000 0.64381  0.71824  0.92387  Biso   1.000  N
  Zn13     1.0000 0.01641  0.30718  0.31190  Biso   1.000  Zn
  O121     1.0000 0.00249  0.30260  0.46570  Biso   1.000  O
  O122     1.0000 0.00848  0.30014  0.63860  Biso   1.000  O
  C469     1.0000 0.05720  0.28016  0.53430  Biso   1.000  C
  H373     1.0000 0.07030  0.28200  0.46580  Biso   1.000  H
  C470     1.0000 0.02110  0.29530  0.54710  Biso   1.000  C
  C471     1.0000 0.94180  0.24380  0.15630  Biso   1.000  C
  H374     1.0000 0.96850  0.25810  0.10900  Biso   1.000  H
  C472     1.0000 0.89780  0.20840  0.11880  Biso   1.000  C
  H375     1.0000 0.89480  0.19870  0.04680  Biso   1.000  H
  C473     1.0000 0.85710  0.18610  0.18540  Biso   1.000  C
  C474     1.0000 0.86530  0.20280  0.28870  Biso   1.000  C
  H376     1.0000 0.83920  0.18950  0.33780  Biso   1.000  H
  C475     1.0000 0.91000  0.23780  0.32170  Biso   1.000  C
  H377     1.0000 0.91410  0.24780  0.39370  Biso   1.000  H
  C476     1.0000 0.12870  0.24410  0.52150  Biso   1.000  C
  H378     1.0000 0.12410  0.25780  0.45890  Biso   1.000  H
  C477     1.0000 0.16230  0.22840  0.52270  Biso   1.000  C
  C478     1.0000 0.16900  0.20820  0.61430  Biso   1.000  C
  H379     1.0000 0.19190  0.19740  0.61520  Biso   1.000  H
  C479     1.0000 0.14220  0.20390  0.70470  Biso   1.000  C
  H380     1.0000 0.14680  0.19010  0.76730  Biso   1.000  H
  C480     1.0000 0.10870  0.21970  0.70340  Biso   1.000  C
  H381     1.0000 0.09030  0.21670  0.76520  Biso   1.000  H
  C481     1.0000 0.10190  0.23980  0.61180  Biso   1.000  C
  O123     1.0000 0.18820  0.23200  0.43730  Biso   1.000  O
  H382     1.0000 0.18880  0.25310  0.39640  Biso   1.000  H
  C482     1.0000 0.07270  0.26360  0.61490  Biso   1.000  C
  H383     1.0000 0.06340  0.26800  0.68360  Biso   1.000  H
  C483     1.0000 0.20050  0.25660  0.16960  Biso   1.000  C
  H384     1.0000 0.21380  0.28420  0.21410  Biso   1.000  H
  C484     1.0000 0.22990  0.23940  0.13030  Biso   1.000  C
  H385     1.0000 0.26330  0.25540  0.14800  Biso   1.000  H
  C485     1.0000 0.21030  0.19880  0.06510  Biso   1.000  C
  H386     1.0000 0.23040  0.18710  0.03830  Biso   1.000  H
  C486     1.0000 0.16140  0.17540  0.03930  Biso   1.000  C
  C487     1.0000 0.13200  0.19250  0.07860  Biso   1.000  C
  H387     1.0000 0.09850  0.17640  0.06090  Biso   1.000  H
  C488     1.0000 0.15150  0.23300  0.14370  Biso   1.000  C
  O124     1.0000 0.14270  0.13560  0.97850  Biso   1.000  O
  H388     1.0000 0.12690  0.11100  0.01640  Biso   1.000  H
  C489     1.0000 0.11740  0.25012  0.18380  Biso   1.000  C
  H389     1.0000 0.08360  0.22960  0.17280  Biso   1.000  H
  C490     1.0000 0.13230  0.29230  0.23350  Biso   1.000  C
  H390     1.0000 0.16580  0.31350  0.24670  Biso   1.000  H
  C491     1.0000 0.09690  0.30560  0.26700  Biso   1.000  C
  O125     1.0000 0.05270  0.27970  0.24810  Biso   1.000  O
  O126     1.0000 0.11320  0.34530  0.31310  Biso   1.000  O
  C492     1.0000 0.10740  0.21620  0.69110  Biso   1.000  C
  H391     1.0000 0.08820  0.21070  0.75280  Biso   1.000  H
  C493     1.0000 0.13990  0.19920  0.68610  Biso   1.000  C
  C494     1.0000 0.16800  0.20740  0.59590  Biso   1.000  C
  H392     1.0000 0.19020  0.19570  0.59240  Biso   1.000  H
  C495     1.0000 0.16350  0.23250  0.51070  Biso   1.000  C
  H393     1.0000 0.18270  0.23810  0.44900  Biso   1.000  H
  C496     1.0000 0.13100  0.24950  0.51570  Biso   1.000  C
  H394     1.0000 0.12790  0.26660  0.45750  Biso   1.000  H
  C497     1.0000 0.10290  0.24130  0.60590  Biso   1.000  C
  O127     1.0000 0.15280  0.18520  0.77400  Biso   1.000  O
  H395     1.0000 0.14900  0.19900  0.82670  Biso   1.000  H
  C498     1.0000 0.06400  0.25320  0.60690  Biso   1.000  C
  H396     1.0000 0.04150  0.24060  0.66380  Biso   1.000  H
  C499     1.0000 0.19348  0.24418  0.15370  Biso   1.000  C
  H397     1.0000 0.20280  0.26760  0.20860  Biso   1.000  H
  C500     1.0000 0.22690  0.23259  0.11270  Biso   1.000  C
  H398     1.0000 0.25910  0.24810  0.13960  Biso   1.000  H
  C501     1.0000 0.21330  0.19840  0.03230  Biso   1.000  C
  H399     1.0000 0.23620  0.19050  0.00420  Biso   1.000  H
  C502     1.0000 0.16630  0.17583  0.99290  Biso   1.000  C
  C503     1.0000 0.13280  0.18734  0.03390  Biso   1.000  C
  H400     1.0000 0.10070  0.17190  0.00700  Biso   1.000  H
  C504     1.0000 0.14640  0.22153  0.11430  Biso   1.000  C
  O128     1.0000 0.15260  0.13997  0.92270  Biso   1.000  O
  H401     1.0000 0.12500  0.13220  0.89910  Biso   1.000  H
  C505     1.0000 0.10796  0.23256  0.15530  Biso   1.000  C
  H402     1.0000 0.07520  0.21060  0.13710  Biso   1.000  H
  C506     1.0000 0.11675  0.27080  0.21500  Biso   1.000  C
  H403     1.0000 0.14870  0.29300  0.23820  Biso   1.000  H
  C507     1.0000 0.07638  0.27763  0.24340  Biso   1.000  C
  O129     1.0000 0.03346  0.24581  0.22510  Biso   1.000  O
  O130     1.0000 0.08635  0.31578  0.29030  Biso   1.000  O
  N13      1.0000 0.94843  0.25891  0.25720  Biso   1.000  N
  Zn14     1.0000 0.68308  0.64051  0.64523  Biso   1.000  Zn
  O131     1.0000 0.66916  0.63593  0.79903  Biso   1.000  O
  O132     1.0000 0.67515  0.63347  0.97193  Biso   1.000  O
  C508     1.0000 0.72387  0.61349  0.86763  Biso   1.000  C
  H404     1.0000 0.73697  0.61533  0.79913  Biso   1.000  H
  C509     1.0000 0.68777  0.62863  0.88043  Biso   1.000  C
  C510     1.0000 0.60847  0.57713  0.48963  Biso   1.000  C
  H405     1.0000 0.63517  0.59143  0.44233  Biso   1.000  H
  C511     1.0000 0.56447  0.54173  0.45213  Biso   1.000  C
  H406     1.0000 0.56147  0.53203  0.38013  Biso   1.000  H
  C512     1.0000 0.52377  0.51943  0.51873  Biso   1.000  C
  C513     1.0000 0.53197  0.53613  0.62203  Biso   1.000  C
  H407     1.0000 0.50587  0.52283  0.67113  Biso   1.000  H
  C514     1.0000 0.57667  0.57113  0.65503  Biso   1.000  C
  H408     1.0000 0.58077  0.58113  0.72703  Biso   1.000  H
  C515     1.0000 0.79537  0.57743  0.85483  Biso   1.000  C
  H409     1.0000 0.79077  0.59113  0.79223  Biso   1.000  H
  C516     1.0000 0.82897  0.56173  0.85603  Biso   1.000  C
  C517     1.0000 0.83567  0.54153  0.94763  Biso   1.000  C
  H410     1.0000 0.85857  0.53073  0.94853  Biso   1.000  H
  C518     1.0000 0.80887  0.53723  0.03803  Biso   1.000  C
  H411     1.0000 0.81347  0.52343  0.10063  Biso   1.000  H
  C519     1.0000 0.77537  0.55303  0.03673  Biso   1.000  C
  H412     1.0000 0.75697  0.55003  0.09853  Biso   1.000  H
  C520     1.0000 0.76857  0.57313  0.94513  Biso   1.000  C
  O133     1.0000 0.85487  0.56533  0.77063  Biso   1.000  O
  H413     1.0000 0.85547  0.58643  0.72973  Biso   1.000  H
  C521     1.0000 0.73937  0.59693  0.94823  Biso   1.000  C
  H414     1.0000 0.73007  0.60133  0.01693  Biso   1.000  H
  C522     1.0000 0.86717  0.58993  0.50293  Biso   1.000  C
  H415     1.0000 0.88047  0.61753  0.54743  Biso   1.000  H
  C523     1.0000 0.89657  0.57273  0.46363  Biso   1.000  C
  H416     1.0000 0.92997  0.58873  0.48133  Biso   1.000  H
  C524     1.0000 0.87697  0.53213  0.39843  Biso   1.000  C
  H417     1.0000 0.89707  0.52043  0.37163  Biso   1.000  H
  C525     1.0000 0.82807  0.50873  0.37263  Biso   1.000  C
  C526     1.0000 0.79867  0.52583  0.41193  Biso   1.000  C
  H418     1.0000 0.76517  0.50973  0.39423  Biso   1.000  H
  C527     1.0000 0.81817  0.56633  0.47703  Biso   1.000  C
  O134     1.0000 0.80937  0.46893  0.31183  Biso   1.000  O
  H419     1.0000 0.79357  0.44433  0.34973  Biso   1.000  H
  C528     1.0000 0.78407  0.58345  0.51713  Biso   1.000  C
  H420     1.0000 0.75027  0.56293  0.50613  Biso   1.000  H
  C529     1.0000 0.79897  0.62563  0.56683  Biso   1.000  C
  H421     1.0000 0.83247  0.64683  0.58003  Biso   1.000  H
  C530     1.0000 0.76357  0.63893  0.60033  Biso   1.000  C
  O135     1.0000 0.71937  0.61303  0.58143  Biso   1.000  O
  O136     1.0000 0.77987  0.67863  0.64643  Biso   1.000  O
  C531     1.0000 0.77407  0.54953  0.02443  Biso   1.000  C
  H422     1.0000 0.75487  0.54403  0.08613  Biso   1.000  H
  C532     1.0000 0.80657  0.53253  0.01943  Biso   1.000  C
  C533     1.0000 0.83467  0.54073  0.92923  Biso   1.000  C
  H423     1.0000 0.85687  0.52903  0.92573  Biso   1.000  H
  C534     1.0000 0.83017  0.56583  0.84403  Biso   1.000  C
  H424     1.0000 0.84937  0.57143  0.78233  Biso   1.000  H
  C535     1.0000 0.79767  0.58283  0.84903  Biso   1.000  C
  H425     1.0000 0.79457  0.59993  0.79083  Biso   1.000  H
  C536     1.0000 0.76957  0.57463  0.93923  Biso   1.000  C
  O137     1.0000 0.81947  0.51853  0.10733  Biso   1.000  O
  H426     1.0000 0.81567  0.53233  0.16003  Biso   1.000  H
  C537     1.0000 0.73067  0.58653  0.94023  Biso   1.000  C
  H427     1.0000 0.70817  0.57393  0.99713  Biso   1.000  H
  C538     1.0000 0.86015  0.57751  0.48703  Biso   1.000  C
  H428     1.0000 0.86947  0.60093  0.54193  Biso   1.000  H
  C539     1.0000 0.89357  0.56592  0.44603  Biso   1.000  C
  H429     1.0000 0.92577  0.58143  0.47293  Biso   1.000  H
  C540     1.0000 0.87997  0.53173  0.36563  Biso   1.000  C
  H430     1.0000 0.90287  0.52383  0.33753  Biso   1.000  H
  C541     1.0000 0.83297  0.50916  0.32623  Biso   1.000  C
  C542     1.0000 0.79947  0.52067  0.36723  Biso   1.000  C
  H431     1.0000 0.76737  0.50523  0.34033  Biso   1.000  H
  C543     1.0000 0.81307  0.55486  0.44763  Biso   1.000  C
  O138     1.0000 0.81927  0.47330  0.25603  Biso   1.000  O
  H432     1.0000 0.79167  0.46553  0.23243  Biso   1.000  H
  C544     1.0000 0.77463  0.56589  0.48863  Biso   1.000  C
  H433     1.0000 0.74187  0.54393  0.47043  Biso   1.000  H
  C545     1.0000 0.78342  0.60413  0.54833  Biso   1.000  C
  H434     1.0000 0.81537  0.62633  0.57153  Biso   1.000  H
  C546     1.0000 0.74305  0.61096  0.57673  Biso   1.000  C
  O139     1.0000 0.70013  0.57914  0.55843  Biso   1.000  O
  O140     1.0000 0.75302  0.64911  0.62363  Biso   1.000  O
  N14      1.0000 0.61510  0.59224  0.59053  Biso   1.000  N
  Zn15     1.0000 0.34974  0.97385  0.97857  Biso   1.000  Zn
  O141     1.0000 0.33582  0.96927  0.13237  Biso   1.000  O
  O142     1.0000 0.34181  0.96681  0.30527  Biso   1.000  O
  C547     1.0000 0.39053  0.94683  0.20097  Biso   1.000  C
  H435     1.0000 0.40363  0.94867  0.13247  Biso   1.000  H
  C548     1.0000 0.35443  0.96197  0.21377  Biso   1.000  C
  C549     1.0000 0.27513  0.91047  0.82297  Biso   1.000  C
  H436     1.0000 0.30183  0.92477  0.77567  Biso   1.000  H
  C550     1.0000 0.23113  0.87507  0.78547  Biso   1.000  C
  H437     1.0000 0.22813  0.86537  0.71347  Biso   1.000  H
  C551     1.0000 0.19043  0.85277  0.85207  Biso   1.000  C
  C552     1.0000 0.19863  0.86947  0.95537  Biso   1.000  C
  H438     1.0000 0.17253  0.85617  0.00447  Biso   1.000  H
  C553     1.0000 0.24333  0.90447  0.98837  Biso   1.000  C
  H439     1.0000 0.24743  0.91447  0.06037  Biso   1.000  H
  C554     1.0000 0.46203  0.91077  0.18817  Biso   1.000  C
  H440     1.0000 0.45743  0.92447  0.12557  Biso   1.000  H
  C555     1.0000 0.49563  0.89507  0.18937  Biso   1.000  C
  C556     1.0000 0.50233  0.87487  0.28097  Biso   1.000  C
  H441     1.0000 0.52523  0.86407  0.28187  Biso   1.000  H
  C557     1.0000 0.47553  0.87057  0.37137  Biso   1.000  C
  H442     1.0000 0.48013  0.85677  0.43397  Biso   1.000  H
  C558     1.0000 0.44203  0.88637  0.37007  Biso   1.000  C
  H443     1.0000 0.42363  0.88337  0.43187  Biso   1.000  H
  C559     1.0000 0.43523  0.90647  0.27847  Biso   1.000  C
  O143     1.0000 0.52153  0.89867  0.10397  Biso   1.000  O
  H444     1.0000 0.52213  0.91977  0.06307  Biso   1.000  H
  C560     1.0000 0.40603  0.93027  0.28157  Biso   1.000  C
  H445     1.0000 0.39673  0.93467  0.35027  Biso   1.000  H
  C561     1.0000 0.53383  0.92327  0.83627  Biso   1.000  C
  H446     1.0000 0.54713  0.95087  0.88077  Biso   1.000  H
  C562     1.0000 0.56323  0.90607  0.79697  Biso   1.000  C
  H447     1.0000 0.59663  0.92207  0.81467  Biso   1.000  H
  C563     1.0000 0.54363  0.86547  0.73177  Biso   1.000  C
  H448     1.0000 0.56373  0.85377  0.70497  Biso   1.000  H
  C564     1.0000 0.49473  0.84207  0.70597  Biso   1.000  C
  C565     1.0000 0.46533  0.85917  0.74527  Biso   1.000  C
  H449     1.0000 0.43183  0.84307  0.72757  Biso   1.000  H
  C566     1.0000 0.48483  0.89967  0.81037  Biso   1.000  C
  O144     1.0000 0.47603  0.80227  0.64517  Biso   1.000  O
  H450     1.0000 0.46023  0.77767  0.68307  Biso   1.000  H
  C567     1.0000 0.45073  0.91679  0.85047  Biso   1.000  C
  H451     1.0000 0.41693  0.89627  0.83947  Biso   1.000  H
  C568     1.0000 0.46563  0.95897  0.90017  Biso   1.000  C
  H452     1.0000 0.49913  0.98017  0.91337  Biso   1.000  H
  C569     1.0000 0.43023  0.97227  0.93367  Biso   1.000  C
  O145     1.0000 0.38603  0.94637  0.91477  Biso   1.000  O
  O146     1.0000 0.44653  0.01197  0.97977  Biso   1.000  O
  C570     1.0000 0.44073  0.88287  0.35777  Biso   1.000  C
  H453     1.0000 0.42153  0.87737  0.41947  Biso   1.000  H
  C571     1.0000 0.47323  0.86587  0.35277  Biso   1.000  C
  C572     1.0000 0.50133  0.87407  0.26257  Biso   1.000  C
  H454     1.0000 0.52353  0.86237  0.25907  Biso   1.000  H
  C573     1.0000 0.49683  0.89917  0.17737  Biso   1.000  C
  H455     1.0000 0.51603  0.90477  0.11567  Biso   1.000  H
  C574     1.0000 0.46433  0.91617  0.18237  Biso   1.000  C
  H456     1.0000 0.46123  0.93327  0.12417  Biso   1.000  H
  C575     1.0000 0.43623  0.90797  0.27257  Biso   1.000  C
  O147     1.0000 0.48613  0.85187  0.44067  Biso   1.000  O
  H457     1.0000 0.48233  0.86567  0.49337  Biso   1.000  H
  C576     1.0000 0.39733  0.91987  0.27357  Biso   1.000  C
  H458     1.0000 0.37483  0.90727  0.33047  Biso   1.000  H
  C577     1.0000 0.52681  0.91085  0.82037  Biso   1.000  C
  H459     1.0000 0.53613  0.93427  0.87527  Biso   1.000  H
  C578     1.0000 0.56023  0.89926  0.77937  Biso   1.000  C
  H460     1.0000 0.59243  0.91477  0.80627  Biso   1.000  H
  C579     1.0000 0.54663  0.86507  0.69897  Biso   1.000  C
  H461     1.0000 0.56953  0.85717  0.67087  Biso   1.000  H
  C580     1.0000 0.49963  0.84250  0.65957  Biso   1.000  C
  C581     1.0000 0.46613  0.85401  0.70057  Biso   1.000  C
  H462     1.0000 0.43403  0.83857  0.67367  Biso   1.000  H
  C582     1.0000 0.47973  0.88820  0.78097  Biso   1.000  C
  O148     1.0000 0.48593  0.80664  0.58937  Biso   1.000  O
  H463     1.0000 0.45833  0.79887  0.56577  Biso   1.000  H
  C583     1.0000 0.44129  0.89923  0.82197  Biso   1.000  C
  H464     1.0000 0.40853  0.87727  0.80377  Biso   1.000  H
  C584     1.0000 0.45008  0.93747  0.88167  Biso   1.000  C
  H465     1.0000 0.48203  0.95967  0.90487  Biso   1.000  H
  C585     1.0000 0.40971  0.94430  0.91007  Biso   1.000  C
  O149     1.0000 0.36679  0.91248  0.89177  Biso   1.000  O
  O150     1.0000 0.41968  0.98245  0.95697  Biso   1.000  O
  N15      1.0000 0.28176  0.92558  0.92387  Biso   1.000  N
  Zn16     1.0000 0.69282  0.70923  0.31190  Biso   1.000  Zn
  O151     1.0000 0.69740  0.69989  0.46570  Biso   1.000  O
  O152     1.0000 0.69986  0.70834  0.63860  Biso   1.000  O
  C586     1.0000 0.71984  0.77704  0.53430  Biso   1.000  C
  H466     1.0000 0.71800  0.78830  0.46580  Biso   1.000  H
  C587     1.0000 0.70470  0.72580  0.54710  Biso   1.000  C
  C588     1.0000 0.75620  0.69800  0.15630  Biso   1.000  C
  H467     1.0000 0.74190  0.71040  0.10900  Biso   1.000  H
  C589     1.0000 0.79160  0.68940  0.11880  Biso   1.000  C
  H468     1.0000 0.80130  0.69610  0.04680  Biso   1.000  H
  C590     1.0000 0.81390  0.67100  0.18540  Biso   1.000  C
  C591     1.0000 0.79720  0.66250  0.28870  Biso   1.000  C
  H469     1.0000 0.81050  0.64970  0.33780  Biso   1.000  H
  C592     1.0000 0.76220  0.67220  0.32170  Biso   1.000  C
  H470     1.0000 0.75220  0.66630  0.39370  Biso   1.000  H
  C593     1.0000 0.75590  0.88460  0.52150  Biso   1.000  C
  H471     1.0000 0.74220  0.86630  0.45890  Biso   1.000  H
  C594     1.0000 0.77160  0.93390  0.52270  Biso   1.000  C
  C595     1.0000 0.79180  0.96080  0.61430  Biso   1.000  C
  H472     1.0000 0.80260  0.99450  0.61520  Biso   1.000  H
  C596     1.0000 0.79610  0.93830  0.70470  Biso   1.000  C
  H473     1.0000 0.80990  0.95670  0.76730  Biso   1.000  H
  C597     1.0000 0.78030  0.88900  0.70340  Biso   1.000  C
  H474     1.0000 0.78330  0.87360  0.76520  Biso   1.000  H
  C598     1.0000 0.76020  0.86210  0.61180  Biso   1.000  C
  O153     1.0000 0.76800  0.95620  0.43730  Biso   1.000  O
  H475     1.0000 0.74690  0.93570  0.39640  Biso   1.000  H
  C599     1.0000 0.73640  0.80910  0.61490  Biso   1.000  C
  H476     1.0000 0.73200  0.79540  0.68360  Biso   1.000  H
  C600     1.0000 0.74340  0.94390  0.16960  Biso   1.000  C
  H477     1.0000 0.71580  0.92960  0.21410  Biso   1.000  H
  C601     1.0000 0.76060  0.99050  0.13030  Biso   1.000  C
  H478     1.0000 0.74460  0.00790  0.14800  Biso   1.000  H
  C602     1.0000 0.80120  0.01150  0.06510  Biso   1.000  C
  H479     1.0000 0.81290  0.04330  0.03830  Biso   1.000  H
  C603     1.0000 0.82460  0.98600  0.03930  Biso   1.000  C
  C604     1.0000 0.80750  0.93950  0.07860  Biso   1.000  C
  H480     1.0000 0.82360  0.92210  0.06090  Biso   1.000  H
  C605     1.0000 0.76700  0.91850  0.14370  Biso   1.000  C
  O154     1.0000 0.86440  0.00710  0.97850  Biso   1.000  O
  H481     1.0000 0.88900  0.01590  0.01640  Biso   1.000  H
  C606     1.0000 0.74988  0.86728  0.18380  Biso   1.000  C
  H482     1.0000 0.77040  0.85400  0.17280  Biso   1.000  H
  C607     1.0000 0.70770  0.84000  0.23350  Biso   1.000  C
  H483     1.0000 0.68650  0.85230  0.24670  Biso   1.000  H
  C608     1.0000 0.69440  0.79130  0.26700  Biso   1.000  C
  O155     1.0000 0.72030  0.77300  0.24810  Biso   1.000  O
  O156     1.0000 0.65470  0.76790  0.31310  Biso   1.000  O
  C609     1.0000 0.78380  0.89120  0.69110  Biso   1.000  C
  H484     1.0000 0.78930  0.87750  0.75280  Biso   1.000  H
  C610     1.0000 0.80080  0.94070  0.68610  Biso   1.000  C
  C611     1.0000 0.79260  0.96060  0.59590  Biso   1.000  C
  H485     1.0000 0.80430  0.99450  0.59240  Biso   1.000  H
  C612     1.0000 0.76750  0.93100  0.51070  Biso   1.000  C
  H486     1.0000 0.76190  0.94460  0.44900  Biso   1.000  H
  C613     1.0000 0.75050  0.88150  0.51570  Biso   1.000  C
  H487     1.0000 0.73340  0.86130  0.45750  Biso   1.000  H
  C614     1.0000 0.75870  0.86160  0.60590  Biso   1.000  C
  O157     1.0000 0.81480  0.96760  0.77400  Biso   1.000  O
  H488     1.0000 0.80100  0.95000  0.82670  Biso   1.000  H
  C615     1.0000 0.74680  0.81080  0.60690  Biso   1.000  C
  H489     1.0000 0.75940  0.80090  0.66380  Biso   1.000  H
  C616     1.0000 0.75582  0.94930  0.15370  Biso   1.000  C
  H490     1.0000 0.73240  0.93520  0.20860  Biso   1.000  H
  C617     1.0000 0.76741  0.99431  0.11270  Biso   1.000  C
  H491     1.0000 0.75190  0.01100  0.13960  Biso   1.000  H
  C618     1.0000 0.80160  0.01490  0.03230  Biso   1.000  C
  H492     1.0000 0.80950  0.04570  0.00420  Biso   1.000  H
  C619     1.0000 0.82417  0.99047  0.99290  Biso   1.000  C
  C620     1.0000 0.81266  0.94546  0.03390  Biso   1.000  C
  H493     1.0000 0.82810  0.92880  0.00700  Biso   1.000  H
  C621     1.0000 0.77847  0.92487  0.11430  Biso   1.000  C
  O158     1.0000 0.86003  0.01263  0.92270  Biso   1.000  O
  H494     1.0000 0.86780  0.99280  0.89910  Biso   1.000  H
  C622     1.0000 0.76744  0.87540  0.15530  Biso   1.000  C
  H495     1.0000 0.78940  0.86460  0.13710  Biso   1.000  H
  C623     1.0000 0.72920  0.84595  0.21500  Biso   1.000  C
  H496     1.0000 0.70700  0.85570  0.23820  Biso   1.000  H
  C624     1.0000 0.72237  0.79875  0.24340  Biso   1.000  C
  O159     1.0000 0.75419  0.78765  0.22510  Biso   1.000  O
  O160     1.0000 0.68422  0.77057  0.29030  Biso   1.000  O
  N16      1.0000 0.74109  0.68952  0.25720  Biso   1.000  N
  Zn17     1.0000 0.35949  0.04256  0.64523  Biso   1.000  Zn
  O161     1.0000 0.36407  0.03322  0.79903  Biso   1.000  O
  O162     1.0000 0.36653  0.04167  0.97193  Biso   1.000  O
  C625     1.0000 0.38651  0.11037  0.86763  Biso   1.000  C
  H497     1.0000 0.38467  0.12163  0.79913  Biso   1.000  H
  C626     1.0000 0.37137  0.05913  0.88043  Biso   1.000  C
  C627     1.0000 0.42287  0.03133  0.48963  Biso   1.000  C
  H498     1.0000 0.40857  0.04373  0.44233  Biso   1.000  H
  C628     1.0000 0.45827  0.02273  0.45213  Biso   1.000  C
  H499     1.0000 0.46797  0.02943  0.38013  Biso   1.000  H
  C629     1.0000 0.48057  0.00433  0.51873  Biso   1.000  C
  C630     1.0000 0.46387  0.99583  0.62203  Biso   1.000  C
  H500     1.0000 0.47717  0.98303  0.67113  Biso   1.000  H
  C631     1.0000 0.42887  0.00553  0.65503  Biso   1.000  C
  H501     1.0000 0.41887  0.99963  0.72703  Biso   1.000  H
  C632     1.0000 0.42257  0.21793  0.85483  Biso   1.000  C
  H502     1.0000 0.40887  0.19963  0.79223  Biso   1.000  H
  C633     1.0000 0.43827  0.26723  0.85603  Biso   1.000  C
  C634     1.0000 0.45847  0.29413  0.94763  Biso   1.000  C
  H503     1.0000 0.46927  0.32783  0.94853  Biso   1.000  H
  C635     1.0000 0.46277  0.27163  0.03803  Biso   1.000  C
  H504     1.0000 0.47657  0.29003  0.10063  Biso   1.000  H
  C636     1.0000 0.44697  0.22233  0.03673  Biso   1.000  C
  H505     1.0000 0.44997  0.20693  0.09853  Biso   1.000  H
  C637     1.0000 0.42687  0.19543  0.94513  Biso   1.000  C
  O163     1.0000 0.43467  0.28953  0.77063  Biso   1.000  O
  H506     1.0000 0.41357  0.26903  0.72973  Biso   1.000  H
  C638     1.0000 0.40307  0.14243  0.94823  Biso   1.000  C
  H507     1.0000 0.39867  0.12873  0.01693  Biso   1.000  H
  C639     1.0000 0.41007  0.27723  0.50293  Biso   1.000  C
  H508     1.0000 0.38247  0.26293  0.54743  Biso   1.000  H
  C640     1.0000 0.42727  0.32383  0.46363  Biso   1.000  C
  H509     1.0000 0.41127  0.34123  0.48133  Biso   1.000  H
  C641     1.0000 0.46787  0.34483  0.39843  Biso   1.000  C
  H510     1.0000 0.47957  0.37663  0.37163  Biso   1.000  H
  C642     1.0000 0.49127  0.31933  0.37263  Biso   1.000  C
  C643     1.0000 0.47417  0.27283  0.41193  Biso   1.000  C
  H511     1.0000 0.49027  0.25543  0.39423  Biso   1.000  H
  C644     1.0000 0.43367  0.25183  0.47703  Biso   1.000  C
  O164     1.0000 0.53107  0.34043  0.31183  Biso   1.000  O
  H512     1.0000 0.55567  0.34923  0.34973  Biso   1.000  H
  C645     1.0000 0.41655  0.20061  0.51713  Biso   1.000  C
  H513     1.0000 0.43707  0.18733  0.50613  Biso   1.000  H
  C646     1.0000 0.37437  0.17333  0.56683  Biso   1.000  C
  H514     1.0000 0.35317  0.18563  0.58003  Biso   1.000  H
  C647     1.0000 0.36107  0.12463  0.60033  Biso   1.000  C
  O165     1.0000 0.38697  0.10633  0.58143  Biso   1.000  O
  O166     1.0000 0.32137  0.10123  0.64643  Biso   1.000  O
  C648     1.0000 0.45047  0.22453  0.02443  Biso   1.000  C
  H515     1.0000 0.45597  0.21083  0.08613  Biso   1.000  H
  C649     1.0000 0.46747  0.27403  0.01943  Biso   1.000  C
  C650     1.0000 0.45927  0.29393  0.92923  Biso   1.000  C
  H516     1.0000 0.47097  0.32783  0.92573  Biso   1.000  H
  C651     1.0000 0.43417  0.26433  0.84403  Biso   1.000  C
  H517     1.0000 0.42857  0.27793  0.78233  Biso   1.000  H
  C652     1.0000 0.41717  0.21483  0.84903  Biso   1.000  C
  H518     1.0000 0.40007  0.19463  0.79083  Biso   1.000  H
  C653     1.0000 0.42537  0.19493  0.93923  Biso   1.000  C
  O167     1.0000 0.48147  0.30093  0.10733  Biso   1.000  O
  H519     1.0000 0.46767  0.28333  0.16003  Biso   1.000  H
  C654     1.0000 0.41347  0.14413  0.94023  Biso   1.000  C
  H520     1.0000 0.42607  0.13423  0.99713  Biso   1.000  H
  C655     1.0000 0.42249  0.28263  0.48703  Biso   1.000  C
  H521     1.0000 0.39907  0.26853  0.54193  Biso   1.000  H
  C656     1.0000 0.43408  0.32764  0.44603  Biso   1.000  C
  H522     1.0000 0.41857  0.34433  0.47293  Biso   1.000  H
  C657     1.0000 0.46827  0.34823  0.36563  Biso   1.000  C
  H523     1.0000 0.47617  0.37903  0.33753  Biso   1.000  H
  C658     1.0000 0.49084  0.32380  0.32623  Biso   1.000  C
  C659     1.0000 0.47933  0.27879  0.36723  Biso   1.000  C
  H524     1.0000 0.49477  0.26213  0.34033  Biso   1.000  H
  C660     1.0000 0.44514  0.25820  0.44763  Biso   1.000  C
  O168     1.0000 0.52670  0.34596  0.25603  Biso   1.000  O
  H525     1.0000 0.53447  0.32613  0.23243  Biso   1.000  H
  C661     1.0000 0.43411  0.20873  0.48863  Biso   1.000  C
  H526     1.0000 0.45607  0.19793  0.47043  Biso   1.000  H
  C662     1.0000 0.39587  0.17928  0.54833  Biso   1.000  C
  H527     1.0000 0.37367  0.18903  0.57153  Biso   1.000  H
  C663     1.0000 0.38904  0.13208  0.57673  Biso   1.000  C
  O169     1.0000 0.42086  0.12098  0.55843  Biso   1.000  O
  O170     1.0000 0.35089  0.10390  0.62363  Biso   1.000  O
  N17      1.0000 0.40776  0.02285  0.59053  Biso   1.000  N
  Zn18     1.0000 0.02615  0.37590  0.97857  Biso   1.000  Zn
  O171     1.0000 0.03073  0.36656  0.13237  Biso   1.000  O
  O172     1.0000 0.03319  0.37501  0.30527  Biso   1.000  O
  C664     1.0000 0.05317  0.44371  0.20097  Biso   1.000  C
  H528     1.0000 0.05133  0.45497  0.13247  Biso   1.000  H
  C665     1.0000 0.03803  0.39247  0.21377  Biso   1.000  C
  C666     1.0000 0.08953  0.36467  0.82297  Biso   1.000  C
  H529     1.0000 0.07523  0.37707  0.77567  Biso   1.000  H
  C667     1.0000 0.12493  0.35607  0.78547  Biso   1.000  C
  H530     1.0000 0.13463  0.36277  0.71347  Biso   1.000  H
  C668     1.0000 0.14723  0.33767  0.85207  Biso   1.000  C
  C669     1.0000 0.13053  0.32917  0.95537  Biso   1.000  C
  H531     1.0000 0.14383  0.31637  0.00447  Biso   1.000  H
  C670     1.0000 0.09553  0.33887  0.98837  Biso   1.000  C
  H532     1.0000 0.08553  0.33297  0.06037  Biso   1.000  H
  C671     1.0000 0.08923  0.55127  0.18817  Biso   1.000  C
  H533     1.0000 0.07553  0.53297  0.12557  Biso   1.000  H
  C672     1.0000 0.10493  0.60057  0.18937  Biso   1.000  C
  C673     1.0000 0.12513  0.62747  0.28097  Biso   1.000  C
  H534     1.0000 0.13593  0.66117  0.28187  Biso   1.000  H
  C674     1.0000 0.12943  0.60497  0.37137  Biso   1.000  C
  H535     1.0000 0.14323  0.62337  0.43397  Biso   1.000  H
  C675     1.0000 0.11363  0.55567  0.37007  Biso   1.000  C
  H536     1.0000 0.11663  0.54027  0.43187  Biso   1.000  H
  C676     1.0000 0.09353  0.52877  0.27847  Biso   1.000  C
  O173     1.0000 0.10133  0.62287  0.10397  Biso   1.000  O
  H537     1.0000 0.08023  0.60237  0.06307  Biso   1.000  H
  C677     1.0000 0.06973  0.47577  0.28157  Biso   1.000  C
  H538     1.0000 0.06533  0.46207  0.35027  Biso   1.000  H
  C678     1.0000 0.07673  0.61057  0.83627  Biso   1.000  C
  H539     1.0000 0.04913  0.59627  0.88077  Biso   1.000  H
  C679     1.0000 0.09393  0.65717  0.79697  Biso   1.000  C
  H540     1.0000 0.07793  0.67457  0.81467  Biso   1.000  H
  C680     1.0000 0.13453  0.67817  0.73177  Biso   1.000  C
  H541     1.0000 0.14623  0.70997  0.70497  Biso   1.000  H
  C681     1.0000 0.15793  0.65267  0.70597  Biso   1.000  C
  C682     1.0000 0.14083  0.60617  0.74527  Biso   1.000  C
  H542     1.0000 0.15693  0.58877  0.72757  Biso   1.000  H
  C683     1.0000 0.10033  0.58517  0.81037  Biso   1.000  C
  O174     1.0000 0.19773  0.67377  0.64517  Biso   1.000  O
  H543     1.0000 0.22233  0.68257  0.68307  Biso   1.000  H
  C684     1.0000 0.08321  0.53395  0.85047  Biso   1.000  C
  H544     1.0000 0.10373  0.52067  0.83947  Biso   1.000  H
  C685     1.0000 0.04103  0.50667  0.90017  Biso   1.000  C
  H545     1.0000 0.01983  0.51897  0.91337  Biso   1.000  H
  C686     1.0000 0.02773  0.45797  0.93367  Biso   1.000  C
  O175     1.0000 0.05363  0.43967  0.91477  Biso   1.000  O
  O176     1.0000 0.98803  0.43457  0.97977  Biso   1.000  O
  C687     1.0000 0.11713  0.55787  0.35777  Biso   1.000  C
  H546     1.0000 0.12263  0.54417  0.41947  Biso   1.000  H
  C688     1.0000 0.13413  0.60737  0.35277  Biso   1.000  C
  C689     1.0000 0.12593  0.62727  0.26257  Biso   1.000  C
  H547     1.0000 0.13763  0.66117  0.25907  Biso   1.000  H
  C690     1.0000 0.10083  0.59767  0.17737  Biso   1.000  C
  H548     1.0000 0.09523  0.61127  0.11567  Biso   1.000  H
  C691     1.0000 0.08383  0.54817  0.18237  Biso   1.000  C
  H549     1.0000 0.06673  0.52797  0.12417  Biso   1.000  H
  C692     1.0000 0.09203  0.52827  0.27257  Biso   1.000  C
  O177     1.0000 0.14813  0.63427  0.44067  Biso   1.000  O
  H550     1.0000 0.13433  0.61667  0.49337  Biso   1.000  H
  C693     1.0000 0.08013  0.47747  0.27357  Biso   1.000  C
  H551     1.0000 0.09273  0.46757  0.33047  Biso   1.000  H
  C694     1.0000 0.08915  0.61597  0.82037  Biso   1.000  C
  H552     1.0000 0.06573  0.60187  0.87527  Biso   1.000  H
  C695     1.0000 0.10074  0.66098  0.77937  Biso   1.000  C
  H553     1.0000 0.08523  0.67767  0.80627  Biso   1.000  H
  C696     1.0000 0.13493  0.68157  0.69897  Biso   1.000  C
  H554     1.0000 0.14283  0.71237  0.67087  Biso   1.000  H
  C697     1.0000 0.15750  0.65714  0.65957  Biso   1.000  C
  C698     1.0000 0.14599  0.61213  0.70057  Biso   1.000  C
  H555     1.0000 0.16143  0.59547  0.67367  Biso   1.000  H
  C699     1.0000 0.11180  0.59154  0.78097  Biso   1.000  C
  O178     1.0000 0.19336  0.67930  0.58937  Biso   1.000  O
  H556     1.0000 0.20113  0.65947  0.56577  Biso   1.000  H
  C700     1.0000 0.10077  0.54207  0.82197  Biso   1.000  C
  H557     1.0000 0.12273  0.53127  0.80377  Biso   1.000  H
  C701     1.0000 0.06253  0.51262  0.88167  Biso   1.000  C
  H558     1.0000 0.04033  0.52237  0.90487  Biso   1.000  H
  C702     1.0000 0.05570  0.46542  0.91007  Biso   1.000  C
  O179     1.0000 0.08752  0.45432  0.89177  Biso   1.000  O
  O180     1.0000 0.01755  0.43724  0.95697  Biso   1.000  O
  N18      1.0000 0.07442  0.35619  0.92387  Biso   1.000  N
