data_image0
_cell_length_a       28.937
_cell_length_b       28.937
_cell_length_c       10.6939
_cell_angle_alpha    90
_cell_angle_beta     90
_cell_angle_gamma    120

_symmetry_space_group_name_H-M    "P 1"
_symmetry_int_tables_number       1

loop_
  _symmetry_equiv_pos_as_xyz
  'x, y, z'

loop_
  _atom_site_label
  _atom_site_occupancy
  _atom_site_fract_x
  _atom_site_fract_y
  _atom_site_fract_z
  _atom_site_thermal_displace_type
  _atom_site_B_iso_or_equiv
  _atom_site_type_symbol
  C1       1.0000 0.01513  0.30267  0.17430  Biso   1.000  C
  C2       1.0000 0.05019  0.35782  0.16340  Biso   1.000  C
  H1       1.0000 0.08690  0.37160  0.15990  Biso   1.000  H
  C3       1.0000 0.02970  0.39062  0.16050  Biso   1.000  C
  C4       1.0000 0.97408  0.36974  0.16820  Biso   1.000  C
  H2       1.0000 0.96000  0.39240  0.16560  Biso   1.000  H
  C5       1.0000 0.94165  0.31551  0.17720  Biso   1.000  C
  C6       1.0000 0.95972  0.28117  0.18380  Biso   1.000  C
  H3       1.0000 0.93690  0.24460  0.19250  Biso   1.000  H
  C7       1.0000 0.08590  0.28422  0.16510  Biso   1.000  C
  H4       1.0000 0.10550  0.30550  0.23700  Biso   1.000  H
  H5       1.0000 0.09850  0.30680  0.09150  Biso   1.000  H
  C8       1.0000 0.09653  0.23928  0.14770  Biso   1.000  C
  C9       1.0000 0.04998  0.48011  0.16700  Biso   1.000  C
  H6       1.0000 0.03440  0.47660  0.24930  Biso   1.000  H
  H7       1.0000 0.02330  0.47440  0.10460  Biso   1.000  H
  C10      1.0000 0.09853  0.53522  0.15240  Biso   1.000  C
  C11      1.0000 0.85061  0.24395  0.19580  Biso   1.000  C
  H8       1.0000 0.85360  0.23180  0.27840  Biso   1.000  H
  H9       1.0000 0.85810  0.22410  0.13380  Biso   1.000  H
  C12      1.0000 0.79658  0.23599  0.17530  Biso   1.000  C
  C13      1.0000 0.65442  0.03927  0.18160  Biso   1.000  C
  C14      1.0000 0.61848  0.98505  0.17850  Biso   1.000  C
  H10      1.0000 0.58200  0.97200  0.18470  Biso   1.000  H
  C15      1.0000 0.63981  0.95042  0.16240  Biso   1.000  C
  C16      1.0000 0.69476  0.97124  0.16410  Biso   1.000  C
  H11      1.0000 0.70860  0.94840  0.15940  Biso   1.000  H
  C17      1.0000 0.72812  0.02499  0.16900  Biso   1.000  C
  C18      1.0000 0.70936  0.05956  0.17920  Biso   1.000  C
  H12      1.0000 0.73230  0.09620  0.18570  Biso   1.000  H
  C19      1.0000 0.58119  0.05721  0.18600  Biso   1.000  C
  H13      1.0000 0.56430  0.03820  0.26250  Biso   1.000  H
  H14      1.0000 0.56530  0.03270  0.11640  Biso   1.000  H
  C20      1.0000 0.57238  0.10308  0.16990  Biso   1.000  C
  C21      1.0000 0.62060  0.86197  0.15750  Biso   1.000  C
  H15      1.0000 0.64040  0.86450  0.23280  Biso   1.000  H
  H16      1.0000 0.64410  0.86970  0.08630  Biso   1.000  H
  C22      1.0000 0.57561  0.80730  0.14530  Biso   1.000  C
  C23      1.0000 0.81812  0.09593  0.18520  Biso   1.000  C
  H17      1.0000 0.81380  0.10520  0.26990  Biso   1.000  H
  H18      1.0000 0.81240  0.11840  0.12740  Biso   1.000  H
  C24      1.0000 0.87433  0.10296  0.16470  Biso   1.000  C
  C25      1.0000 0.01634  0.14541  0.42420  Biso   1.000  C
  H19      1.0000 0.03780  0.13760  0.37410  Biso   1.000  H
  C26      1.0000 0.01588  0.13811  0.54960  Biso   1.000  C
  H20      1.0000 0.03670  0.12540  0.58560  Biso   1.000  H
  C27      1.0000 0.98404  0.14869  0.62640  Biso   1.000  C
  H21      1.0000 0.98330  0.14380  0.71250  Biso   1.000  H
  C28      1.0000 0.95266  0.16820  0.57210  Biso   1.000  C
  H22      1.0000 0.93120  0.17600  0.62220  Biso   1.000  H
  C29      1.0000 0.95354  0.17632  0.44490  Biso   1.000  C
  H23      1.0000 0.93270  0.18920  0.40880  Biso   1.000  H
  C30      1.0000 0.20000  0.68160  0.41460  Biso   1.000  C
  H24      1.0000 0.22950  0.70400  0.36610  Biso   1.000  H
  C31      1.0000 0.20220  0.67830  0.53780  Biso   1.000  C
  H25      1.0000 0.23510  0.69990  0.57570  Biso   1.000  H
  C32      1.0000 0.16420  0.64890  0.61930  Biso   1.000  C
  C33      1.0000 0.11710  0.61650  0.56320  Biso   1.000  C
  H26      1.0000 0.08760  0.59410  0.61160  Biso   1.000  H
  C34      1.0000 0.10400  0.61930  0.43370  Biso   1.000  C
  H27      1.0000 0.07110  0.59770  0.39580  Biso   1.000  H
  C35      1.0000 0.19270  0.53830  0.56880  Biso   1.000  C
  H28      1.0000 0.20260  0.56970  0.61260  Biso   1.000  H
  C36      1.0000 0.19680  0.54750  0.42500  Biso   1.000  C
  H29      1.0000 0.20680  0.57900  0.38180  Biso   1.000  H
  C37      1.0000 0.17790  0.49500  0.36170  Biso   1.000  C
  C38      1.0000 0.16910  0.44960  0.41160  Biso   1.000  C
  H30      1.0000 0.15920  0.41820  0.36780  Biso   1.000  H
  C39      1.0000 0.16990  0.45270  0.55340  Biso   1.000  C
  H31      1.0000 0.16000  0.42130  0.59660  Biso   1.000  H
  N1       1.0000 0.98633  0.16410  0.36870  Biso   1.000  N
  N2       1.0000 0.15380  0.64880  0.36500  Biso   1.000  N
  N3       1.0000 0.17960  0.49600  0.61960  Biso   1.000  N
  O1       1.0000 0.05891  0.19242  0.16830  Biso   1.000  O
  O2       1.0000 0.14312  0.24976  0.12480  Biso   1.000  O
  O3       1.0000 0.03154  0.26547  0.18210  Biso   1.000  O
  O4       1.0000 0.08864  0.57470  0.17440  Biso   1.000  O
  O5       1.0000 0.14252  0.54276  0.13190  Biso   1.000  O
  O6       1.0000 0.06657  0.44360  0.15190  Biso   1.000  O
  O7       1.0000 0.75940  0.18716  0.19500  Biso   1.000  O
  O8       1.0000 0.78796  0.27185  0.14999  Biso   1.000  O
  O9       1.0000 0.88739  0.29977  0.18160  Biso   1.000  O
  O10      1.0000 0.60900  0.14906  0.16770  Biso   1.000  O
  O11      1.0000 0.52404  0.08786  0.14870  Biso   1.000  O
  O12      1.0000 0.63671  0.07518  0.18990  Biso   1.000  O
  O13      1.0000 0.52760  0.79876  0.15410  Biso   1.000  O
  O14      1.0000 0.58209  0.77022  0.12970  Biso   1.000  O
  O15      1.0000 0.60295  0.89933  0.16222  Biso   1.000  O
  O16      1.0000 0.90942  0.15072  0.19170  Biso   1.000  O
  O17      1.0000 0.87969  0.06752  0.13520  Biso   1.000  O
  O18      1.0000 0.78261  0.04270  0.16060  Biso   1.000  O
  Cu1      1.0000 0.98394  0.16773  0.18235  Biso   1.000  Cu
  Cu2      1.0000 0.14707  0.65046  0.17633  Biso   1.000  Cu
  Cu3      1.0000 0.16294  0.47808  0.16651  Biso   1.000  Cu
  Cu4      1.0000 0.68437  0.17100  0.19115  Biso   1.000  Cu
  Cu5      1.0000 0.84344  0.35373  0.20434  Biso   1.000  Cu
  O19      1.0000 0.15077  0.64505  0.99170  Biso   1.000  O
  O20      1.0000 0.17600  0.48686  0.98950  Biso   1.000  O
  H32      1.0000 0.16770  0.64810  0.70850  Biso   1.000  H
  H33      1.0000 0.68290  0.17800  0.72810  Biso   1.000  H
  C40      1.0000 0.20600  0.68480  0.42240  Biso   1.000  C
  H34      1.0000 0.23550  0.70730  0.37390  Biso   1.000  H
  C41      1.0000 0.21430  0.68570  0.54890  Biso   1.000  C
  H35      1.0000 0.24720  0.70730  0.58670  Biso   1.000  H
  C42      1.0000 0.15500  0.65400  0.35600  Biso   1.000  C
  H36      1.0000 0.15160  0.65510  0.26730  Biso   1.000  H
  C43      1.0000 0.11600  0.61740  0.56070  Biso   1.000  C
  H37      1.0000 0.08660  0.59490  0.60920  Biso   1.000  H
  C44      1.0000 0.11690  0.61970  0.42940  Biso   1.000  C
  H38      1.0000 0.08400  0.59810  0.39160  Biso   1.000  H
  C45      1.0000 0.64850  0.19410  0.45420  Biso   1.000  C
  H39      1.0000 0.62710  0.20410  0.41070  Biso   1.000  H
  C46      1.0000 0.65220  0.19170  0.57360  Biso   1.000  C
  H40      1.0000 0.63080  0.20160  0.61710  Biso   1.000  H
  C47      1.0000 0.68320  0.18040  0.37500  Biso   1.000  C
  H41      1.0000 0.68320  0.18030  0.28540  Biso   1.000  H
  C48      1.0000 0.71230  0.15910  0.56520  Biso   1.000  C
  H42      1.0000 0.73380  0.14920  0.60860  Biso   1.000  H
  C49      1.0000 0.71340  0.15780  0.44250  Biso   1.000  C
  H43      1.0000 0.73480  0.14780  0.39900  Biso   1.000  H
  N4       1.0000 0.16560  0.64920  0.61560  Biso   1.000  N
  N5       1.0000 0.68380  0.18060  0.63870  Biso   1.000  N
  H44      1.0000 0.17490  0.67470  0.96240  Biso   1.000  H
  H45      1.0000 0.12080  0.63730  0.95990  Biso   1.000  H
  H46      1.0000 0.65790  0.16060  0.97970  Biso   1.000  H
  H47      1.0000 0.70590  0.16080  0.98400  Biso   1.000  H
  C50      1.0000 0.69733  0.71246  0.17430  Biso   1.000  C
  C51      1.0000 0.64218  0.69237  0.16340  Biso   1.000  C
  H48      1.0000 0.62840  0.71530  0.15990  Biso   1.000  H
  C52      1.0000 0.60938  0.63908  0.16050  Biso   1.000  C
  C53      1.0000 0.63026  0.60434  0.16820  Biso   1.000  C
  H49      1.0000 0.60760  0.56760  0.16560  Biso   1.000  H
  C54      1.0000 0.68449  0.62614  0.17720  Biso   1.000  C
  C55      1.0000 0.71883  0.67855  0.18380  Biso   1.000  C
  H50      1.0000 0.75540  0.69230  0.19250  Biso   1.000  H
  C56      1.0000 0.71578  0.80168  0.16510  Biso   1.000  C
  H51      1.0000 0.69450  0.80000  0.23700  Biso   1.000  H
  H52      1.0000 0.69320  0.79170  0.09150  Biso   1.000  H
  C57      1.0000 0.76072  0.85725  0.14770  Biso   1.000  C
  C58      1.0000 0.51989  0.56987  0.16700  Biso   1.000  C
  H53      1.0000 0.52340  0.55780  0.24930  Biso   1.000  H
  H54      1.0000 0.52560  0.54890  0.10460  Biso   1.000  H
  C59      1.0000 0.46478  0.56331  0.15240  Biso   1.000  C
  C60      1.0000 0.75605  0.60666  0.19580  Biso   1.000  C
  H55      1.0000 0.76820  0.62180  0.27840  Biso   1.000  H
  H56      1.0000 0.77590  0.63400  0.13380  Biso   1.000  H
  C61      1.0000 0.76401  0.56059  0.17530  Biso   1.000  C
  C62      1.0000 0.96073  0.61515  0.18160  Biso   1.000  C
  C63      1.0000 0.01495  0.63343  0.17850  Biso   1.000  C
  H57      1.0000 0.02800  0.61000  0.18470  Biso   1.000  H
  C64      1.0000 0.04958  0.68939  0.16240  Biso   1.000  C
  C65      1.0000 0.02876  0.72352  0.16410  Biso   1.000  C
  H58      1.0000 0.05160  0.76020  0.15940  Biso   1.000  H
  C66      1.0000 0.97501  0.70313  0.16900  Biso   1.000  C
  C67      1.0000 0.94044  0.64980  0.17920  Biso   1.000  C
  H59      1.0000 0.90380  0.63610  0.18570  Biso   1.000  H
  C68      1.0000 0.94279  0.52398  0.18600  Biso   1.000  C
  H60      1.0000 0.96180  0.52610  0.26250  Biso   1.000  H
  H61      1.0000 0.96730  0.53260  0.11640  Biso   1.000  H
  C69      1.0000 0.89692  0.46930  0.16990  Biso   1.000  C
  C70      1.0000 0.13803  0.75863  0.15750  Biso   1.000  C
  H62      1.0000 0.13550  0.77590  0.23280  Biso   1.000  H
  H63      1.0000 0.13030  0.77440  0.08630  Biso   1.000  H
  C71      1.0000 0.19270  0.76831  0.14530  Biso   1.000  C
  C72      1.0000 0.90407  0.72219  0.18520  Biso   1.000  C
  H64      1.0000 0.89480  0.70860  0.26990  Biso   1.000  H
  H65      1.0000 0.88160  0.69400  0.12740  Biso   1.000  H
  C73      1.0000 0.89704  0.77137  0.16470  Biso   1.000  C
  C74      1.0000 0.85459  0.87093  0.42420  Biso   1.000  C
  H66      1.0000 0.86240  0.90020  0.37410  Biso   1.000  H
  C75      1.0000 0.86189  0.87777  0.54960  Biso   1.000  C
  H67      1.0000 0.87460  0.91130  0.58560  Biso   1.000  H
  C76      1.0000 0.85131  0.83535  0.62640  Biso   1.000  C
  H68      1.0000 0.85620  0.83950  0.71250  Biso   1.000  H
  C77      1.0000 0.83180  0.78446  0.57210  Biso   1.000  C
  H69      1.0000 0.82400  0.75520  0.62220  Biso   1.000  H
  C78      1.0000 0.82368  0.77722  0.44490  Biso   1.000  C
  H70      1.0000 0.81080  0.74350  0.40880  Biso   1.000  H
  C79      1.0000 0.31840  0.51840  0.41460  Biso   1.000  C
  H71      1.0000 0.29600  0.52550  0.36610  Biso   1.000  H
  C80      1.0000 0.32170  0.52390  0.53780  Biso   1.000  C
  H72      1.0000 0.30010  0.53520  0.57570  Biso   1.000  H
  C81      1.0000 0.35110  0.51530  0.61930  Biso   1.000  C
  C82      1.0000 0.38350  0.50060  0.56320  Biso   1.000  C
  H73      1.0000 0.40590  0.49350  0.61160  Biso   1.000  H
  C83      1.0000 0.38070  0.48470  0.43370  Biso   1.000  C
  H74      1.0000 0.40230  0.47340  0.39580  Biso   1.000  H
  C84      1.0000 0.46170  0.65440  0.56880  Biso   1.000  C
  H75      1.0000 0.43030  0.63290  0.61260  Biso   1.000  H
  C85      1.0000 0.45250  0.64930  0.42500  Biso   1.000  C
  H76      1.0000 0.42100  0.62780  0.38180  Biso   1.000  H
  C86      1.0000 0.50500  0.68290  0.36170  Biso   1.000  C
  C87      1.0000 0.55040  0.71950  0.41160  Biso   1.000  C
  H77      1.0000 0.58180  0.74100  0.36780  Biso   1.000  H
  C88      1.0000 0.54730  0.71720  0.55340  Biso   1.000  C
  H78      1.0000 0.57870  0.73870  0.59660  Biso   1.000  H
  N6       1.0000 0.83590  0.82223  0.36870  Biso   1.000  N
  N7       1.0000 0.35120  0.50500  0.36500  Biso   1.000  N
  N8       1.0000 0.50400  0.68360  0.61960  Biso   1.000  N
  O21      1.0000 0.80758  0.86649  0.16830  Biso   1.000  O
  O22      1.0000 0.75024  0.89336  0.12480  Biso   1.000  O
  O23      1.0000 0.73453  0.76607  0.18210  Biso   1.000  O
  O24      1.0000 0.42530  0.51394  0.17440  Biso   1.000  O
  O25      1.0000 0.45724  0.59976  0.13190  Biso   1.000  O
  O26      1.0000 0.55640  0.62297  0.15190  Biso   1.000  O
  O27      1.0000 0.81284  0.57224  0.19500  Biso   1.000  O
  O28      1.0000 0.72815  0.51611  0.14999  Biso   1.000  O
  O29      1.0000 0.70023  0.58762  0.18160  Biso   1.000  O
  O30      1.0000 0.85094  0.45994  0.16770  Biso   1.000  O
  O31      1.0000 0.91214  0.43618  0.14870  Biso   1.000  O
  O32      1.0000 0.92482  0.56153  0.18990  Biso   1.000  O
  O33      1.0000 0.20124  0.72884  0.15410  Biso   1.000  O
  O34      1.0000 0.22978  0.81187  0.12970  Biso   1.000  O
  O35      1.0000 0.10067  0.70362  0.16222  Biso   1.000  O
  O36      1.0000 0.84928  0.75870  0.19170  Biso   1.000  O
  O37      1.0000 0.93248  0.81217  0.13520  Biso   1.000  O
  O38      1.0000 0.95730  0.73991  0.16060  Biso   1.000  O
  Cu6      1.0000 0.83227  0.81621  0.18235  Biso   1.000  Cu
  Cu7      1.0000 0.34954  0.49661  0.17633  Biso   1.000  Cu
  Cu8      1.0000 0.52192  0.68486  0.16651  Biso   1.000  Cu
  Cu9      1.0000 0.82900  0.51337  0.19115  Biso   1.000  Cu
  Cu10     1.0000 0.64627  0.48971  0.20434  Biso   1.000  Cu
  O39      1.0000 0.35495  0.50572  0.99170  Biso   1.000  O
  O40      1.0000 0.51314  0.68914  0.98950  Biso   1.000  O
  H79      1.0000 0.35190  0.51960  0.70850  Biso   1.000  H
  H80      1.0000 0.82200  0.50490  0.72810  Biso   1.000  H
  C89      1.0000 0.31520  0.52120  0.42240  Biso   1.000  C
  H81      1.0000 0.29270  0.52820  0.37390  Biso   1.000  H
  C90      1.0000 0.31430  0.52860  0.54890  Biso   1.000  C
  H82      1.0000 0.29270  0.53990  0.58670  Biso   1.000  H
  C91      1.0000 0.34600  0.50100  0.35600  Biso   1.000  C
  H83      1.0000 0.34490  0.49650  0.26730  Biso   1.000  H
  C92      1.0000 0.38260  0.49860  0.56070  Biso   1.000  C
  H84      1.0000 0.40510  0.49170  0.60920  Biso   1.000  H
  C93      1.0000 0.38030  0.49720  0.42940  Biso   1.000  C
  H85      1.0000 0.40190  0.48590  0.39160  Biso   1.000  H
  C94      1.0000 0.80590  0.45440  0.45420  Biso   1.000  C
  H86      1.0000 0.79590  0.42300  0.41070  Biso   1.000  H
  C95      1.0000 0.80830  0.46050  0.57360  Biso   1.000  C
  H87      1.0000 0.79840  0.42920  0.61710  Biso   1.000  H
  C96      1.0000 0.81960  0.50280  0.37500  Biso   1.000  C
  H88      1.0000 0.81970  0.50290  0.28540  Biso   1.000  H
  C97      1.0000 0.84090  0.55320  0.56520  Biso   1.000  C
  H89      1.0000 0.85080  0.58460  0.60860  Biso   1.000  H
  C98      1.0000 0.84220  0.55560  0.44250  Biso   1.000  C
  H90      1.0000 0.85220  0.58700  0.39900  Biso   1.000  H
  N9       1.0000 0.35080  0.51640  0.61560  Biso   1.000  N
  N10      1.0000 0.81940  0.50320  0.63870  Biso   1.000  N
  H91      1.0000 0.32530  0.50020  0.96240  Biso   1.000  H
  H92      1.0000 0.36270  0.48350  0.95990  Biso   1.000  H
  H93      1.0000 0.83940  0.49730  0.97970  Biso   1.000  H
  H94      1.0000 0.83920  0.54510  0.98400  Biso   1.000  H
  C99      1.0000 0.28754  0.98487  0.17430  Biso   1.000  C
  C100     1.0000 0.30763  0.94981  0.16340  Biso   1.000  C
  H95      1.0000 0.28470  0.91310  0.15990  Biso   1.000  H
  C101     1.0000 0.36092  0.97030  0.16050  Biso   1.000  C
  C102     1.0000 0.39566  0.02592  0.16820  Biso   1.000  C
  H96      1.0000 0.43240  0.04000  0.16560  Biso   1.000  H
  C103     1.0000 0.37386  0.05835  0.17720  Biso   1.000  C
  C104     1.0000 0.32145  0.04028  0.18380  Biso   1.000  C
  H97      1.0000 0.30770  0.06310  0.19250  Biso   1.000  H
  C105     1.0000 0.19832  0.91410  0.16510  Biso   1.000  C
  H98      1.0000 0.20000  0.89450  0.23700  Biso   1.000  H
  H99      1.0000 0.20830  0.90150  0.09150  Biso   1.000  H
  C106     1.0000 0.14275  0.90347  0.14770  Biso   1.000  C
  C107     1.0000 0.43013  0.95002  0.16700  Biso   1.000  C
  H100     1.0000 0.44220  0.96560  0.24930  Biso   1.000  H
  H101     1.0000 0.45110  0.97670  0.10460  Biso   1.000  H
  C108     1.0000 0.43669  0.90147  0.15240  Biso   1.000  C
  C109     1.0000 0.39334  0.14939  0.19580  Biso   1.000  C
  H102     1.0000 0.37820  0.14640  0.27840  Biso   1.000  H
  H103     1.0000 0.36600  0.14190  0.13380  Biso   1.000  H
  C110     1.0000 0.43941  0.20342  0.17530  Biso   1.000  C
  C111     1.0000 0.38485  0.34558  0.18160  Biso   1.000  C
  C112     1.0000 0.36657  0.38152  0.17850  Biso   1.000  C
  H104     1.0000 0.39000  0.41800  0.18470  Biso   1.000  H
  C113     1.0000 0.31061  0.36019  0.16240  Biso   1.000  C
  C114     1.0000 0.27648  0.30524  0.16410  Biso   1.000  C
  H105     1.0000 0.23980  0.29140  0.15940  Biso   1.000  H
  C115     1.0000 0.29687  0.27188  0.16900  Biso   1.000  C
  C116     1.0000 0.35020  0.29064  0.17920  Biso   1.000  C
  H106     1.0000 0.36390  0.26770  0.18570  Biso   1.000  H
  C117     1.0000 0.47602  0.41881  0.18600  Biso   1.000  C
  H107     1.0000 0.47390  0.43570  0.26250  Biso   1.000  H
  H108     1.0000 0.46740  0.43470  0.11640  Biso   1.000  H
  C118     1.0000 0.53070  0.42762  0.16990  Biso   1.000  C
  C119     1.0000 0.24137  0.37940  0.15750  Biso   1.000  C
  H109     1.0000 0.22410  0.35960  0.23280  Biso   1.000  H
  H110     1.0000 0.22560  0.35590  0.08630  Biso   1.000  H
  C120     1.0000 0.23169  0.42439  0.14530  Biso   1.000  C
  C121     1.0000 0.27781  0.18188  0.18520  Biso   1.000  C
  H111     1.0000 0.29140  0.18620  0.26990  Biso   1.000  H
  H112     1.0000 0.30600  0.18760  0.12740  Biso   1.000  H
  C122     1.0000 0.22863  0.12567  0.16470  Biso   1.000  C
  C123     1.0000 0.12907  0.98366  0.42420  Biso   1.000  C
  H113     1.0000 0.09980  0.96220  0.37410  Biso   1.000  H
  C124     1.0000 0.12223  0.98412  0.54960  Biso   1.000  C
  H114     1.0000 0.08870  0.96330  0.58560  Biso   1.000  H
  C125     1.0000 0.16465  0.01596  0.62640  Biso   1.000  C
  H115     1.0000 0.16050  0.01670  0.71250  Biso   1.000  H
  C126     1.0000 0.21554  0.04734  0.57210  Biso   1.000  C
  H116     1.0000 0.24480  0.06880  0.62220  Biso   1.000  H
  C127     1.0000 0.22278  0.04646  0.44490  Biso   1.000  C
  H117     1.0000 0.25650  0.06730  0.40880  Biso   1.000  H
  C128     1.0000 0.48160  0.80000  0.41460  Biso   1.000  C
  H118     1.0000 0.47450  0.77050  0.36610  Biso   1.000  H
  C129     1.0000 0.47610  0.79780  0.53780  Biso   1.000  C
  H119     1.0000 0.46480  0.76490  0.57570  Biso   1.000  H
  C130     1.0000 0.48470  0.83580  0.61930  Biso   1.000  C
  C131     1.0000 0.49940  0.88290  0.56320  Biso   1.000  C
  H120     1.0000 0.50650  0.91240  0.61160  Biso   1.000  H
  C132     1.0000 0.51530  0.89600  0.43370  Biso   1.000  C
  H121     1.0000 0.52660  0.92890  0.39580  Biso   1.000  H
  C133     1.0000 0.34560  0.80730  0.56880  Biso   1.000  C
  H122     1.0000 0.36710  0.79740  0.61260  Biso   1.000  H
  C134     1.0000 0.35070  0.80320  0.42500  Biso   1.000  C
  H123     1.0000 0.37220  0.79320  0.38180  Biso   1.000  H
  C135     1.0000 0.31710  0.82210  0.36170  Biso   1.000  C
  C136     1.0000 0.28050  0.83090  0.41160  Biso   1.000  C
  H124     1.0000 0.25900  0.84080  0.36780  Biso   1.000  H
  C137     1.0000 0.28280  0.83010  0.55340  Biso   1.000  C
  H125     1.0000 0.26130  0.84000  0.59660  Biso   1.000  H
  N11      1.0000 0.17777  0.01367  0.36870  Biso   1.000  N
  N12      1.0000 0.49500  0.84620  0.36500  Biso   1.000  N
  N13      1.0000 0.31640  0.82040  0.61960  Biso   1.000  N
  O41      1.0000 0.13351  0.94109  0.16830  Biso   1.000  O
  O42      1.0000 0.10664  0.85688  0.12480  Biso   1.000  O
  O43      1.0000 0.23393  0.96846  0.18210  Biso   1.000  O
  O44      1.0000 0.48606  0.91136  0.17440  Biso   1.000  O
  O45      1.0000 0.40024  0.85748  0.13190  Biso   1.000  O
  O46      1.0000 0.37703  0.93343  0.15190  Biso   1.000  O
  O47      1.0000 0.42776  0.24060  0.19500  Biso   1.000  O
  O48      1.0000 0.48389  0.21204  0.14999  Biso   1.000  O
  O49      1.0000 0.41238  0.11261  0.18160  Biso   1.000  O
  O50      1.0000 0.54006  0.39100  0.16770  Biso   1.000  O
  O51      1.0000 0.56382  0.47596  0.14870  Biso   1.000  O
  O52      1.0000 0.43847  0.36329  0.18990  Biso   1.000  O
  O53      1.0000 0.27116  0.47240  0.15410  Biso   1.000  O
  O54      1.0000 0.18813  0.41791  0.12970  Biso   1.000  O
  O55      1.0000 0.29638  0.39705  0.16222  Biso   1.000  O
  O56      1.0000 0.24130  0.09058  0.19170  Biso   1.000  O
  O57      1.0000 0.18783  0.12031  0.13520  Biso   1.000  O
  O58      1.0000 0.26009  0.21739  0.16060  Biso   1.000  O
  Cu11     1.0000 0.18379  0.01606  0.18235  Biso   1.000  Cu
  Cu12     1.0000 0.50339  0.85293  0.17633  Biso   1.000  Cu
  Cu13     1.0000 0.31514  0.83706  0.16651  Biso   1.000  Cu
  Cu14     1.0000 0.48663  0.31563  0.19115  Biso   1.000  Cu
  Cu15     1.0000 0.51029  0.15656  0.20434  Biso   1.000  Cu
  O59      1.0000 0.49428  0.84923  0.99170  Biso   1.000  O
  O60      1.0000 0.31086  0.82400  0.98950  Biso   1.000  O
  H126     1.0000 0.48040  0.83230  0.70850  Biso   1.000  H
  H127     1.0000 0.49510  0.31710  0.72810  Biso   1.000  H
  C138     1.0000 0.47880  0.79400  0.42240  Biso   1.000  C
  H128     1.0000 0.47180  0.76450  0.37390  Biso   1.000  H
  C139     1.0000 0.47140  0.78570  0.54890  Biso   1.000  C
  H129     1.0000 0.46010  0.75280  0.58670  Biso   1.000  H
  C140     1.0000 0.49900  0.84500  0.35600  Biso   1.000  C
  H130     1.0000 0.50350  0.84840  0.26730  Biso   1.000  H
  C141     1.0000 0.50140  0.88400  0.56070  Biso   1.000  C
  H131     1.0000 0.50830  0.91340  0.60920  Biso   1.000  H
  C142     1.0000 0.50280  0.88310  0.42940  Biso   1.000  C
  H132     1.0000 0.51410  0.91600  0.39160  Biso   1.000  H
  C143     1.0000 0.54560  0.35150  0.45420  Biso   1.000  C
  H133     1.0000 0.57700  0.37290  0.41070  Biso   1.000  H
  C144     1.0000 0.53950  0.34780  0.57360  Biso   1.000  C
  H134     1.0000 0.57080  0.36920  0.61710  Biso   1.000  H
  C145     1.0000 0.49720  0.31680  0.37500  Biso   1.000  C
  H135     1.0000 0.49710  0.31680  0.28540  Biso   1.000  H
  C146     1.0000 0.44680  0.28770  0.56520  Biso   1.000  C
  H136     1.0000 0.41540  0.26620  0.60860  Biso   1.000  H
  C147     1.0000 0.44440  0.28660  0.44250  Biso   1.000  C
  H137     1.0000 0.41300  0.26520  0.39900  Biso   1.000  H
  N14      1.0000 0.48360  0.83440  0.61560  Biso   1.000  N
  N15      1.0000 0.49680  0.31620  0.63870  Biso   1.000  N
  H138     1.0000 0.49980  0.82510  0.96240  Biso   1.000  H
  H139     1.0000 0.51650  0.87920  0.95990  Biso   1.000  H
  H140     1.0000 0.50270  0.34210  0.97970  Biso   1.000  H
  H141     1.0000 0.45490  0.29410  0.98400  Biso   1.000  H
  C148     1.0000 0.98487  0.69733  0.82570  Biso   1.000  C
  C149     1.0000 0.94981  0.64218  0.83660  Biso   1.000  C
  H142     1.0000 0.91310  0.62840  0.84010  Biso   1.000  H
  C150     1.0000 0.97030  0.60938  0.83950  Biso   1.000  C
  C151     1.0000 0.02592  0.63026  0.83180  Biso   1.000  C
  H143     1.0000 0.04000  0.60760  0.83440  Biso   1.000  H
  C152     1.0000 0.05835  0.68449  0.82280  Biso   1.000  C
  C153     1.0000 0.04028  0.71883  0.81620  Biso   1.000  C
  H144     1.0000 0.06310  0.75540  0.80750  Biso   1.000  H
  C154     1.0000 0.91410  0.71578  0.83490  Biso   1.000  C
  H145     1.0000 0.89450  0.69450  0.76300  Biso   1.000  H
  H146     1.0000 0.90150  0.69320  0.90850  Biso   1.000  H
  C155     1.0000 0.90347  0.76072  0.85230  Biso   1.000  C
  C156     1.0000 0.95002  0.51989  0.83300  Biso   1.000  C
  H147     1.0000 0.96560  0.52340  0.75070  Biso   1.000  H
  H148     1.0000 0.97670  0.52560  0.89540  Biso   1.000  H
  C157     1.0000 0.90147  0.46478  0.84760  Biso   1.000  C
  C158     1.0000 0.14939  0.75605  0.80420  Biso   1.000  C
  H149     1.0000 0.14640  0.76820  0.72160  Biso   1.000  H
  H150     1.0000 0.14190  0.77590  0.86620  Biso   1.000  H
  C159     1.0000 0.20342  0.76401  0.82470  Biso   1.000  C
  C160     1.0000 0.34558  0.96073  0.81840  Biso   1.000  C
  C161     1.0000 0.38152  0.01495  0.82150  Biso   1.000  C
  H151     1.0000 0.41800  0.02800  0.81530  Biso   1.000  H
  C162     1.0000 0.36019  0.04958  0.83760  Biso   1.000  C
  C163     1.0000 0.30524  0.02876  0.83590  Biso   1.000  C
  H152     1.0000 0.29140  0.05160  0.84060  Biso   1.000  H
  C164     1.0000 0.27188  0.97501  0.83100  Biso   1.000  C
  C165     1.0000 0.29064  0.94044  0.82080  Biso   1.000  C
  H153     1.0000 0.26770  0.90380  0.81430  Biso   1.000  H
  C166     1.0000 0.41881  0.94279  0.81400  Biso   1.000  C
  H154     1.0000 0.43570  0.96180  0.73750  Biso   1.000  H
  H155     1.0000 0.43470  0.96730  0.88360  Biso   1.000  H
  C167     1.0000 0.42762  0.89692  0.83010  Biso   1.000  C
  C168     1.0000 0.37940  0.13803  0.84250  Biso   1.000  C
  H156     1.0000 0.35960  0.13550  0.76720  Biso   1.000  H
  H157     1.0000 0.35590  0.13030  0.91370  Biso   1.000  H
  C169     1.0000 0.42439  0.19270  0.85470  Biso   1.000  C
  C170     1.0000 0.18188  0.90407  0.81480  Biso   1.000  C
  H158     1.0000 0.18620  0.89480  0.73010  Biso   1.000  H
  H159     1.0000 0.18760  0.88160  0.87260  Biso   1.000  H
  C171     1.0000 0.12567  0.89704  0.83530  Biso   1.000  C
  C172     1.0000 0.98366  0.85459  0.57580  Biso   1.000  C
  H160     1.0000 0.96220  0.86240  0.62590  Biso   1.000  H
  C173     1.0000 0.98412  0.86189  0.45040  Biso   1.000  C
  H161     1.0000 0.96330  0.87460  0.41440  Biso   1.000  H
  C174     1.0000 0.01596  0.85131  0.37360  Biso   1.000  C
  H162     1.0000 0.01670  0.85620  0.28750  Biso   1.000  H
  C175     1.0000 0.04734  0.83180  0.42790  Biso   1.000  C
  H163     1.0000 0.06880  0.82400  0.37780  Biso   1.000  H
  C176     1.0000 0.04646  0.82368  0.55510  Biso   1.000  C
  H164     1.0000 0.06730  0.81080  0.59120  Biso   1.000  H
  C177     1.0000 0.80000  0.31840  0.58540  Biso   1.000  C
  H165     1.0000 0.77050  0.29600  0.63390  Biso   1.000  H
  C178     1.0000 0.79780  0.32170  0.46220  Biso   1.000  C
  H166     1.0000 0.76490  0.30010  0.42430  Biso   1.000  H
  C179     1.0000 0.83580  0.35110  0.38070  Biso   1.000  C
  C180     1.0000 0.88290  0.38350  0.43680  Biso   1.000  C
  H167     1.0000 0.91240  0.40590  0.38840  Biso   1.000  H
  C181     1.0000 0.89600  0.38070  0.56630  Biso   1.000  C
  H168     1.0000 0.92890  0.40230  0.60420  Biso   1.000  H
  C182     1.0000 0.80730  0.46170  0.43120  Biso   1.000  C
  H169     1.0000 0.79740  0.43030  0.38740  Biso   1.000  H
  C183     1.0000 0.80320  0.45250  0.57500  Biso   1.000  C
  H170     1.0000 0.79320  0.42100  0.61820  Biso   1.000  H
  C184     1.0000 0.82210  0.50500  0.63830  Biso   1.000  C
  C185     1.0000 0.83090  0.55040  0.58840  Biso   1.000  C
  H171     1.0000 0.84080  0.58180  0.63220  Biso   1.000  H
  C186     1.0000 0.83010  0.54730  0.44660  Biso   1.000  C
  H172     1.0000 0.84000  0.57870  0.40340  Biso   1.000  H
  N16      1.0000 0.01367  0.83590  0.63130  Biso   1.000  N
  N17      1.0000 0.84620  0.35120  0.63500  Biso   1.000  N
  N18      1.0000 0.82040  0.50400  0.38040  Biso   1.000  N
  O61      1.0000 0.94109  0.80758  0.83170  Biso   1.000  O
  O62      1.0000 0.85688  0.75024  0.87520  Biso   1.000  O
  O63      1.0000 0.96846  0.73453  0.81790  Biso   1.000  O
  O64      1.0000 0.91136  0.42530  0.82560  Biso   1.000  O
  O65      1.0000 0.85748  0.45724  0.86810  Biso   1.000  O
  O66      1.0000 0.93343  0.55640  0.84810  Biso   1.000  O
  O67      1.0000 0.24060  0.81284  0.80500  Biso   1.000  O
  O68      1.0000 0.21204  0.72815  0.85001  Biso   1.000  O
  O69      1.0000 0.11261  0.70023  0.81840  Biso   1.000  O
  O70      1.0000 0.39100  0.85094  0.83230  Biso   1.000  O
  O71      1.0000 0.47596  0.91214  0.85130  Biso   1.000  O
  O72      1.0000 0.36329  0.92482  0.81010  Biso   1.000  O
  O73      1.0000 0.47240  0.20124  0.84590  Biso   1.000  O
  O74      1.0000 0.41791  0.22978  0.87030  Biso   1.000  O
  O75      1.0000 0.39705  0.10067  0.83778  Biso   1.000  O
  O76      1.0000 0.09058  0.84928  0.80830  Biso   1.000  O
  O77      1.0000 0.12031  0.93248  0.86480  Biso   1.000  O
  O78      1.0000 0.21739  0.95730  0.83940  Biso   1.000  O
  Cu16     1.0000 0.01606  0.83227  0.81765  Biso   1.000  Cu
  Cu17     1.0000 0.85293  0.34954  0.82367  Biso   1.000  Cu
  Cu18     1.0000 0.83706  0.52192  0.83349  Biso   1.000  Cu
  Cu19     1.0000 0.31563  0.82900  0.80885  Biso   1.000  Cu
  Cu20     1.0000 0.15656  0.64627  0.79566  Biso   1.000  Cu
  O79      1.0000 0.84923  0.35495  0.00830  Biso   1.000  O
  O80      1.0000 0.82400  0.51314  0.01050  Biso   1.000  O
  H173     1.0000 0.83230  0.35190  0.29150  Biso   1.000  H
  H174     1.0000 0.31710  0.82200  0.27190  Biso   1.000  H
  C187     1.0000 0.79400  0.31520  0.57760  Biso   1.000  C
  H175     1.0000 0.76450  0.29270  0.62610  Biso   1.000  H
  C188     1.0000 0.78570  0.31430  0.45110  Biso   1.000  C
  H176     1.0000 0.75280  0.29270  0.41330  Biso   1.000  H
  C189     1.0000 0.84500  0.34600  0.64400  Biso   1.000  C
  H177     1.0000 0.84840  0.34490  0.73270  Biso   1.000  H
  C190     1.0000 0.88400  0.38260  0.43930  Biso   1.000  C
  H178     1.0000 0.91340  0.40510  0.39080  Biso   1.000  H
  C191     1.0000 0.88310  0.38030  0.57060  Biso   1.000  C
  H179     1.0000 0.91600  0.40190  0.60840  Biso   1.000  H
  C192     1.0000 0.35150  0.80590  0.54580  Biso   1.000  C
  H180     1.0000 0.37290  0.79590  0.58930  Biso   1.000  H
  C193     1.0000 0.34780  0.80830  0.42640  Biso   1.000  C
  H181     1.0000 0.36920  0.79840  0.38290  Biso   1.000  H
  C194     1.0000 0.31680  0.81960  0.62500  Biso   1.000  C
  H182     1.0000 0.31680  0.81970  0.71460  Biso   1.000  H
  C195     1.0000 0.28770  0.84090  0.43480  Biso   1.000  C
  H183     1.0000 0.26620  0.85080  0.39140  Biso   1.000  H
  C196     1.0000 0.28660  0.84220  0.55750  Biso   1.000  C
  H184     1.0000 0.26520  0.85220  0.60100  Biso   1.000  H
  N19      1.0000 0.83440  0.35080  0.38440  Biso   1.000  N
  N20      1.0000 0.31620  0.81940  0.36130  Biso   1.000  N
  H185     1.0000 0.82510  0.32530  0.03760  Biso   1.000  H
  H186     1.0000 0.87920  0.36270  0.04010  Biso   1.000  H
  H187     1.0000 0.34210  0.83940  0.02030  Biso   1.000  H
  H188     1.0000 0.29410  0.83920  0.01600  Biso   1.000  H
  C197     1.0000 0.30267  0.28754  0.82570  Biso   1.000  C
  C198     1.0000 0.35782  0.30763  0.83660  Biso   1.000  C
  H189     1.0000 0.37160  0.28470  0.84010  Biso   1.000  H
  C199     1.0000 0.39062  0.36092  0.83950  Biso   1.000  C
  C200     1.0000 0.36974  0.39566  0.83180  Biso   1.000  C
  H190     1.0000 0.39240  0.43240  0.83440  Biso   1.000  H
  C201     1.0000 0.31551  0.37386  0.82280  Biso   1.000  C
  C202     1.0000 0.28117  0.32145  0.81620  Biso   1.000  C
  H191     1.0000 0.24460  0.30770  0.80750  Biso   1.000  H
  C203     1.0000 0.28422  0.19832  0.83490  Biso   1.000  C
  H192     1.0000 0.30550  0.20000  0.76300  Biso   1.000  H
  H193     1.0000 0.30680  0.20830  0.90850  Biso   1.000  H
  C204     1.0000 0.23928  0.14275  0.85230  Biso   1.000  C
  C205     1.0000 0.48011  0.43013  0.83300  Biso   1.000  C
  H194     1.0000 0.47660  0.44220  0.75070  Biso   1.000  H
  H195     1.0000 0.47440  0.45110  0.89540  Biso   1.000  H
  C206     1.0000 0.53522  0.43669  0.84760  Biso   1.000  C
  C207     1.0000 0.24395  0.39334  0.80420  Biso   1.000  C
  H196     1.0000 0.23180  0.37820  0.72160  Biso   1.000  H
  H197     1.0000 0.22410  0.36600  0.86620  Biso   1.000  H
  C208     1.0000 0.23599  0.43941  0.82470  Biso   1.000  C
  C209     1.0000 0.03927  0.38485  0.81840  Biso   1.000  C
  C210     1.0000 0.98505  0.36657  0.82150  Biso   1.000  C
  H198     1.0000 0.97200  0.39000  0.81530  Biso   1.000  H
  C211     1.0000 0.95042  0.31061  0.83760  Biso   1.000  C
  C212     1.0000 0.97124  0.27648  0.83590  Biso   1.000  C
  H199     1.0000 0.94840  0.23980  0.84060  Biso   1.000  H
  C213     1.0000 0.02499  0.29687  0.83100  Biso   1.000  C
  C214     1.0000 0.05956  0.35020  0.82080  Biso   1.000  C
  H200     1.0000 0.09620  0.36390  0.81430  Biso   1.000  H
  C215     1.0000 0.05721  0.47602  0.81400  Biso   1.000  C
  H201     1.0000 0.03820  0.47390  0.73750  Biso   1.000  H
  H202     1.0000 0.03270  0.46740  0.88360  Biso   1.000  H
  C216     1.0000 0.10308  0.53070  0.83010  Biso   1.000  C
  C217     1.0000 0.86197  0.24137  0.84250  Biso   1.000  C
  H203     1.0000 0.86450  0.22410  0.76720  Biso   1.000  H
  H204     1.0000 0.86970  0.22560  0.91370  Biso   1.000  H
  C218     1.0000 0.80730  0.23169  0.85470  Biso   1.000  C
  C219     1.0000 0.09593  0.27781  0.81480  Biso   1.000  C
  H205     1.0000 0.10520  0.29140  0.73010  Biso   1.000  H
  H206     1.0000 0.11840  0.30600  0.87260  Biso   1.000  H
  C220     1.0000 0.10296  0.22863  0.83530  Biso   1.000  C
  C221     1.0000 0.14541  0.12907  0.57580  Biso   1.000  C
  H207     1.0000 0.13760  0.09980  0.62590  Biso   1.000  H
  C222     1.0000 0.13811  0.12223  0.45040  Biso   1.000  C
  H208     1.0000 0.12540  0.08870  0.41440  Biso   1.000  H
  C223     1.0000 0.14869  0.16465  0.37360  Biso   1.000  C
  H209     1.0000 0.14380  0.16050  0.28750  Biso   1.000  H
  C224     1.0000 0.16820  0.21554  0.42790  Biso   1.000  C
  H210     1.0000 0.17600  0.24480  0.37780  Biso   1.000  H
  C225     1.0000 0.17632  0.22278  0.55510  Biso   1.000  C
  H211     1.0000 0.18920  0.25650  0.59120  Biso   1.000  H
  C226     1.0000 0.68160  0.48160  0.58540  Biso   1.000  C
  H212     1.0000 0.70400  0.47450  0.63390  Biso   1.000  H
  C227     1.0000 0.67830  0.47610  0.46220  Biso   1.000  C
  H213     1.0000 0.69990  0.46480  0.42430  Biso   1.000  H
  C228     1.0000 0.64890  0.48470  0.38070  Biso   1.000  C
  C229     1.0000 0.61650  0.49940  0.43680  Biso   1.000  C
  H214     1.0000 0.59410  0.50650  0.38840  Biso   1.000  H
  C230     1.0000 0.61930  0.51530  0.56630  Biso   1.000  C
  H215     1.0000 0.59770  0.52660  0.60420  Biso   1.000  H
  C231     1.0000 0.53830  0.34560  0.43120  Biso   1.000  C
  H216     1.0000 0.56970  0.36710  0.38740  Biso   1.000  H
  C232     1.0000 0.54750  0.35070  0.57500  Biso   1.000  C
  H217     1.0000 0.57900  0.37220  0.61820  Biso   1.000  H
  C233     1.0000 0.49500  0.31710  0.63830  Biso   1.000  C
  C234     1.0000 0.44960  0.28050  0.58840  Biso   1.000  C
  H218     1.0000 0.41820  0.25900  0.63220  Biso   1.000  H
  C235     1.0000 0.45270  0.28280  0.44660  Biso   1.000  C
  H219     1.0000 0.42130  0.26130  0.40340  Biso   1.000  H
  N21      1.0000 0.16410  0.17777  0.63130  Biso   1.000  N
  N22      1.0000 0.64880  0.49500  0.63500  Biso   1.000  N
  N23      1.0000 0.49600  0.31640  0.38040  Biso   1.000  N
  O81      1.0000 0.19242  0.13351  0.83170  Biso   1.000  O
  O82      1.0000 0.24976  0.10664  0.87520  Biso   1.000  O
  O83      1.0000 0.26547  0.23393  0.81790  Biso   1.000  O
  O84      1.0000 0.57470  0.48606  0.82560  Biso   1.000  O
  O85      1.0000 0.54276  0.40024  0.86810  Biso   1.000  O
  O86      1.0000 0.44360  0.37703  0.84810  Biso   1.000  O
  O87      1.0000 0.18716  0.42776  0.80500  Biso   1.000  O
  O88      1.0000 0.27185  0.48389  0.85001  Biso   1.000  O
  O89      1.0000 0.29977  0.41238  0.81840  Biso   1.000  O
  O90      1.0000 0.14906  0.54006  0.83230  Biso   1.000  O
  O91      1.0000 0.08786  0.56382  0.85130  Biso   1.000  O
  O92      1.0000 0.07518  0.43847  0.81010  Biso   1.000  O
  O93      1.0000 0.79876  0.27116  0.84590  Biso   1.000  O
  O94      1.0000 0.77022  0.18813  0.87030  Biso   1.000  O
  O95      1.0000 0.89933  0.29638  0.83778  Biso   1.000  O
  O96      1.0000 0.15072  0.24130  0.80830  Biso   1.000  O
  O97      1.0000 0.06752  0.18783  0.86480  Biso   1.000  O
  O98      1.0000 0.04270  0.26009  0.83940  Biso   1.000  O
  Cu21     1.0000 0.16773  0.18379  0.81765  Biso   1.000  Cu
  Cu22     1.0000 0.65046  0.50339  0.82367  Biso   1.000  Cu
  Cu23     1.0000 0.47808  0.31514  0.83349  Biso   1.000  Cu
  Cu24     1.0000 0.17100  0.48663  0.80885  Biso   1.000  Cu
  Cu25     1.0000 0.35373  0.51029  0.79566  Biso   1.000  Cu
  O99      1.0000 0.64505  0.49428  0.00830  Biso   1.000  O
  O100     1.0000 0.48686  0.31086  0.01050  Biso   1.000  O
  H220     1.0000 0.64810  0.48040  0.29150  Biso   1.000  H
  H221     1.0000 0.17800  0.49510  0.27190  Biso   1.000  H
  C236     1.0000 0.68480  0.47880  0.57760  Biso   1.000  C
  H222     1.0000 0.70730  0.47180  0.62610  Biso   1.000  H
  C237     1.0000 0.68570  0.47140  0.45110  Biso   1.000  C
  H223     1.0000 0.70730  0.46010  0.41330  Biso   1.000  H
  C238     1.0000 0.65400  0.49900  0.64400  Biso   1.000  C
  H224     1.0000 0.65510  0.50350  0.73270  Biso   1.000  H
  C239     1.0000 0.61740  0.50140  0.43930  Biso   1.000  C
  H225     1.0000 0.59490  0.50830  0.39080  Biso   1.000  H
  C240     1.0000 0.61970  0.50280  0.57060  Biso   1.000  C
  H226     1.0000 0.59810  0.51410  0.60840  Biso   1.000  H
  C241     1.0000 0.19410  0.54560  0.54580  Biso   1.000  C
  H227     1.0000 0.20410  0.57700  0.58930  Biso   1.000  H
  C242     1.0000 0.19170  0.53950  0.42640  Biso   1.000  C
  H228     1.0000 0.20160  0.57080  0.38290  Biso   1.000  H
  C243     1.0000 0.18040  0.49720  0.62500  Biso   1.000  C
  H229     1.0000 0.18030  0.49710  0.71460  Biso   1.000  H
  C244     1.0000 0.15910  0.44680  0.43480  Biso   1.000  C
  H230     1.0000 0.14920  0.41540  0.39140  Biso   1.000  H
  C245     1.0000 0.15780  0.44440  0.55750  Biso   1.000  C
  H231     1.0000 0.14780  0.41300  0.60100  Biso   1.000  H
  N24      1.0000 0.64920  0.48360  0.38440  Biso   1.000  N
  N25      1.0000 0.18060  0.49680  0.36130  Biso   1.000  N
  H232     1.0000 0.67470  0.49980  0.03760  Biso   1.000  H
  H233     1.0000 0.63730  0.51650  0.04010  Biso   1.000  H
  H234     1.0000 0.16060  0.50270  0.02030  Biso   1.000  H
  H235     1.0000 0.16080  0.45490  0.01600  Biso   1.000  H
  C246     1.0000 0.71246  0.01513  0.82570  Biso   1.000  C
  C247     1.0000 0.69237  0.05019  0.83660  Biso   1.000  C
  H236     1.0000 0.71530  0.08690  0.84010  Biso   1.000  H
  C248     1.0000 0.63908  0.02970  0.83950  Biso   1.000  C
  C249     1.0000 0.60434  0.97408  0.83180  Biso   1.000  C
  H237     1.0000 0.56760  0.96000  0.83440  Biso   1.000  H
  C250     1.0000 0.62614  0.94165  0.82280  Biso   1.000  C
  C251     1.0000 0.67855  0.95972  0.81620  Biso   1.000  C
  H238     1.0000 0.69230  0.93690  0.80750  Biso   1.000  H
  C252     1.0000 0.80168  0.08590  0.83490  Biso   1.000  C
  H239     1.0000 0.80000  0.10550  0.76300  Biso   1.000  H
  H240     1.0000 0.79170  0.09850  0.90850  Biso   1.000  H
  C253     1.0000 0.85725  0.09653  0.85230  Biso   1.000  C
  C254     1.0000 0.56987  0.04998  0.83300  Biso   1.000  C
  H241     1.0000 0.55780  0.03440  0.75070  Biso   1.000  H
  H242     1.0000 0.54890  0.02330  0.89540  Biso   1.000  H
  C255     1.0000 0.56331  0.09853  0.84760  Biso   1.000  C
  C256     1.0000 0.60666  0.85061  0.80420  Biso   1.000  C
  H243     1.0000 0.62180  0.85360  0.72160  Biso   1.000  H
  H244     1.0000 0.63400  0.85810  0.86620  Biso   1.000  H
  C257     1.0000 0.56059  0.79658  0.82470  Biso   1.000  C
  C258     1.0000 0.61515  0.65442  0.81840  Biso   1.000  C
  C259     1.0000 0.63343  0.61848  0.82150  Biso   1.000  C
  H245     1.0000 0.61000  0.58200  0.81530  Biso   1.000  H
  C260     1.0000 0.68939  0.63981  0.83760  Biso   1.000  C
  C261     1.0000 0.72352  0.69476  0.83590  Biso   1.000  C
  H246     1.0000 0.76020  0.70860  0.84060  Biso   1.000  H
  C262     1.0000 0.70313  0.72812  0.83100  Biso   1.000  C
  C263     1.0000 0.64980  0.70936  0.82080  Biso   1.000  C
  H247     1.0000 0.63610  0.73230  0.81430  Biso   1.000  H
  C264     1.0000 0.52398  0.58119  0.81400  Biso   1.000  C
  H248     1.0000 0.52610  0.56430  0.73750  Biso   1.000  H
  H249     1.0000 0.53260  0.56530  0.88360  Biso   1.000  H
  C265     1.0000 0.46930  0.57238  0.83010  Biso   1.000  C
  C266     1.0000 0.75863  0.62060  0.84250  Biso   1.000  C
  H250     1.0000 0.77590  0.64040  0.76720  Biso   1.000  H
  H251     1.0000 0.77440  0.64410  0.91370  Biso   1.000  H
  C267     1.0000 0.76831  0.57561  0.85470  Biso   1.000  C
  C268     1.0000 0.72219  0.81812  0.81480  Biso   1.000  C
  H252     1.0000 0.70860  0.81380  0.73010  Biso   1.000  H
  H253     1.0000 0.69400  0.81240  0.87260  Biso   1.000  H
  C269     1.0000 0.77137  0.87433  0.83530  Biso   1.000  C
  C270     1.0000 0.87093  0.01634  0.57580  Biso   1.000  C
  H254     1.0000 0.90020  0.03780  0.62590  Biso   1.000  H
  C271     1.0000 0.87777  0.01588  0.45040  Biso   1.000  C
  H255     1.0000 0.91130  0.03670  0.41440  Biso   1.000  H
  C272     1.0000 0.83535  0.98404  0.37360  Biso   1.000  C
  H256     1.0000 0.83950  0.98330  0.28750  Biso   1.000  H
  C273     1.0000 0.78446  0.95266  0.42790  Biso   1.000  C
  H257     1.0000 0.75520  0.93120  0.37780  Biso   1.000  H
  C274     1.0000 0.77722  0.95354  0.55510  Biso   1.000  C
  H258     1.0000 0.74350  0.93270  0.59120  Biso   1.000  H
  C275     1.0000 0.51840  0.20000  0.58540  Biso   1.000  C
  H259     1.0000 0.52550  0.22950  0.63390  Biso   1.000  H
  C276     1.0000 0.52390  0.20220  0.46220  Biso   1.000  C
  H260     1.0000 0.53520  0.23510  0.42430  Biso   1.000  H
  C277     1.0000 0.51530  0.16420  0.38070  Biso   1.000  C
  C278     1.0000 0.50060  0.11710  0.43680  Biso   1.000  C
  H261     1.0000 0.49350  0.08760  0.38840  Biso   1.000  H
  C279     1.0000 0.48470  0.10400  0.56630  Biso   1.000  C
  H262     1.0000 0.47340  0.07110  0.60420  Biso   1.000  H
  C280     1.0000 0.65440  0.19270  0.43120  Biso   1.000  C
  H263     1.0000 0.63290  0.20260  0.38740  Biso   1.000  H
  C281     1.0000 0.64930  0.19680  0.57500  Biso   1.000  C
  H264     1.0000 0.62780  0.20680  0.61820  Biso   1.000  H
  C282     1.0000 0.68290  0.17790  0.63830  Biso   1.000  C
  C283     1.0000 0.71950  0.16910  0.58840  Biso   1.000  C
  H265     1.0000 0.74100  0.15920  0.63220  Biso   1.000  H
  C284     1.0000 0.71720  0.16990  0.44660  Biso   1.000  C
  H266     1.0000 0.73870  0.16000  0.40340  Biso   1.000  H
  N26      1.0000 0.82223  0.98633  0.63130  Biso   1.000  N
  N27      1.0000 0.50500  0.15380  0.63500  Biso   1.000  N
  N28      1.0000 0.68360  0.17960  0.38040  Biso   1.000  N
  O101     1.0000 0.86649  0.05891  0.83170  Biso   1.000  O
  O102     1.0000 0.89336  0.14312  0.87520  Biso   1.000  O
  O103     1.0000 0.76607  0.03154  0.81790  Biso   1.000  O
  O104     1.0000 0.51394  0.08864  0.82560  Biso   1.000  O
  O105     1.0000 0.59976  0.14252  0.86810  Biso   1.000  O
  O106     1.0000 0.62297  0.06657  0.84810  Biso   1.000  O
  O107     1.0000 0.57224  0.75940  0.80500  Biso   1.000  O
  O108     1.0000 0.51611  0.78796  0.85001  Biso   1.000  O
  O109     1.0000 0.58762  0.88739  0.81840  Biso   1.000  O
  O110     1.0000 0.45994  0.60900  0.83230  Biso   1.000  O
  O111     1.0000 0.43618  0.52404  0.85130  Biso   1.000  O
  O112     1.0000 0.56153  0.63671  0.81010  Biso   1.000  O
  O113     1.0000 0.72884  0.52760  0.84590  Biso   1.000  O
  O114     1.0000 0.81187  0.58209  0.87030  Biso   1.000  O
  O115     1.0000 0.70362  0.60295  0.83778  Biso   1.000  O
  O116     1.0000 0.75870  0.90942  0.80830  Biso   1.000  O
  O117     1.0000 0.81217  0.87969  0.86480  Biso   1.000  O
  O118     1.0000 0.73991  0.78261  0.83940  Biso   1.000  O
  Cu26     1.0000 0.81621  0.98394  0.81765  Biso   1.000  Cu
  Cu27     1.0000 0.49661  0.14707  0.82367  Biso   1.000  Cu
  Cu28     1.0000 0.68486  0.16294  0.83349  Biso   1.000  Cu
  Cu29     1.0000 0.51337  0.68437  0.80885  Biso   1.000  Cu
  Cu30     1.0000 0.48971  0.84344  0.79566  Biso   1.000  Cu
  O119     1.0000 0.50572  0.15077  0.00830  Biso   1.000  O
  O120     1.0000 0.68914  0.17600  0.01050  Biso   1.000  O
  H267     1.0000 0.51960  0.16770  0.29150  Biso   1.000  H
  H268     1.0000 0.50490  0.68290  0.27190  Biso   1.000  H
  C285     1.0000 0.52120  0.20600  0.57760  Biso   1.000  C
  H269     1.0000 0.52820  0.23550  0.62610  Biso   1.000  H
  C286     1.0000 0.52860  0.21430  0.45110  Biso   1.000  C
  H270     1.0000 0.53990  0.24720  0.41330  Biso   1.000  H
  C287     1.0000 0.50100  0.15500  0.64400  Biso   1.000  C
  H271     1.0000 0.49650  0.15160  0.73270  Biso   1.000  H
  C288     1.0000 0.49860  0.11600  0.43930  Biso   1.000  C
  H272     1.0000 0.49170  0.08660  0.39080  Biso   1.000  H
  C289     1.0000 0.49720  0.11690  0.57060  Biso   1.000  C
  H273     1.0000 0.48590  0.08400  0.60840  Biso   1.000  H
  C290     1.0000 0.45440  0.64850  0.54580  Biso   1.000  C
  H274     1.0000 0.42300  0.62710  0.58930  Biso   1.000  H
  C291     1.0000 0.46050  0.65220  0.42640  Biso   1.000  C
  H275     1.0000 0.42920  0.63080  0.38290  Biso   1.000  H
  C292     1.0000 0.50280  0.68320  0.62500  Biso   1.000  C
  H276     1.0000 0.50290  0.68320  0.71460  Biso   1.000  H
  C293     1.0000 0.55320  0.71230  0.43480  Biso   1.000  C
  H277     1.0000 0.58460  0.73380  0.39140  Biso   1.000  H
  C294     1.0000 0.55560  0.71340  0.55750  Biso   1.000  C
  H278     1.0000 0.58700  0.73480  0.60100  Biso   1.000  H
  N29      1.0000 0.51640  0.16560  0.38440  Biso   1.000  N
  N30      1.0000 0.50320  0.68380  0.36130  Biso   1.000  N
  H279     1.0000 0.50020  0.17490  0.03760  Biso   1.000  H
  H280     1.0000 0.48350  0.12080  0.04010  Biso   1.000  H
  H281     1.0000 0.49730  0.65790  0.02030  Biso   1.000  H
  H282     1.0000 0.54510  0.70590  0.01600  Biso   1.000  H
