data_image0
_cell_length_a       50.817
_cell_length_b       50.817
_cell_length_c       50.817
_cell_angle_alpha    90
_cell_angle_beta     90
_cell_angle_gamma    90

_symmetry_space_group_name_H-M    "P 1"
_symmetry_int_tables_number       1

loop_
  _symmetry_equiv_pos_as_xyz
  'x, y, z'

loop_
  _atom_site_label
  _atom_site_occupancy
  _atom_site_fract_x
  _atom_site_fract_y
  _atom_site_fract_z
  _atom_site_thermal_displace_type
  _atom_site_B_iso_or_equiv
  _atom_site_type_symbol
  S1       1.0000 0.70816  0.87629  0.08698  Biso   1.000  S
  O1       1.0000 0.83434  0.87509  0.03738  Biso   1.000  O
  O2       1.0000 0.82019  0.88822  0.07721  Biso   1.000  O
  O3       1.0000 0.66120  0.87558  0.12008  Biso   1.000  O
  C1       1.0000 0.81735  0.88058  0.05402  Biso   1.000  C
  C2       1.0000 0.78890  0.87794  0.04544  Biso   1.000  C
  C3       1.0000 0.74933  0.87562  0.02015  Biso   1.000  C
  C4       1.0000 0.74223  0.87586  0.04682  Biso   1.000  C
  C5       1.0000 0.71545  0.87559  0.05395  Biso   1.000  C
  C6       1.0000 0.76866  0.87930  0.05944  Biso   1.000  C
  H1       1.0000 0.77010  0.88080  0.07780  Biso   1.000  H
  S2       1.0000 0.78204  0.87666  0.01052  Biso   1.000  S
  C7       1.0000 0.77823  0.87589  0.02214  Biso   1.000  C
  H2       1.0000 0.78870  0.87450  0.00700  Biso   1.000  H
  S3       1.0000 0.76461  0.87696  0.07156  Biso   1.000  S
  C8       1.0000 0.69835  0.87633  0.07717  Biso   1.000  C
  H3       1.0000 0.70620  0.87570  0.09390  Biso   1.000  H
  S4       1.0000 0.70816  0.37629  0.58698  Biso   1.000  S
  O4       1.0000 0.83434  0.37509  0.53738  Biso   1.000  O
  O5       1.0000 0.82019  0.38822  0.57721  Biso   1.000  O
  O6       1.0000 0.66120  0.37558  0.62008  Biso   1.000  O
  C9       1.0000 0.81735  0.38058  0.55402  Biso   1.000  C
  C10      1.0000 0.78890  0.37794  0.54544  Biso   1.000  C
  C11      1.0000 0.74933  0.37562  0.52015  Biso   1.000  C
  C12      1.0000 0.74223  0.37586  0.54682  Biso   1.000  C
  C13      1.0000 0.71545  0.37559  0.55395  Biso   1.000  C
  C14      1.0000 0.76866  0.37930  0.55944  Biso   1.000  C
  H4       1.0000 0.77010  0.38080  0.57780  Biso   1.000  H
  S5       1.0000 0.78204  0.37666  0.51052  Biso   1.000  S
  C15      1.0000 0.77823  0.37589  0.52214  Biso   1.000  C
  H5       1.0000 0.78870  0.37450  0.50700  Biso   1.000  H
  S6       1.0000 0.76461  0.37696  0.57156  Biso   1.000  S
  C16      1.0000 0.69835  0.37633  0.57717  Biso   1.000  C
  H6       1.0000 0.70620  0.37570  0.59390  Biso   1.000  H
  S7       1.0000 0.20816  0.87629  0.58698  Biso   1.000  S
  O7       1.0000 0.33434  0.87509  0.53738  Biso   1.000  O
  O8       1.0000 0.32019  0.88822  0.57721  Biso   1.000  O
  O9       1.0000 0.16120  0.87558  0.62008  Biso   1.000  O
  C17      1.0000 0.31735  0.88058  0.55402  Biso   1.000  C
  C18      1.0000 0.28890  0.87794  0.54544  Biso   1.000  C
  C19      1.0000 0.24933  0.87562  0.52015  Biso   1.000  C
  C20      1.0000 0.24223  0.87586  0.54682  Biso   1.000  C
  C21      1.0000 0.21545  0.87559  0.55395  Biso   1.000  C
  C22      1.0000 0.26866  0.87930  0.55944  Biso   1.000  C
  H7       1.0000 0.27010  0.88080  0.57780  Biso   1.000  H
  S8       1.0000 0.28204  0.87666  0.51052  Biso   1.000  S
  C23      1.0000 0.27823  0.87589  0.52214  Biso   1.000  C
  H8       1.0000 0.28870  0.87450  0.50700  Biso   1.000  H
  S9       1.0000 0.26461  0.87696  0.57156  Biso   1.000  S
  C24      1.0000 0.19835  0.87633  0.57717  Biso   1.000  C
  H9       1.0000 0.20620  0.87570  0.59390  Biso   1.000  H
  S10      1.0000 0.20816  0.37629  0.08698  Biso   1.000  S
  O10      1.0000 0.33434  0.37509  0.03738  Biso   1.000  O
  O11      1.0000 0.32019  0.38822  0.07721  Biso   1.000  O
  O12      1.0000 0.16120  0.37558  0.12008  Biso   1.000  O
  C25      1.0000 0.31735  0.38058  0.05402  Biso   1.000  C
  C26      1.0000 0.28890  0.37794  0.04544  Biso   1.000  C
  C27      1.0000 0.24933  0.37562  0.02015  Biso   1.000  C
  C28      1.0000 0.24223  0.37586  0.04682  Biso   1.000  C
  C29      1.0000 0.21545  0.37559  0.05395  Biso   1.000  C
  C30      1.0000 0.26866  0.37930  0.05944  Biso   1.000  C
  H10      1.0000 0.27010  0.38080  0.07780  Biso   1.000  H
  S11      1.0000 0.28204  0.37666  0.01052  Biso   1.000  S
  C31      1.0000 0.27823  0.37589  0.02214  Biso   1.000  C
  H11      1.0000 0.28870  0.37450  0.00700  Biso   1.000  H
  S12      1.0000 0.26461  0.37696  0.07156  Biso   1.000  S
  C32      1.0000 0.19835  0.37633  0.07717  Biso   1.000  C
  H12      1.0000 0.20620  0.37570  0.09390  Biso   1.000  H
  S13      1.0000 0.04184  0.37371  0.58698  Biso   1.000  S
  O13      1.0000 0.91566  0.37491  0.53738  Biso   1.000  O
  O14      1.0000 0.92981  0.36178  0.57721  Biso   1.000  O
  O15      1.0000 0.08880  0.37442  0.62008  Biso   1.000  O
  C33      1.0000 0.93265  0.36942  0.55402  Biso   1.000  C
  C34      1.0000 0.96110  0.37206  0.54544  Biso   1.000  C
  C35      1.0000 0.00067  0.37438  0.52015  Biso   1.000  C
  C36      1.0000 0.00777  0.37414  0.54682  Biso   1.000  C
  C37      1.0000 0.03455  0.37441  0.55395  Biso   1.000  C
  C38      1.0000 0.98134  0.37070  0.55944  Biso   1.000  C
  H13      1.0000 0.97990  0.36920  0.57780  Biso   1.000  H
  S14      1.0000 0.96796  0.37334  0.51052  Biso   1.000  S
  C39      1.0000 0.97177  0.37411  0.52214  Biso   1.000  C
  H14      1.0000 0.96130  0.37550  0.50700  Biso   1.000  H
  S15      1.0000 0.98539  0.37304  0.57156  Biso   1.000  S
  C40      1.0000 0.05165  0.37367  0.57717  Biso   1.000  C
  H15      1.0000 0.04380  0.37430  0.59390  Biso   1.000  H
  S16      1.0000 0.04184  0.87371  0.08698  Biso   1.000  S
  O16      1.0000 0.91566  0.87491  0.03738  Biso   1.000  O
  O17      1.0000 0.92981  0.86178  0.07721  Biso   1.000  O
  O18      1.0000 0.08880  0.87442  0.12008  Biso   1.000  O
  C41      1.0000 0.93265  0.86942  0.05402  Biso   1.000  C
  C42      1.0000 0.96110  0.87206  0.04544  Biso   1.000  C
  C43      1.0000 0.00067  0.87438  0.02015  Biso   1.000  C
  C44      1.0000 0.00777  0.87414  0.04682  Biso   1.000  C
  C45      1.0000 0.03455  0.87441  0.05395  Biso   1.000  C
  C46      1.0000 0.98134  0.87070  0.05944  Biso   1.000  C
  H16      1.0000 0.97990  0.86920  0.07780  Biso   1.000  H
  S17      1.0000 0.96796  0.87334  0.01052  Biso   1.000  S
  C47      1.0000 0.97177  0.87411  0.02214  Biso   1.000  C
  H17      1.0000 0.96130  0.87550  0.00700  Biso   1.000  H
  S18      1.0000 0.98539  0.87304  0.07156  Biso   1.000  S
  C48      1.0000 0.05165  0.87367  0.07717  Biso   1.000  C
  H18      1.0000 0.04380  0.87430  0.09390  Biso   1.000  H
  S19      1.0000 0.54184  0.37371  0.08698  Biso   1.000  S
  O19      1.0000 0.41566  0.37491  0.03738  Biso   1.000  O
  O20      1.0000 0.42981  0.36178  0.07721  Biso   1.000  O
  O21      1.0000 0.58880  0.37442  0.12008  Biso   1.000  O
  C49      1.0000 0.43265  0.36942  0.05402  Biso   1.000  C
  C50      1.0000 0.46110  0.37206  0.04544  Biso   1.000  C
  C51      1.0000 0.50067  0.37438  0.02015  Biso   1.000  C
  C52      1.0000 0.50777  0.37414  0.04682  Biso   1.000  C
  C53      1.0000 0.53455  0.37441  0.05395  Biso   1.000  C
  C54      1.0000 0.48134  0.37070  0.05944  Biso   1.000  C
  H19      1.0000 0.47990  0.36920  0.07780  Biso   1.000  H
  S20      1.0000 0.46796  0.37334  0.01052  Biso   1.000  S
  C55      1.0000 0.47177  0.37411  0.02214  Biso   1.000  C
  H20      1.0000 0.46130  0.37550  0.00700  Biso   1.000  H
  S21      1.0000 0.48539  0.37304  0.07156  Biso   1.000  S
  C56      1.0000 0.55165  0.37367  0.07717  Biso   1.000  C
  H21      1.0000 0.54380  0.37430  0.09390  Biso   1.000  H
  S22      1.0000 0.54184  0.87371  0.58698  Biso   1.000  S
  O22      1.0000 0.41566  0.87491  0.53738  Biso   1.000  O
  O23      1.0000 0.42981  0.86178  0.57721  Biso   1.000  O
  O24      1.0000 0.58880  0.87442  0.62008  Biso   1.000  O
  C57      1.0000 0.43265  0.86942  0.55402  Biso   1.000  C
  C58      1.0000 0.46110  0.87206  0.54544  Biso   1.000  C
  C59      1.0000 0.50067  0.87438  0.52015  Biso   1.000  C
  C60      1.0000 0.50777  0.87414  0.54682  Biso   1.000  C
  C61      1.0000 0.53455  0.87441  0.55395  Biso   1.000  C
  C62      1.0000 0.48134  0.87070  0.55944  Biso   1.000  C
  H22      1.0000 0.47990  0.86920  0.57780  Biso   1.000  H
  S23      1.0000 0.46796  0.87334  0.51052  Biso   1.000  S
  C63      1.0000 0.47177  0.87411  0.52214  Biso   1.000  C
  H23      1.0000 0.46130  0.87550  0.50700  Biso   1.000  H
  S24      1.0000 0.48539  0.87304  0.57156  Biso   1.000  S
  C64      1.0000 0.55165  0.87367  0.57717  Biso   1.000  C
  H24      1.0000 0.54380  0.87430  0.59390  Biso   1.000  H
  S25      1.0000 0.54184  0.37629  0.66302  Biso   1.000  S
  O25      1.0000 0.41566  0.37509  0.71262  Biso   1.000  O
  O26      1.0000 0.42981  0.38822  0.67279  Biso   1.000  O
  O27      1.0000 0.58880  0.37558  0.62992  Biso   1.000  O
  C65      1.0000 0.43265  0.38058  0.69598  Biso   1.000  C
  C66      1.0000 0.46110  0.37794  0.70456  Biso   1.000  C
  C67      1.0000 0.50067  0.37562  0.72985  Biso   1.000  C
  C68      1.0000 0.50777  0.37586  0.70318  Biso   1.000  C
  C69      1.0000 0.53455  0.37559  0.69605  Biso   1.000  C
  C70      1.0000 0.48134  0.37930  0.69056  Biso   1.000  C
  H25      1.0000 0.47990  0.38080  0.67220  Biso   1.000  H
  S26      1.0000 0.46796  0.37666  0.73948  Biso   1.000  S
  C71      1.0000 0.47177  0.37589  0.72786  Biso   1.000  C
  H26      1.0000 0.46130  0.37450  0.74300  Biso   1.000  H
  S27      1.0000 0.48539  0.37696  0.67844  Biso   1.000  S
  C72      1.0000 0.55165  0.37633  0.67283  Biso   1.000  C
  H27      1.0000 0.54380  0.37570  0.65610  Biso   1.000  H
  S28      1.0000 0.54184  0.87629  0.16302  Biso   1.000  S
  O28      1.0000 0.41566  0.87509  0.21262  Biso   1.000  O
  O29      1.0000 0.42981  0.88822  0.17279  Biso   1.000  O
  O30      1.0000 0.58880  0.87558  0.12992  Biso   1.000  O
  C73      1.0000 0.43265  0.88058  0.19598  Biso   1.000  C
  C74      1.0000 0.46110  0.87794  0.20456  Biso   1.000  C
  C75      1.0000 0.50067  0.87562  0.22985  Biso   1.000  C
  C76      1.0000 0.50777  0.87586  0.20318  Biso   1.000  C
  C77      1.0000 0.53455  0.87559  0.19605  Biso   1.000  C
  C78      1.0000 0.48134  0.87930  0.19056  Biso   1.000  C
  H28      1.0000 0.47990  0.88080  0.17220  Biso   1.000  H
  S29      1.0000 0.46796  0.87666  0.23948  Biso   1.000  S
  C79      1.0000 0.47177  0.87589  0.22786  Biso   1.000  C
  H29      1.0000 0.46130  0.87450  0.24300  Biso   1.000  H
  S30      1.0000 0.48539  0.87696  0.17844  Biso   1.000  S
  C80      1.0000 0.55165  0.87633  0.17283  Biso   1.000  C
  H30      1.0000 0.54380  0.87570  0.15610  Biso   1.000  H
  S31      1.0000 0.04184  0.37629  0.16302  Biso   1.000  S
  O31      1.0000 0.91566  0.37509  0.21262  Biso   1.000  O
  O32      1.0000 0.92981  0.38822  0.17279  Biso   1.000  O
  O33      1.0000 0.08880  0.37558  0.12992  Biso   1.000  O
  C81      1.0000 0.93265  0.38058  0.19598  Biso   1.000  C
  C82      1.0000 0.96110  0.37794  0.20456  Biso   1.000  C
  C83      1.0000 0.00067  0.37562  0.22985  Biso   1.000  C
  C84      1.0000 0.00777  0.37586  0.20318  Biso   1.000  C
  C85      1.0000 0.03455  0.37559  0.19605  Biso   1.000  C
  C86      1.0000 0.98134  0.37930  0.19056  Biso   1.000  C
  H31      1.0000 0.97990  0.38080  0.17220  Biso   1.000  H
  S32      1.0000 0.96796  0.37666  0.23948  Biso   1.000  S
  C87      1.0000 0.97177  0.37589  0.22786  Biso   1.000  C
  H32      1.0000 0.96130  0.37450  0.24300  Biso   1.000  H
  S33      1.0000 0.98539  0.37696  0.17844  Biso   1.000  S
  C88      1.0000 0.05165  0.37633  0.17283  Biso   1.000  C
  H33      1.0000 0.04380  0.37570  0.15610  Biso   1.000  H
  S34      1.0000 0.04184  0.87629  0.66302  Biso   1.000  S
  O34      1.0000 0.91566  0.87509  0.71262  Biso   1.000  O
  O35      1.0000 0.92981  0.88822  0.67279  Biso   1.000  O
  O36      1.0000 0.08880  0.87558  0.62992  Biso   1.000  O
  C89      1.0000 0.93265  0.88058  0.69598  Biso   1.000  C
  C90      1.0000 0.96110  0.87794  0.70456  Biso   1.000  C
  C91      1.0000 0.00067  0.87562  0.72985  Biso   1.000  C
  C92      1.0000 0.00777  0.87586  0.70318  Biso   1.000  C
  C93      1.0000 0.03455  0.87559  0.69605  Biso   1.000  C
  C94      1.0000 0.98134  0.87930  0.69056  Biso   1.000  C
  H34      1.0000 0.97990  0.88080  0.67220  Biso   1.000  H
  S35      1.0000 0.96796  0.87666  0.73948  Biso   1.000  S
  C95      1.0000 0.97177  0.87589  0.72786  Biso   1.000  C
  H35      1.0000 0.96130  0.87450  0.74300  Biso   1.000  H
  S36      1.0000 0.98539  0.87696  0.67844  Biso   1.000  S
  C96      1.0000 0.05165  0.87633  0.67283  Biso   1.000  C
  H36      1.0000 0.04380  0.87570  0.65610  Biso   1.000  H
  S37      1.0000 0.20816  0.87371  0.16302  Biso   1.000  S
  O37      1.0000 0.33434  0.87491  0.21262  Biso   1.000  O
  O38      1.0000 0.32019  0.86178  0.17279  Biso   1.000  O
  O39      1.0000 0.16120  0.87442  0.12992  Biso   1.000  O
  C97      1.0000 0.31735  0.86942  0.19598  Biso   1.000  C
  C98      1.0000 0.28890  0.87206  0.20456  Biso   1.000  C
  C99      1.0000 0.24933  0.87438  0.22985  Biso   1.000  C
  C100     1.0000 0.24223  0.87414  0.20318  Biso   1.000  C
  C101     1.0000 0.21545  0.87441  0.19605  Biso   1.000  C
  C102     1.0000 0.26866  0.87070  0.19056  Biso   1.000  C
  H37      1.0000 0.27010  0.86920  0.17220  Biso   1.000  H
  S38      1.0000 0.28204  0.87334  0.23948  Biso   1.000  S
  C103     1.0000 0.27823  0.87411  0.22786  Biso   1.000  C
  H38      1.0000 0.28870  0.87550  0.24300  Biso   1.000  H
  S39      1.0000 0.26461  0.87304  0.17844  Biso   1.000  S
  C104     1.0000 0.19835  0.87367  0.17283  Biso   1.000  C
  H39      1.0000 0.20620  0.87430  0.15610  Biso   1.000  H
  S40      1.0000 0.20816  0.37371  0.66302  Biso   1.000  S
  O40      1.0000 0.33434  0.37491  0.71262  Biso   1.000  O
  O41      1.0000 0.32019  0.36178  0.67279  Biso   1.000  O
  O42      1.0000 0.16120  0.37442  0.62992  Biso   1.000  O
  C105     1.0000 0.31735  0.36942  0.69598  Biso   1.000  C
  C106     1.0000 0.28890  0.37206  0.70456  Biso   1.000  C
  C107     1.0000 0.24933  0.37438  0.72985  Biso   1.000  C
  C108     1.0000 0.24223  0.37414  0.70318  Biso   1.000  C
  C109     1.0000 0.21545  0.37441  0.69605  Biso   1.000  C
  C110     1.0000 0.26866  0.37070  0.69056  Biso   1.000  C
  H40      1.0000 0.27010  0.36920  0.67220  Biso   1.000  H
  S41      1.0000 0.28204  0.37334  0.73948  Biso   1.000  S
  C111     1.0000 0.27823  0.37411  0.72786  Biso   1.000  C
  H41      1.0000 0.28870  0.37550  0.74300  Biso   1.000  H
  S42      1.0000 0.26461  0.37304  0.67844  Biso   1.000  S
  C112     1.0000 0.19835  0.37367  0.67283  Biso   1.000  C
  H42      1.0000 0.20620  0.37430  0.65610  Biso   1.000  H
  S43      1.0000 0.70816  0.87371  0.66302  Biso   1.000  S
  O43      1.0000 0.83434  0.87491  0.71262  Biso   1.000  O
  O44      1.0000 0.82019  0.86178  0.67279  Biso   1.000  O
  O45      1.0000 0.66120  0.87442  0.62992  Biso   1.000  O
  C113     1.0000 0.81735  0.86942  0.69598  Biso   1.000  C
  C114     1.0000 0.78890  0.87206  0.70456  Biso   1.000  C
  C115     1.0000 0.74933  0.87438  0.72985  Biso   1.000  C
  C116     1.0000 0.74223  0.87414  0.70318  Biso   1.000  C
  C117     1.0000 0.71545  0.87441  0.69605  Biso   1.000  C
  C118     1.0000 0.76866  0.87070  0.69056  Biso   1.000  C
  H43      1.0000 0.77010  0.86920  0.67220  Biso   1.000  H
  S44      1.0000 0.78204  0.87334  0.73948  Biso   1.000  S
  C119     1.0000 0.77823  0.87411  0.72786  Biso   1.000  C
  H44      1.0000 0.78870  0.87550  0.74300  Biso   1.000  H
  S45      1.0000 0.76461  0.87304  0.67844  Biso   1.000  S
  C120     1.0000 0.69835  0.87367  0.67283  Biso   1.000  C
  H45      1.0000 0.70620  0.87430  0.65610  Biso   1.000  H
  S46      1.0000 0.70816  0.37371  0.16302  Biso   1.000  S
  O46      1.0000 0.83434  0.37491  0.21262  Biso   1.000  O
  O47      1.0000 0.82019  0.36178  0.17279  Biso   1.000  O
  O48      1.0000 0.66120  0.37442  0.12992  Biso   1.000  O
  C121     1.0000 0.81735  0.36942  0.19598  Biso   1.000  C
  C122     1.0000 0.78890  0.37206  0.20456  Biso   1.000  C
  C123     1.0000 0.74933  0.37438  0.22985  Biso   1.000  C
  C124     1.0000 0.74223  0.37414  0.20318  Biso   1.000  C
  C125     1.0000 0.71545  0.37441  0.19605  Biso   1.000  C
  C126     1.0000 0.76866  0.37070  0.19056  Biso   1.000  C
  H46      1.0000 0.77010  0.36920  0.17220  Biso   1.000  H
  S47      1.0000 0.78204  0.37334  0.23948  Biso   1.000  S
  C127     1.0000 0.77823  0.37411  0.22786  Biso   1.000  C
  H47      1.0000 0.78870  0.37550  0.24300  Biso   1.000  H
  S48      1.0000 0.76461  0.37304  0.17844  Biso   1.000  S
  C128     1.0000 0.69835  0.37367  0.17283  Biso   1.000  C
  H48      1.0000 0.70620  0.37430  0.15610  Biso   1.000  H
  S49      1.0000 0.08698  0.70816  0.87629  Biso   1.000  S
  O49      1.0000 0.03738  0.83434  0.87509  Biso   1.000  O
  O50      1.0000 0.07721  0.82019  0.88822  Biso   1.000  O
  O51      1.0000 0.12008  0.66120  0.87558  Biso   1.000  O
  C129     1.0000 0.05402  0.81735  0.88058  Biso   1.000  C
  C130     1.0000 0.04544  0.78890  0.87794  Biso   1.000  C
  C131     1.0000 0.02015  0.74933  0.87562  Biso   1.000  C
  C132     1.0000 0.04682  0.74223  0.87586  Biso   1.000  C
  C133     1.0000 0.05395  0.71545  0.87559  Biso   1.000  C
  C134     1.0000 0.05944  0.76866  0.87930  Biso   1.000  C
  H49      1.0000 0.07780  0.77010  0.88080  Biso   1.000  H
  S50      1.0000 0.01052  0.78204  0.87666  Biso   1.000  S
  C135     1.0000 0.02214  0.77823  0.87589  Biso   1.000  C
  H50      1.0000 0.00700  0.78870  0.87450  Biso   1.000  H
  S51      1.0000 0.07156  0.76461  0.87696  Biso   1.000  S
  C136     1.0000 0.07717  0.69835  0.87633  Biso   1.000  C
  H51      1.0000 0.09390  0.70620  0.87570  Biso   1.000  H
  S52      1.0000 0.08698  0.20816  0.37629  Biso   1.000  S
  O52      1.0000 0.03738  0.33434  0.37509  Biso   1.000  O
  O53      1.0000 0.07721  0.32019  0.38822  Biso   1.000  O
  O54      1.0000 0.12008  0.16120  0.37558  Biso   1.000  O
  C137     1.0000 0.05402  0.31735  0.38058  Biso   1.000  C
  C138     1.0000 0.04544  0.28890  0.37794  Biso   1.000  C
  C139     1.0000 0.02015  0.24933  0.37562  Biso   1.000  C
  C140     1.0000 0.04682  0.24223  0.37586  Biso   1.000  C
  C141     1.0000 0.05395  0.21545  0.37559  Biso   1.000  C
  C142     1.0000 0.05944  0.26866  0.37930  Biso   1.000  C
  H52      1.0000 0.07780  0.27010  0.38080  Biso   1.000  H
  S53      1.0000 0.01052  0.28204  0.37666  Biso   1.000  S
  C143     1.0000 0.02214  0.27823  0.37589  Biso   1.000  C
  H53      1.0000 0.00700  0.28870  0.37450  Biso   1.000  H
  S54      1.0000 0.07156  0.26461  0.37696  Biso   1.000  S
  C144     1.0000 0.07717  0.19835  0.37633  Biso   1.000  C
  H54      1.0000 0.09390  0.20620  0.37570  Biso   1.000  H
  S55      1.0000 0.58698  0.70816  0.37629  Biso   1.000  S
  O55      1.0000 0.53738  0.83434  0.37509  Biso   1.000  O
  O56      1.0000 0.57721  0.82019  0.38822  Biso   1.000  O
  O57      1.0000 0.62008  0.66120  0.37558  Biso   1.000  O
  C145     1.0000 0.55402  0.81735  0.38058  Biso   1.000  C
  C146     1.0000 0.54544  0.78890  0.37794  Biso   1.000  C
  C147     1.0000 0.52015  0.74933  0.37562  Biso   1.000  C
  C148     1.0000 0.54682  0.74223  0.37586  Biso   1.000  C
  C149     1.0000 0.55395  0.71545  0.37559  Biso   1.000  C
  C150     1.0000 0.55944  0.76866  0.37930  Biso   1.000  C
  H55      1.0000 0.57780  0.77010  0.38080  Biso   1.000  H
  S56      1.0000 0.51052  0.78204  0.37666  Biso   1.000  S
  C151     1.0000 0.52214  0.77823  0.37589  Biso   1.000  C
  H56      1.0000 0.50700  0.78870  0.37450  Biso   1.000  H
  S57      1.0000 0.57156  0.76461  0.37696  Biso   1.000  S
  C152     1.0000 0.57717  0.69835  0.37633  Biso   1.000  C
  H57      1.0000 0.59390  0.70620  0.37570  Biso   1.000  H
  S58      1.0000 0.58698  0.20816  0.87629  Biso   1.000  S
  O58      1.0000 0.53738  0.33434  0.87509  Biso   1.000  O
  O59      1.0000 0.57721  0.32019  0.88822  Biso   1.000  O
  O60      1.0000 0.62008  0.16120  0.87558  Biso   1.000  O
  C153     1.0000 0.55402  0.31735  0.88058  Biso   1.000  C
  C154     1.0000 0.54544  0.28890  0.87794  Biso   1.000  C
  C155     1.0000 0.52015  0.24933  0.87562  Biso   1.000  C
  C156     1.0000 0.54682  0.24223  0.87586  Biso   1.000  C
  C157     1.0000 0.55395  0.21545  0.87559  Biso   1.000  C
  C158     1.0000 0.55944  0.26866  0.87930  Biso   1.000  C
  H58      1.0000 0.57780  0.27010  0.88080  Biso   1.000  H
  S59      1.0000 0.51052  0.28204  0.87666  Biso   1.000  S
  C159     1.0000 0.52214  0.27823  0.87589  Biso   1.000  C
  H59      1.0000 0.50700  0.28870  0.87450  Biso   1.000  H
  S60      1.0000 0.57156  0.26461  0.87696  Biso   1.000  S
  C160     1.0000 0.57717  0.19835  0.87633  Biso   1.000  C
  H60      1.0000 0.59390  0.20620  0.87570  Biso   1.000  H
  S61      1.0000 0.58698  0.04184  0.37371  Biso   1.000  S
  O61      1.0000 0.53738  0.91566  0.37491  Biso   1.000  O
  O62      1.0000 0.57721  0.92981  0.36178  Biso   1.000  O
  O63      1.0000 0.62008  0.08880  0.37442  Biso   1.000  O
  C161     1.0000 0.55402  0.93265  0.36942  Biso   1.000  C
  C162     1.0000 0.54544  0.96110  0.37206  Biso   1.000  C
  C163     1.0000 0.52015  0.00067  0.37438  Biso   1.000  C
  C164     1.0000 0.54682  0.00777  0.37414  Biso   1.000  C
  C165     1.0000 0.55395  0.03455  0.37441  Biso   1.000  C
  C166     1.0000 0.55944  0.98134  0.37070  Biso   1.000  C
  H61      1.0000 0.57780  0.97990  0.36920  Biso   1.000  H
  S62      1.0000 0.51052  0.96796  0.37334  Biso   1.000  S
  C167     1.0000 0.52214  0.97177  0.37411  Biso   1.000  C
  H62      1.0000 0.50700  0.96130  0.37550  Biso   1.000  H
  S63      1.0000 0.57156  0.98539  0.37304  Biso   1.000  S
  C168     1.0000 0.57717  0.05165  0.37367  Biso   1.000  C
  H63      1.0000 0.59390  0.04380  0.37430  Biso   1.000  H
  S64      1.0000 0.58698  0.54184  0.87371  Biso   1.000  S
  O64      1.0000 0.53738  0.41566  0.87491  Biso   1.000  O
  O65      1.0000 0.57721  0.42981  0.86178  Biso   1.000  O
  O66      1.0000 0.62008  0.58880  0.87442  Biso   1.000  O
  C169     1.0000 0.55402  0.43265  0.86942  Biso   1.000  C
  C170     1.0000 0.54544  0.46110  0.87206  Biso   1.000  C
  C171     1.0000 0.52015  0.50067  0.87438  Biso   1.000  C
  C172     1.0000 0.54682  0.50777  0.87414  Biso   1.000  C
  C173     1.0000 0.55395  0.53455  0.87441  Biso   1.000  C
  C174     1.0000 0.55944  0.48134  0.87070  Biso   1.000  C
  H64      1.0000 0.57780  0.47990  0.86920  Biso   1.000  H
  S65      1.0000 0.51052  0.46796  0.87334  Biso   1.000  S
  C175     1.0000 0.52214  0.47177  0.87411  Biso   1.000  C
  H65      1.0000 0.50700  0.46130  0.87550  Biso   1.000  H
  S66      1.0000 0.57156  0.48539  0.87304  Biso   1.000  S
  C176     1.0000 0.57717  0.55165  0.87367  Biso   1.000  C
  H66      1.0000 0.59390  0.54380  0.87430  Biso   1.000  H
  S67      1.0000 0.08698  0.04184  0.87371  Biso   1.000  S
  O67      1.0000 0.03738  0.91566  0.87491  Biso   1.000  O
  O68      1.0000 0.07721  0.92981  0.86178  Biso   1.000  O
  O69      1.0000 0.12008  0.08880  0.87442  Biso   1.000  O
  C177     1.0000 0.05402  0.93265  0.86942  Biso   1.000  C
  C178     1.0000 0.04544  0.96110  0.87206  Biso   1.000  C
  C179     1.0000 0.02015  0.00067  0.87438  Biso   1.000  C
  C180     1.0000 0.04682  0.00777  0.87414  Biso   1.000  C
  C181     1.0000 0.05395  0.03455  0.87441  Biso   1.000  C
  C182     1.0000 0.05944  0.98134  0.87070  Biso   1.000  C
  H67      1.0000 0.07780  0.97990  0.86920  Biso   1.000  H
  S68      1.0000 0.01052  0.96796  0.87334  Biso   1.000  S
  C183     1.0000 0.02214  0.97177  0.87411  Biso   1.000  C
  H68      1.0000 0.00700  0.96130  0.87550  Biso   1.000  H
  S69      1.0000 0.07156  0.98539  0.87304  Biso   1.000  S
  C184     1.0000 0.07717  0.05165  0.87367  Biso   1.000  C
  H69      1.0000 0.09390  0.04380  0.87430  Biso   1.000  H
  S70      1.0000 0.08698  0.54184  0.37371  Biso   1.000  S
  O70      1.0000 0.03738  0.41566  0.37491  Biso   1.000  O
  O71      1.0000 0.07721  0.42981  0.36178  Biso   1.000  O
  O72      1.0000 0.12008  0.58880  0.37442  Biso   1.000  O
  C185     1.0000 0.05402  0.43265  0.36942  Biso   1.000  C
  C186     1.0000 0.04544  0.46110  0.37206  Biso   1.000  C
  C187     1.0000 0.02015  0.50067  0.37438  Biso   1.000  C
  C188     1.0000 0.04682  0.50777  0.37414  Biso   1.000  C
  C189     1.0000 0.05395  0.53455  0.37441  Biso   1.000  C
  C190     1.0000 0.05944  0.48134  0.37070  Biso   1.000  C
  H70      1.0000 0.07780  0.47990  0.36920  Biso   1.000  H
  S71      1.0000 0.01052  0.46796  0.37334  Biso   1.000  S
  C191     1.0000 0.02214  0.47177  0.37411  Biso   1.000  C
  H71      1.0000 0.00700  0.46130  0.37550  Biso   1.000  H
  S72      1.0000 0.07156  0.48539  0.37304  Biso   1.000  S
  C192     1.0000 0.07717  0.55165  0.37367  Biso   1.000  C
  H72      1.0000 0.09390  0.54380  0.37430  Biso   1.000  H
  S73      1.0000 0.66302  0.54184  0.37629  Biso   1.000  S
  O73      1.0000 0.71262  0.41566  0.37509  Biso   1.000  O
  O74      1.0000 0.67279  0.42981  0.38822  Biso   1.000  O
  O75      1.0000 0.62992  0.58880  0.37558  Biso   1.000  O
  C193     1.0000 0.69598  0.43265  0.38058  Biso   1.000  C
  C194     1.0000 0.70456  0.46110  0.37794  Biso   1.000  C
  C195     1.0000 0.72985  0.50067  0.37562  Biso   1.000  C
  C196     1.0000 0.70318  0.50777  0.37586  Biso   1.000  C
  C197     1.0000 0.69605  0.53455  0.37559  Biso   1.000  C
  C198     1.0000 0.69056  0.48134  0.37930  Biso   1.000  C
  H73      1.0000 0.67220  0.47990  0.38080  Biso   1.000  H
  S74      1.0000 0.73948  0.46796  0.37666  Biso   1.000  S
  C199     1.0000 0.72786  0.47177  0.37589  Biso   1.000  C
  H74      1.0000 0.74300  0.46130  0.37450  Biso   1.000  H
  S75      1.0000 0.67844  0.48539  0.37696  Biso   1.000  S
  C200     1.0000 0.67283  0.55165  0.37633  Biso   1.000  C
  H75      1.0000 0.65610  0.54380  0.37570  Biso   1.000  H
  S76      1.0000 0.66302  0.04184  0.87629  Biso   1.000  S
  O76      1.0000 0.71262  0.91566  0.87509  Biso   1.000  O
  O77      1.0000 0.67279  0.92981  0.88822  Biso   1.000  O
  O78      1.0000 0.62992  0.08880  0.87558  Biso   1.000  O
  C201     1.0000 0.69598  0.93265  0.88058  Biso   1.000  C
  C202     1.0000 0.70456  0.96110  0.87794  Biso   1.000  C
  C203     1.0000 0.72985  0.00067  0.87562  Biso   1.000  C
  C204     1.0000 0.70318  0.00777  0.87586  Biso   1.000  C
  C205     1.0000 0.69605  0.03455  0.87559  Biso   1.000  C
  C206     1.0000 0.69056  0.98134  0.87930  Biso   1.000  C
  H76      1.0000 0.67220  0.97990  0.88080  Biso   1.000  H
  S77      1.0000 0.73948  0.96796  0.87666  Biso   1.000  S
  C207     1.0000 0.72786  0.97177  0.87589  Biso   1.000  C
  H77      1.0000 0.74300  0.96130  0.87450  Biso   1.000  H
  S78      1.0000 0.67844  0.98539  0.87696  Biso   1.000  S
  C208     1.0000 0.67283  0.05165  0.87633  Biso   1.000  C
  H78      1.0000 0.65610  0.04380  0.87570  Biso   1.000  H
  S79      1.0000 0.16302  0.54184  0.87629  Biso   1.000  S
  O79      1.0000 0.21262  0.41566  0.87509  Biso   1.000  O
  O80      1.0000 0.17279  0.42981  0.88822  Biso   1.000  O
  O81      1.0000 0.12992  0.58880  0.87558  Biso   1.000  O
  C209     1.0000 0.19598  0.43265  0.88058  Biso   1.000  C
  C210     1.0000 0.20456  0.46110  0.87794  Biso   1.000  C
  C211     1.0000 0.22985  0.50067  0.87562  Biso   1.000  C
  C212     1.0000 0.20318  0.50777  0.87586  Biso   1.000  C
  C213     1.0000 0.19605  0.53455  0.87559  Biso   1.000  C
  C214     1.0000 0.19056  0.48134  0.87930  Biso   1.000  C
  H79      1.0000 0.17220  0.47990  0.88080  Biso   1.000  H
  S80      1.0000 0.23948  0.46796  0.87666  Biso   1.000  S
  C215     1.0000 0.22786  0.47177  0.87589  Biso   1.000  C
  H80      1.0000 0.24300  0.46130  0.87450  Biso   1.000  H
  S81      1.0000 0.17844  0.48539  0.87696  Biso   1.000  S
  C216     1.0000 0.17283  0.55165  0.87633  Biso   1.000  C
  H81      1.0000 0.15610  0.54380  0.87570  Biso   1.000  H
  S82      1.0000 0.16302  0.04184  0.37629  Biso   1.000  S
  O82      1.0000 0.21262  0.91566  0.37509  Biso   1.000  O
  O83      1.0000 0.17279  0.92981  0.38822  Biso   1.000  O
  O84      1.0000 0.12992  0.08880  0.37558  Biso   1.000  O
  C217     1.0000 0.19598  0.93265  0.38058  Biso   1.000  C
  C218     1.0000 0.20456  0.96110  0.37794  Biso   1.000  C
  C219     1.0000 0.22985  0.00067  0.37562  Biso   1.000  C
  C220     1.0000 0.20318  0.00777  0.37586  Biso   1.000  C
  C221     1.0000 0.19605  0.03455  0.37559  Biso   1.000  C
  C222     1.0000 0.19056  0.98134  0.37930  Biso   1.000  C
  H82      1.0000 0.17220  0.97990  0.38080  Biso   1.000  H
  S83      1.0000 0.23948  0.96796  0.37666  Biso   1.000  S
  C223     1.0000 0.22786  0.97177  0.37589  Biso   1.000  C
  H83      1.0000 0.24300  0.96130  0.37450  Biso   1.000  H
  S84      1.0000 0.17844  0.98539  0.37696  Biso   1.000  S
  C224     1.0000 0.17283  0.05165  0.37633  Biso   1.000  C
  H84      1.0000 0.15610  0.04380  0.37570  Biso   1.000  H
  S85      1.0000 0.16302  0.20816  0.87371  Biso   1.000  S
  O85      1.0000 0.21262  0.33434  0.87491  Biso   1.000  O
  O86      1.0000 0.17279  0.32019  0.86178  Biso   1.000  O
  O87      1.0000 0.12992  0.16120  0.87442  Biso   1.000  O
  C225     1.0000 0.19598  0.31735  0.86942  Biso   1.000  C
  C226     1.0000 0.20456  0.28890  0.87206  Biso   1.000  C
  C227     1.0000 0.22985  0.24933  0.87438  Biso   1.000  C
  C228     1.0000 0.20318  0.24223  0.87414  Biso   1.000  C
  C229     1.0000 0.19605  0.21545  0.87441  Biso   1.000  C
  C230     1.0000 0.19056  0.26866  0.87070  Biso   1.000  C
  H85      1.0000 0.17220  0.27010  0.86920  Biso   1.000  H
  S86      1.0000 0.23948  0.28204  0.87334  Biso   1.000  S
  C231     1.0000 0.22786  0.27823  0.87411  Biso   1.000  C
  H86      1.0000 0.24300  0.28870  0.87550  Biso   1.000  H
  S87      1.0000 0.17844  0.26461  0.87304  Biso   1.000  S
  C232     1.0000 0.17283  0.19835  0.87367  Biso   1.000  C
  H87      1.0000 0.15610  0.20620  0.87430  Biso   1.000  H
  S88      1.0000 0.16302  0.70816  0.37371  Biso   1.000  S
  O88      1.0000 0.21262  0.83434  0.37491  Biso   1.000  O
  O89      1.0000 0.17279  0.82019  0.36178  Biso   1.000  O
  O90      1.0000 0.12992  0.66120  0.37442  Biso   1.000  O
  C233     1.0000 0.19598  0.81735  0.36942  Biso   1.000  C
  C234     1.0000 0.20456  0.78890  0.37206  Biso   1.000  C
  C235     1.0000 0.22985  0.74933  0.37438  Biso   1.000  C
  C236     1.0000 0.20318  0.74223  0.37414  Biso   1.000  C
  C237     1.0000 0.19605  0.71545  0.37441  Biso   1.000  C
  C238     1.0000 0.19056  0.76866  0.37070  Biso   1.000  C
  H88      1.0000 0.17220  0.77010  0.36920  Biso   1.000  H
  S89      1.0000 0.23948  0.78204  0.37334  Biso   1.000  S
  C239     1.0000 0.22786  0.77823  0.37411  Biso   1.000  C
  H89      1.0000 0.24300  0.78870  0.37550  Biso   1.000  H
  S90      1.0000 0.17844  0.76461  0.37304  Biso   1.000  S
  C240     1.0000 0.17283  0.69835  0.37367  Biso   1.000  C
  H90      1.0000 0.15610  0.70620  0.37430  Biso   1.000  H
  S91      1.0000 0.66302  0.20816  0.37371  Biso   1.000  S
  O91      1.0000 0.71262  0.33434  0.37491  Biso   1.000  O
  O92      1.0000 0.67279  0.32019  0.36178  Biso   1.000  O
  O93      1.0000 0.62992  0.16120  0.37442  Biso   1.000  O
  C241     1.0000 0.69598  0.31735  0.36942  Biso   1.000  C
  C242     1.0000 0.70456  0.28890  0.37206  Biso   1.000  C
  C243     1.0000 0.72985  0.24933  0.37438  Biso   1.000  C
  C244     1.0000 0.70318  0.24223  0.37414  Biso   1.000  C
  C245     1.0000 0.69605  0.21545  0.37441  Biso   1.000  C
  C246     1.0000 0.69056  0.26866  0.37070  Biso   1.000  C
  H91      1.0000 0.67220  0.27010  0.36920  Biso   1.000  H
  S92      1.0000 0.73948  0.28204  0.37334  Biso   1.000  S
  C247     1.0000 0.72786  0.27823  0.37411  Biso   1.000  C
  H92      1.0000 0.74300  0.28870  0.37550  Biso   1.000  H
  S93      1.0000 0.67844  0.26461  0.37304  Biso   1.000  S
  C248     1.0000 0.67283  0.19835  0.37367  Biso   1.000  C
  H93      1.0000 0.65610  0.20620  0.37430  Biso   1.000  H
  S94      1.0000 0.66302  0.70816  0.87371  Biso   1.000  S
  O94      1.0000 0.71262  0.83434  0.87491  Biso   1.000  O
  O95      1.0000 0.67279  0.82019  0.86178  Biso   1.000  O
  O96      1.0000 0.62992  0.66120  0.87442  Biso   1.000  O
  C249     1.0000 0.69598  0.81735  0.86942  Biso   1.000  C
  C250     1.0000 0.70456  0.78890  0.87206  Biso   1.000  C
  C251     1.0000 0.72985  0.74933  0.87438  Biso   1.000  C
  C252     1.0000 0.70318  0.74223  0.87414  Biso   1.000  C
  C253     1.0000 0.69605  0.71545  0.87441  Biso   1.000  C
  C254     1.0000 0.69056  0.76866  0.87070  Biso   1.000  C
  H94      1.0000 0.67220  0.77010  0.86920  Biso   1.000  H
  S95      1.0000 0.73948  0.78204  0.87334  Biso   1.000  S
  C255     1.0000 0.72786  0.77823  0.87411  Biso   1.000  C
  H95      1.0000 0.74300  0.78870  0.87550  Biso   1.000  H
  S96      1.0000 0.67844  0.76461  0.87304  Biso   1.000  S
  C256     1.0000 0.67283  0.69835  0.87367  Biso   1.000  C
  H96      1.0000 0.65610  0.70620  0.87430  Biso   1.000  H
  S97      1.0000 0.87629  0.08698  0.70816  Biso   1.000  S
  O97      1.0000 0.87509  0.03738  0.83434  Biso   1.000  O
  O98      1.0000 0.88822  0.07721  0.82019  Biso   1.000  O
  O99      1.0000 0.87558  0.12008  0.66120  Biso   1.000  O
  C257     1.0000 0.88058  0.05402  0.81735  Biso   1.000  C
  C258     1.0000 0.87794  0.04544  0.78890  Biso   1.000  C
  C259     1.0000 0.87562  0.02015  0.74933  Biso   1.000  C
  C260     1.0000 0.87586  0.04682  0.74223  Biso   1.000  C
  C261     1.0000 0.87559  0.05395  0.71545  Biso   1.000  C
  C262     1.0000 0.87930  0.05944  0.76866  Biso   1.000  C
  H97      1.0000 0.88080  0.07780  0.77010  Biso   1.000  H
  S98      1.0000 0.87666  0.01052  0.78204  Biso   1.000  S
  C263     1.0000 0.87589  0.02214  0.77823  Biso   1.000  C
  H98      1.0000 0.87450  0.00700  0.78870  Biso   1.000  H
  S99      1.0000 0.87696  0.07156  0.76461  Biso   1.000  S
  C264     1.0000 0.87633  0.07717  0.69835  Biso   1.000  C
  H99      1.0000 0.87570  0.09390  0.70620  Biso   1.000  H
  S100     1.0000 0.87629  0.58698  0.20816  Biso   1.000  S
  O100     1.0000 0.87509  0.53738  0.33434  Biso   1.000  O
  O101     1.0000 0.88822  0.57721  0.32019  Biso   1.000  O
  O102     1.0000 0.87558  0.62008  0.16120  Biso   1.000  O
  C265     1.0000 0.88058  0.55402  0.31735  Biso   1.000  C
  C266     1.0000 0.87794  0.54544  0.28890  Biso   1.000  C
  C267     1.0000 0.87562  0.52015  0.24933  Biso   1.000  C
  C268     1.0000 0.87586  0.54682  0.24223  Biso   1.000  C
  C269     1.0000 0.87559  0.55395  0.21545  Biso   1.000  C
  C270     1.0000 0.87930  0.55944  0.26866  Biso   1.000  C
  H100     1.0000 0.88080  0.57780  0.27010  Biso   1.000  H
  S101     1.0000 0.87666  0.51052  0.28204  Biso   1.000  S
  C271     1.0000 0.87589  0.52214  0.27823  Biso   1.000  C
  H101     1.0000 0.87450  0.50700  0.28870  Biso   1.000  H
  S102     1.0000 0.87696  0.57156  0.26461  Biso   1.000  S
  C272     1.0000 0.87633  0.57717  0.19835  Biso   1.000  C
  H102     1.0000 0.87570  0.59390  0.20620  Biso   1.000  H
  S103     1.0000 0.37629  0.08698  0.20816  Biso   1.000  S
  O103     1.0000 0.37509  0.03738  0.33434  Biso   1.000  O
  O104     1.0000 0.38822  0.07721  0.32019  Biso   1.000  O
  O105     1.0000 0.37558  0.12008  0.16120  Biso   1.000  O
  C273     1.0000 0.38058  0.05402  0.31735  Biso   1.000  C
  C274     1.0000 0.37794  0.04544  0.28890  Biso   1.000  C
  C275     1.0000 0.37562  0.02015  0.24933  Biso   1.000  C
  C276     1.0000 0.37586  0.04682  0.24223  Biso   1.000  C
  C277     1.0000 0.37559  0.05395  0.21545  Biso   1.000  C
  C278     1.0000 0.37930  0.05944  0.26866  Biso   1.000  C
  H103     1.0000 0.38080  0.07780  0.27010  Biso   1.000  H
  S104     1.0000 0.37666  0.01052  0.28204  Biso   1.000  S
  C279     1.0000 0.37589  0.02214  0.27823  Biso   1.000  C
  H104     1.0000 0.37450  0.00700  0.28870  Biso   1.000  H
  S105     1.0000 0.37696  0.07156  0.26461  Biso   1.000  S
  C280     1.0000 0.37633  0.07717  0.19835  Biso   1.000  C
  H105     1.0000 0.37570  0.09390  0.20620  Biso   1.000  H
  S106     1.0000 0.37629  0.58698  0.70816  Biso   1.000  S
  O106     1.0000 0.37509  0.53738  0.83434  Biso   1.000  O
  O107     1.0000 0.38822  0.57721  0.82019  Biso   1.000  O
  O108     1.0000 0.37558  0.62008  0.66120  Biso   1.000  O
  C281     1.0000 0.38058  0.55402  0.81735  Biso   1.000  C
  C282     1.0000 0.37794  0.54544  0.78890  Biso   1.000  C
  C283     1.0000 0.37562  0.52015  0.74933  Biso   1.000  C
  C284     1.0000 0.37586  0.54682  0.74223  Biso   1.000  C
  C285     1.0000 0.37559  0.55395  0.71545  Biso   1.000  C
  C286     1.0000 0.37930  0.55944  0.76866  Biso   1.000  C
  H106     1.0000 0.38080  0.57780  0.77010  Biso   1.000  H
  S107     1.0000 0.37666  0.51052  0.78204  Biso   1.000  S
  C287     1.0000 0.37589  0.52214  0.77823  Biso   1.000  C
  H107     1.0000 0.37450  0.50700  0.78870  Biso   1.000  H
  S108     1.0000 0.37696  0.57156  0.76461  Biso   1.000  S
  C288     1.0000 0.37633  0.57717  0.69835  Biso   1.000  C
  H108     1.0000 0.37570  0.59390  0.70620  Biso   1.000  H
  S109     1.0000 0.37371  0.58698  0.04184  Biso   1.000  S
  O109     1.0000 0.37491  0.53738  0.91566  Biso   1.000  O
  O110     1.0000 0.36178  0.57721  0.92981  Biso   1.000  O
  O111     1.0000 0.37442  0.62008  0.08880  Biso   1.000  O
  C289     1.0000 0.36942  0.55402  0.93265  Biso   1.000  C
  C290     1.0000 0.37206  0.54544  0.96110  Biso   1.000  C
  C291     1.0000 0.37438  0.52015  0.00067  Biso   1.000  C
  C292     1.0000 0.37414  0.54682  0.00777  Biso   1.000  C
  C293     1.0000 0.37441  0.55395  0.03455  Biso   1.000  C
  C294     1.0000 0.37070  0.55944  0.98134  Biso   1.000  C
  H109     1.0000 0.36920  0.57780  0.97990  Biso   1.000  H
  S110     1.0000 0.37334  0.51052  0.96796  Biso   1.000  S
  C295     1.0000 0.37411  0.52214  0.97177  Biso   1.000  C
  H110     1.0000 0.37550  0.50700  0.96130  Biso   1.000  H
  S111     1.0000 0.37304  0.57156  0.98539  Biso   1.000  S
  C296     1.0000 0.37367  0.57717  0.05165  Biso   1.000  C
  H111     1.0000 0.37430  0.59390  0.04380  Biso   1.000  H
  S112     1.0000 0.37371  0.08698  0.54184  Biso   1.000  S
  O112     1.0000 0.37491  0.03738  0.41566  Biso   1.000  O
  O113     1.0000 0.36178  0.07721  0.42981  Biso   1.000  O
  O114     1.0000 0.37442  0.12008  0.58880  Biso   1.000  O
  C297     1.0000 0.36942  0.05402  0.43265  Biso   1.000  C
  C298     1.0000 0.37206  0.04544  0.46110  Biso   1.000  C
  C299     1.0000 0.37438  0.02015  0.50067  Biso   1.000  C
  C300     1.0000 0.37414  0.04682  0.50777  Biso   1.000  C
  C301     1.0000 0.37441  0.05395  0.53455  Biso   1.000  C
  C302     1.0000 0.37070  0.05944  0.48134  Biso   1.000  C
  H112     1.0000 0.36920  0.07780  0.47990  Biso   1.000  H
  S113     1.0000 0.37334  0.01052  0.46796  Biso   1.000  S
  C303     1.0000 0.37411  0.02214  0.47177  Biso   1.000  C
  H113     1.0000 0.37550  0.00700  0.46130  Biso   1.000  H
  S114     1.0000 0.37304  0.07156  0.48539  Biso   1.000  S
  C304     1.0000 0.37367  0.07717  0.55165  Biso   1.000  C
  H114     1.0000 0.37430  0.09390  0.54380  Biso   1.000  H
  S115     1.0000 0.87371  0.58698  0.54184  Biso   1.000  S
  O115     1.0000 0.87491  0.53738  0.41566  Biso   1.000  O
  O116     1.0000 0.86178  0.57721  0.42981  Biso   1.000  O
  O117     1.0000 0.87442  0.62008  0.58880  Biso   1.000  O
  C305     1.0000 0.86942  0.55402  0.43265  Biso   1.000  C
  C306     1.0000 0.87206  0.54544  0.46110  Biso   1.000  C
  C307     1.0000 0.87438  0.52015  0.50067  Biso   1.000  C
  C308     1.0000 0.87414  0.54682  0.50777  Biso   1.000  C
  C309     1.0000 0.87441  0.55395  0.53455  Biso   1.000  C
  C310     1.0000 0.87070  0.55944  0.48134  Biso   1.000  C
  H115     1.0000 0.86920  0.57780  0.47990  Biso   1.000  H
  S116     1.0000 0.87334  0.51052  0.46796  Biso   1.000  S
  C311     1.0000 0.87411  0.52214  0.47177  Biso   1.000  C
  H116     1.0000 0.87550  0.50700  0.46130  Biso   1.000  H
  S117     1.0000 0.87304  0.57156  0.48539  Biso   1.000  S
  C312     1.0000 0.87367  0.57717  0.55165  Biso   1.000  C
  H117     1.0000 0.87430  0.59390  0.54380  Biso   1.000  H
  S118     1.0000 0.87371  0.08698  0.04184  Biso   1.000  S
  O118     1.0000 0.87491  0.03738  0.91566  Biso   1.000  O
  O119     1.0000 0.86178  0.07721  0.92981  Biso   1.000  O
  O120     1.0000 0.87442  0.12008  0.08880  Biso   1.000  O
  C313     1.0000 0.86942  0.05402  0.93265  Biso   1.000  C
  C314     1.0000 0.87206  0.04544  0.96110  Biso   1.000  C
  C315     1.0000 0.87438  0.02015  0.00067  Biso   1.000  C
  C316     1.0000 0.87414  0.04682  0.00777  Biso   1.000  C
  C317     1.0000 0.87441  0.05395  0.03455  Biso   1.000  C
  C318     1.0000 0.87070  0.05944  0.98134  Biso   1.000  C
  H118     1.0000 0.86920  0.07780  0.97990  Biso   1.000  H
  S119     1.0000 0.87334  0.01052  0.96796  Biso   1.000  S
  C319     1.0000 0.87411  0.02214  0.97177  Biso   1.000  C
  H119     1.0000 0.87550  0.00700  0.96130  Biso   1.000  H
  S120     1.0000 0.87304  0.07156  0.98539  Biso   1.000  S
  C320     1.0000 0.87367  0.07717  0.05165  Biso   1.000  C
  H120     1.0000 0.87430  0.09390  0.04380  Biso   1.000  H
  S121     1.0000 0.37629  0.66302  0.54184  Biso   1.000  S
  O121     1.0000 0.37509  0.71262  0.41566  Biso   1.000  O
  O122     1.0000 0.38822  0.67279  0.42981  Biso   1.000  O
  O123     1.0000 0.37558  0.62992  0.58880  Biso   1.000  O
  C321     1.0000 0.38058  0.69598  0.43265  Biso   1.000  C
  C322     1.0000 0.37794  0.70456  0.46110  Biso   1.000  C
  C323     1.0000 0.37562  0.72985  0.50067  Biso   1.000  C
  C324     1.0000 0.37586  0.70318  0.50777  Biso   1.000  C
  C325     1.0000 0.37559  0.69605  0.53455  Biso   1.000  C
  C326     1.0000 0.37930  0.69056  0.48134  Biso   1.000  C
  H121     1.0000 0.38080  0.67220  0.47990  Biso   1.000  H
  S122     1.0000 0.37666  0.73948  0.46796  Biso   1.000  S
  C327     1.0000 0.37589  0.72786  0.47177  Biso   1.000  C
  H122     1.0000 0.37450  0.74300  0.46130  Biso   1.000  H
  S123     1.0000 0.37696  0.67844  0.48539  Biso   1.000  S
  C328     1.0000 0.37633  0.67283  0.55165  Biso   1.000  C
  H123     1.0000 0.37570  0.65610  0.54380  Biso   1.000  H
  S124     1.0000 0.37629  0.16302  0.04184  Biso   1.000  S
  O124     1.0000 0.37509  0.21262  0.91566  Biso   1.000  O
  O125     1.0000 0.38822  0.17279  0.92981  Biso   1.000  O
  O126     1.0000 0.37558  0.12992  0.08880  Biso   1.000  O
  C329     1.0000 0.38058  0.19598  0.93265  Biso   1.000  C
  C330     1.0000 0.37794  0.20456  0.96110  Biso   1.000  C
  C331     1.0000 0.37562  0.22985  0.00067  Biso   1.000  C
  C332     1.0000 0.37586  0.20318  0.00777  Biso   1.000  C
  C333     1.0000 0.37559  0.19605  0.03455  Biso   1.000  C
  C334     1.0000 0.37930  0.19056  0.98134  Biso   1.000  C
  H124     1.0000 0.38080  0.17220  0.97990  Biso   1.000  H
  S125     1.0000 0.37666  0.23948  0.96796  Biso   1.000  S
  C335     1.0000 0.37589  0.22786  0.97177  Biso   1.000  C
  H125     1.0000 0.37450  0.24300  0.96130  Biso   1.000  H
  S126     1.0000 0.37696  0.17844  0.98539  Biso   1.000  S
  C336     1.0000 0.37633  0.17283  0.05165  Biso   1.000  C
  H126     1.0000 0.37570  0.15610  0.04380  Biso   1.000  H
  S127     1.0000 0.87629  0.66302  0.04184  Biso   1.000  S
  O127     1.0000 0.87509  0.71262  0.91566  Biso   1.000  O
  O128     1.0000 0.88822  0.67279  0.92981  Biso   1.000  O
  O129     1.0000 0.87558  0.62992  0.08880  Biso   1.000  O
  C337     1.0000 0.88058  0.69598  0.93265  Biso   1.000  C
  C338     1.0000 0.87794  0.70456  0.96110  Biso   1.000  C
  C339     1.0000 0.87562  0.72985  0.00067  Biso   1.000  C
  C340     1.0000 0.87586  0.70318  0.00777  Biso   1.000  C
  C341     1.0000 0.87559  0.69605  0.03455  Biso   1.000  C
  C342     1.0000 0.87930  0.69056  0.98134  Biso   1.000  C
  H127     1.0000 0.88080  0.67220  0.97990  Biso   1.000  H
  S128     1.0000 0.87666  0.73948  0.96796  Biso   1.000  S
  C343     1.0000 0.87589  0.72786  0.97177  Biso   1.000  C
  H128     1.0000 0.87450  0.74300  0.96130  Biso   1.000  H
  S129     1.0000 0.87696  0.67844  0.98539  Biso   1.000  S
  C344     1.0000 0.87633  0.67283  0.05165  Biso   1.000  C
  H129     1.0000 0.87570  0.65610  0.04380  Biso   1.000  H
  S130     1.0000 0.87629  0.16302  0.54184  Biso   1.000  S
  O130     1.0000 0.87509  0.21262  0.41566  Biso   1.000  O
  O131     1.0000 0.88822  0.17279  0.42981  Biso   1.000  O
  O132     1.0000 0.87558  0.12992  0.58880  Biso   1.000  O
  C345     1.0000 0.88058  0.19598  0.43265  Biso   1.000  C
  C346     1.0000 0.87794  0.20456  0.46110  Biso   1.000  C
  C347     1.0000 0.87562  0.22985  0.50067  Biso   1.000  C
  C348     1.0000 0.87586  0.20318  0.50777  Biso   1.000  C
  C349     1.0000 0.87559  0.19605  0.53455  Biso   1.000  C
  C350     1.0000 0.87930  0.19056  0.48134  Biso   1.000  C
  H130     1.0000 0.88080  0.17220  0.47990  Biso   1.000  H
  S131     1.0000 0.87666  0.23948  0.46796  Biso   1.000  S
  C351     1.0000 0.87589  0.22786  0.47177  Biso   1.000  C
  H131     1.0000 0.87450  0.24300  0.46130  Biso   1.000  H
  S132     1.0000 0.87696  0.17844  0.48539  Biso   1.000  S
  C352     1.0000 0.87633  0.17283  0.55165  Biso   1.000  C
  H132     1.0000 0.87570  0.15610  0.54380  Biso   1.000  H
  S133     1.0000 0.87371  0.16302  0.20816  Biso   1.000  S
  O133     1.0000 0.87491  0.21262  0.33434  Biso   1.000  O
  O134     1.0000 0.86178  0.17279  0.32019  Biso   1.000  O
  O135     1.0000 0.87442  0.12992  0.16120  Biso   1.000  O
  C353     1.0000 0.86942  0.19598  0.31735  Biso   1.000  C
  C354     1.0000 0.87206  0.20456  0.28890  Biso   1.000  C
  C355     1.0000 0.87438  0.22985  0.24933  Biso   1.000  C
  C356     1.0000 0.87414  0.20318  0.24223  Biso   1.000  C
  C357     1.0000 0.87441  0.19605  0.21545  Biso   1.000  C
  C358     1.0000 0.87070  0.19056  0.26866  Biso   1.000  C
  H133     1.0000 0.86920  0.17220  0.27010  Biso   1.000  H
  S134     1.0000 0.87334  0.23948  0.28204  Biso   1.000  S
  C359     1.0000 0.87411  0.22786  0.27823  Biso   1.000  C
  H134     1.0000 0.87550  0.24300  0.28870  Biso   1.000  H
  S135     1.0000 0.87304  0.17844  0.26461  Biso   1.000  S
  C360     1.0000 0.87367  0.17283  0.19835  Biso   1.000  C
  H135     1.0000 0.87430  0.15610  0.20620  Biso   1.000  H
  S136     1.0000 0.87371  0.66302  0.70816  Biso   1.000  S
  O136     1.0000 0.87491  0.71262  0.83434  Biso   1.000  O
  O137     1.0000 0.86178  0.67279  0.82019  Biso   1.000  O
  O138     1.0000 0.87442  0.62992  0.66120  Biso   1.000  O
  C361     1.0000 0.86942  0.69598  0.81735  Biso   1.000  C
  C362     1.0000 0.87206  0.70456  0.78890  Biso   1.000  C
  C363     1.0000 0.87438  0.72985  0.74933  Biso   1.000  C
  C364     1.0000 0.87414  0.70318  0.74223  Biso   1.000  C
  C365     1.0000 0.87441  0.69605  0.71545  Biso   1.000  C
  C366     1.0000 0.87070  0.69056  0.76866  Biso   1.000  C
  H136     1.0000 0.86920  0.67220  0.77010  Biso   1.000  H
  S137     1.0000 0.87334  0.73948  0.78204  Biso   1.000  S
  C367     1.0000 0.87411  0.72786  0.77823  Biso   1.000  C
  H137     1.0000 0.87550  0.74300  0.78870  Biso   1.000  H
  S138     1.0000 0.87304  0.67844  0.76461  Biso   1.000  S
  C368     1.0000 0.87367  0.67283  0.69835  Biso   1.000  C
  H138     1.0000 0.87430  0.65610  0.70620  Biso   1.000  H
  S139     1.0000 0.37371  0.16302  0.70816  Biso   1.000  S
  O139     1.0000 0.37491  0.21262  0.83434  Biso   1.000  O
  O140     1.0000 0.36178  0.17279  0.82019  Biso   1.000  O
  O141     1.0000 0.37442  0.12992  0.66120  Biso   1.000  O
  C369     1.0000 0.36942  0.19598  0.81735  Biso   1.000  C
  C370     1.0000 0.37206  0.20456  0.78890  Biso   1.000  C
  C371     1.0000 0.37438  0.22985  0.74933  Biso   1.000  C
  C372     1.0000 0.37414  0.20318  0.74223  Biso   1.000  C
  C373     1.0000 0.37441  0.19605  0.71545  Biso   1.000  C
  C374     1.0000 0.37070  0.19056  0.76866  Biso   1.000  C
  H139     1.0000 0.36920  0.17220  0.77010  Biso   1.000  H
  S140     1.0000 0.37334  0.23948  0.78204  Biso   1.000  S
  C375     1.0000 0.37411  0.22786  0.77823  Biso   1.000  C
  H140     1.0000 0.37550  0.24300  0.78870  Biso   1.000  H
  S141     1.0000 0.37304  0.17844  0.76461  Biso   1.000  S
  C376     1.0000 0.37367  0.17283  0.69835  Biso   1.000  C
  H141     1.0000 0.37430  0.15610  0.70620  Biso   1.000  H
  S142     1.0000 0.37371  0.66302  0.20816  Biso   1.000  S
  O142     1.0000 0.37491  0.71262  0.33434  Biso   1.000  O
  O143     1.0000 0.36178  0.67279  0.32019  Biso   1.000  O
  O144     1.0000 0.37442  0.62992  0.16120  Biso   1.000  O
  C377     1.0000 0.36942  0.69598  0.31735  Biso   1.000  C
  C378     1.0000 0.37206  0.70456  0.28890  Biso   1.000  C
  C379     1.0000 0.37438  0.72985  0.24933  Biso   1.000  C
  C380     1.0000 0.37414  0.70318  0.24223  Biso   1.000  C
  C381     1.0000 0.37441  0.69605  0.21545  Biso   1.000  C
  C382     1.0000 0.37070  0.69056  0.26866  Biso   1.000  C
  H142     1.0000 0.36920  0.67220  0.27010  Biso   1.000  H
  S143     1.0000 0.37334  0.73948  0.28204  Biso   1.000  S
  C383     1.0000 0.37411  0.72786  0.27823  Biso   1.000  C
  H143     1.0000 0.37550  0.74300  0.28870  Biso   1.000  H
  S144     1.0000 0.37304  0.67844  0.26461  Biso   1.000  S
  C384     1.0000 0.37367  0.67283  0.19835  Biso   1.000  C
  H144     1.0000 0.37430  0.65610  0.20620  Biso   1.000  H
  S145     1.0000 0.62629  0.95816  0.41302  Biso   1.000  S
  O145     1.0000 0.62509  0.08434  0.46262  Biso   1.000  O
  O146     1.0000 0.63822  0.07019  0.42279  Biso   1.000  O
  O147     1.0000 0.62558  0.91120  0.37992  Biso   1.000  O
  C385     1.0000 0.63058  0.06735  0.44598  Biso   1.000  C
  C386     1.0000 0.62794  0.03890  0.45456  Biso   1.000  C
  C387     1.0000 0.62562  0.99933  0.47985  Biso   1.000  C
  C388     1.0000 0.62586  0.99223  0.45318  Biso   1.000  C
  C389     1.0000 0.62559  0.96545  0.44605  Biso   1.000  C
  C390     1.0000 0.62930  0.01866  0.44056  Biso   1.000  C
  H145     1.0000 0.63080  0.02010  0.42220  Biso   1.000  H
  S146     1.0000 0.62666  0.03204  0.48948  Biso   1.000  S
  C391     1.0000 0.62589  0.02823  0.47786  Biso   1.000  C
  H146     1.0000 0.62450  0.03870  0.49300  Biso   1.000  H
  S147     1.0000 0.62696  0.01461  0.42844  Biso   1.000  S
  C392     1.0000 0.62633  0.94835  0.42283  Biso   1.000  C
  H147     1.0000 0.62570  0.95620  0.40610  Biso   1.000  H
  S148     1.0000 0.62629  0.45816  0.91302  Biso   1.000  S
  O148     1.0000 0.62509  0.58434  0.96262  Biso   1.000  O
  O149     1.0000 0.63822  0.57019  0.92279  Biso   1.000  O
  O150     1.0000 0.62558  0.41120  0.87992  Biso   1.000  O
  C393     1.0000 0.63058  0.56735  0.94598  Biso   1.000  C
  C394     1.0000 0.62794  0.53890  0.95456  Biso   1.000  C
  C395     1.0000 0.62562  0.49933  0.97985  Biso   1.000  C
  C396     1.0000 0.62586  0.49223  0.95318  Biso   1.000  C
  C397     1.0000 0.62559  0.46545  0.94605  Biso   1.000  C
  C398     1.0000 0.62930  0.51866  0.94056  Biso   1.000  C
  H148     1.0000 0.63080  0.52010  0.92220  Biso   1.000  H
  S149     1.0000 0.62666  0.53204  0.98948  Biso   1.000  S
  C399     1.0000 0.62589  0.52823  0.97786  Biso   1.000  C
  H149     1.0000 0.62450  0.53870  0.99300  Biso   1.000  H
  S150     1.0000 0.62696  0.51461  0.92844  Biso   1.000  S
  C400     1.0000 0.62633  0.44835  0.92283  Biso   1.000  C
  H150     1.0000 0.62570  0.45620  0.90610  Biso   1.000  H
  S151     1.0000 0.12629  0.95816  0.91302  Biso   1.000  S
  O151     1.0000 0.12509  0.08434  0.96262  Biso   1.000  O
  O152     1.0000 0.13822  0.07019  0.92279  Biso   1.000  O
  O153     1.0000 0.12558  0.91120  0.87992  Biso   1.000  O
  C401     1.0000 0.13058  0.06735  0.94598  Biso   1.000  C
  C402     1.0000 0.12794  0.03890  0.95456  Biso   1.000  C
  C403     1.0000 0.12562  0.99933  0.97985  Biso   1.000  C
  C404     1.0000 0.12586  0.99223  0.95318  Biso   1.000  C
  C405     1.0000 0.12559  0.96545  0.94605  Biso   1.000  C
  C406     1.0000 0.12930  0.01866  0.94056  Biso   1.000  C
  H151     1.0000 0.13080  0.02010  0.92220  Biso   1.000  H
  S152     1.0000 0.12666  0.03204  0.98948  Biso   1.000  S
  C407     1.0000 0.12589  0.02823  0.97786  Biso   1.000  C
  H152     1.0000 0.12450  0.03870  0.99300  Biso   1.000  H
  S153     1.0000 0.12696  0.01461  0.92844  Biso   1.000  S
  C408     1.0000 0.12633  0.94835  0.92283  Biso   1.000  C
  H153     1.0000 0.12570  0.95620  0.90610  Biso   1.000  H
  S154     1.0000 0.12629  0.45816  0.41302  Biso   1.000  S
  O154     1.0000 0.12509  0.58434  0.46262  Biso   1.000  O
  O155     1.0000 0.13822  0.57019  0.42279  Biso   1.000  O
  O156     1.0000 0.12558  0.41120  0.37992  Biso   1.000  O
  C409     1.0000 0.13058  0.56735  0.44598  Biso   1.000  C
  C410     1.0000 0.12794  0.53890  0.45456  Biso   1.000  C
  C411     1.0000 0.12562  0.49933  0.47985  Biso   1.000  C
  C412     1.0000 0.12586  0.49223  0.45318  Biso   1.000  C
  C413     1.0000 0.12559  0.46545  0.44605  Biso   1.000  C
  C414     1.0000 0.12930  0.51866  0.44056  Biso   1.000  C
  H154     1.0000 0.13080  0.52010  0.42220  Biso   1.000  H
  S155     1.0000 0.12666  0.53204  0.48948  Biso   1.000  S
  C415     1.0000 0.12589  0.52823  0.47786  Biso   1.000  C
  H155     1.0000 0.12450  0.53870  0.49300  Biso   1.000  H
  S156     1.0000 0.12696  0.51461  0.42844  Biso   1.000  S
  C416     1.0000 0.12633  0.44835  0.42283  Biso   1.000  C
  H156     1.0000 0.12570  0.45620  0.40610  Biso   1.000  H
  S157     1.0000 0.12371  0.29184  0.91302  Biso   1.000  S
  O157     1.0000 0.12491  0.16566  0.96262  Biso   1.000  O
  O158     1.0000 0.11178  0.17981  0.92279  Biso   1.000  O
  O159     1.0000 0.12442  0.33880  0.87992  Biso   1.000  O
  C417     1.0000 0.11942  0.18265  0.94598  Biso   1.000  C
  C418     1.0000 0.12206  0.21110  0.95456  Biso   1.000  C
  C419     1.0000 0.12438  0.25067  0.97985  Biso   1.000  C
  C420     1.0000 0.12414  0.25777  0.95318  Biso   1.000  C
  C421     1.0000 0.12441  0.28455  0.94605  Biso   1.000  C
  C422     1.0000 0.12070  0.23134  0.94056  Biso   1.000  C
  H157     1.0000 0.11920  0.22990  0.92220  Biso   1.000  H
  S158     1.0000 0.12334  0.21796  0.98948  Biso   1.000  S
  C423     1.0000 0.12411  0.22177  0.97786  Biso   1.000  C
  H158     1.0000 0.12550  0.21130  0.99300  Biso   1.000  H
  S159     1.0000 0.12304  0.23539  0.92844  Biso   1.000  S
  C424     1.0000 0.12367  0.30165  0.92283  Biso   1.000  C
  H159     1.0000 0.12430  0.29380  0.90610  Biso   1.000  H
  S160     1.0000 0.12371  0.79184  0.41302  Biso   1.000  S
  O160     1.0000 0.12491  0.66566  0.46262  Biso   1.000  O
  O161     1.0000 0.11178  0.67981  0.42279  Biso   1.000  O
  O162     1.0000 0.12442  0.83880  0.37992  Biso   1.000  O
  C425     1.0000 0.11942  0.68265  0.44598  Biso   1.000  C
  C426     1.0000 0.12206  0.71110  0.45456  Biso   1.000  C
  C427     1.0000 0.12438  0.75067  0.47985  Biso   1.000  C
  C428     1.0000 0.12414  0.75777  0.45318  Biso   1.000  C
  C429     1.0000 0.12441  0.78455  0.44605  Biso   1.000  C
  C430     1.0000 0.12070  0.73134  0.44056  Biso   1.000  C
  H160     1.0000 0.11920  0.72990  0.42220  Biso   1.000  H
  S161     1.0000 0.12334  0.71796  0.48948  Biso   1.000  S
  C431     1.0000 0.12411  0.72177  0.47786  Biso   1.000  C
  H161     1.0000 0.12550  0.71130  0.49300  Biso   1.000  H
  S162     1.0000 0.12304  0.73539  0.42844  Biso   1.000  S
  C432     1.0000 0.12367  0.80165  0.42283  Biso   1.000  C
  H162     1.0000 0.12430  0.79380  0.40610  Biso   1.000  H
  S163     1.0000 0.62371  0.29184  0.41302  Biso   1.000  S
  O163     1.0000 0.62491  0.16566  0.46262  Biso   1.000  O
  O164     1.0000 0.61178  0.17981  0.42279  Biso   1.000  O
  O165     1.0000 0.62442  0.33880  0.37992  Biso   1.000  O
  C433     1.0000 0.61942  0.18265  0.44598  Biso   1.000  C
  C434     1.0000 0.62206  0.21110  0.45456  Biso   1.000  C
  C435     1.0000 0.62438  0.25067  0.47985  Biso   1.000  C
  C436     1.0000 0.62414  0.25777  0.45318  Biso   1.000  C
  C437     1.0000 0.62441  0.28455  0.44605  Biso   1.000  C
  C438     1.0000 0.62070  0.23134  0.44056  Biso   1.000  C
  H163     1.0000 0.61920  0.22990  0.42220  Biso   1.000  H
  S164     1.0000 0.62334  0.21796  0.48948  Biso   1.000  S
  C439     1.0000 0.62411  0.22177  0.47786  Biso   1.000  C
  H164     1.0000 0.62550  0.21130  0.49300  Biso   1.000  H
  S165     1.0000 0.62304  0.23539  0.42844  Biso   1.000  S
  C440     1.0000 0.62367  0.30165  0.42283  Biso   1.000  C
  H165     1.0000 0.62430  0.29380  0.40610  Biso   1.000  H
  S166     1.0000 0.62371  0.79184  0.91302  Biso   1.000  S
  O166     1.0000 0.62491  0.66566  0.96262  Biso   1.000  O
  O167     1.0000 0.61178  0.67981  0.92279  Biso   1.000  O
  O168     1.0000 0.62442  0.83880  0.87992  Biso   1.000  O
  C441     1.0000 0.61942  0.68265  0.94598  Biso   1.000  C
  C442     1.0000 0.62206  0.71110  0.95456  Biso   1.000  C
  C443     1.0000 0.62438  0.75067  0.97985  Biso   1.000  C
  C444     1.0000 0.62414  0.75777  0.95318  Biso   1.000  C
  C445     1.0000 0.62441  0.78455  0.94605  Biso   1.000  C
  C446     1.0000 0.62070  0.73134  0.94056  Biso   1.000  C
  H166     1.0000 0.61920  0.72990  0.92220  Biso   1.000  H
  S167     1.0000 0.62334  0.71796  0.98948  Biso   1.000  S
  C447     1.0000 0.62411  0.72177  0.97786  Biso   1.000  C
  H167     1.0000 0.62550  0.71130  0.99300  Biso   1.000  H
  S168     1.0000 0.62304  0.73539  0.92844  Biso   1.000  S
  C448     1.0000 0.62367  0.80165  0.92283  Biso   1.000  C
  H168     1.0000 0.62430  0.79380  0.90610  Biso   1.000  H
  S169     1.0000 0.12629  0.79184  0.83698  Biso   1.000  S
  O169     1.0000 0.12509  0.66566  0.78738  Biso   1.000  O
  O170     1.0000 0.13822  0.67981  0.82721  Biso   1.000  O
  O171     1.0000 0.12558  0.83880  0.87008  Biso   1.000  O
  C449     1.0000 0.13058  0.68265  0.80402  Biso   1.000  C
  C450     1.0000 0.12794  0.71110  0.79544  Biso   1.000  C
  C451     1.0000 0.12562  0.75067  0.77015  Biso   1.000  C
  C452     1.0000 0.12586  0.75777  0.79682  Biso   1.000  C
  C453     1.0000 0.12559  0.78455  0.80395  Biso   1.000  C
  C454     1.0000 0.12930  0.73134  0.80944  Biso   1.000  C
  H169     1.0000 0.13080  0.72990  0.82780  Biso   1.000  H
  S170     1.0000 0.12666  0.71796  0.76052  Biso   1.000  S
  C455     1.0000 0.12589  0.72177  0.77214  Biso   1.000  C
  H170     1.0000 0.12450  0.71130  0.75700  Biso   1.000  H
  S171     1.0000 0.12696  0.73539  0.82156  Biso   1.000  S
  C456     1.0000 0.12633  0.80165  0.82717  Biso   1.000  C
  H171     1.0000 0.12570  0.79380  0.84390  Biso   1.000  H
  S172     1.0000 0.12629  0.29184  0.33698  Biso   1.000  S
  O172     1.0000 0.12509  0.16566  0.28738  Biso   1.000  O
  O173     1.0000 0.13822  0.17981  0.32721  Biso   1.000  O
  O174     1.0000 0.12558  0.33880  0.37008  Biso   1.000  O
  C457     1.0000 0.13058  0.18265  0.30402  Biso   1.000  C
  C458     1.0000 0.12794  0.21110  0.29544  Biso   1.000  C
  C459     1.0000 0.12562  0.25067  0.27015  Biso   1.000  C
  C460     1.0000 0.12586  0.25777  0.29682  Biso   1.000  C
  C461     1.0000 0.12559  0.28455  0.30395  Biso   1.000  C
  C462     1.0000 0.12930  0.23134  0.30944  Biso   1.000  C
  H172     1.0000 0.13080  0.22990  0.32780  Biso   1.000  H
  S173     1.0000 0.12666  0.21796  0.26052  Biso   1.000  S
  C463     1.0000 0.12589  0.22177  0.27214  Biso   1.000  C
  H173     1.0000 0.12450  0.21130  0.25700  Biso   1.000  H
  S174     1.0000 0.12696  0.23539  0.32156  Biso   1.000  S
  C464     1.0000 0.12633  0.30165  0.32717  Biso   1.000  C
  H174     1.0000 0.12570  0.29380  0.34390  Biso   1.000  H
  S175     1.0000 0.62629  0.79184  0.33698  Biso   1.000  S
  O175     1.0000 0.62509  0.66566  0.28738  Biso   1.000  O
  O176     1.0000 0.63822  0.67981  0.32721  Biso   1.000  O
  O177     1.0000 0.62558  0.83880  0.37008  Biso   1.000  O
  C465     1.0000 0.63058  0.68265  0.30402  Biso   1.000  C
  C466     1.0000 0.62794  0.71110  0.29544  Biso   1.000  C
  C467     1.0000 0.62562  0.75067  0.27015  Biso   1.000  C
  C468     1.0000 0.62586  0.75777  0.29682  Biso   1.000  C
  C469     1.0000 0.62559  0.78455  0.30395  Biso   1.000  C
  C470     1.0000 0.62930  0.73134  0.30944  Biso   1.000  C
  H175     1.0000 0.63080  0.72990  0.32780  Biso   1.000  H
  S176     1.0000 0.62666  0.71796  0.26052  Biso   1.000  S
  C471     1.0000 0.62589  0.72177  0.27214  Biso   1.000  C
  H176     1.0000 0.62450  0.71130  0.25700  Biso   1.000  H
  S177     1.0000 0.62696  0.73539  0.32156  Biso   1.000  S
  C472     1.0000 0.62633  0.80165  0.32717  Biso   1.000  C
  H177     1.0000 0.62570  0.79380  0.34390  Biso   1.000  H
  S178     1.0000 0.62629  0.29184  0.83698  Biso   1.000  S
  O178     1.0000 0.62509  0.16566  0.78738  Biso   1.000  O
  O179     1.0000 0.63822  0.17981  0.82721  Biso   1.000  O
  O180     1.0000 0.62558  0.33880  0.87008  Biso   1.000  O
  C473     1.0000 0.63058  0.18265  0.80402  Biso   1.000  C
  C474     1.0000 0.62794  0.21110  0.79544  Biso   1.000  C
  C475     1.0000 0.62562  0.25067  0.77015  Biso   1.000  C
  C476     1.0000 0.62586  0.25777  0.79682  Biso   1.000  C
  C477     1.0000 0.62559  0.28455  0.80395  Biso   1.000  C
  C478     1.0000 0.62930  0.23134  0.80944  Biso   1.000  C
  H178     1.0000 0.63080  0.22990  0.82780  Biso   1.000  H
  S179     1.0000 0.62666  0.21796  0.76052  Biso   1.000  S
  C479     1.0000 0.62589  0.22177  0.77214  Biso   1.000  C
  H179     1.0000 0.62450  0.21130  0.75700  Biso   1.000  H
  S180     1.0000 0.62696  0.23539  0.82156  Biso   1.000  S
  C480     1.0000 0.62633  0.30165  0.82717  Biso   1.000  C
  H180     1.0000 0.62570  0.29380  0.84390  Biso   1.000  H
  S181     1.0000 0.62371  0.45816  0.33698  Biso   1.000  S
  O181     1.0000 0.62491  0.58434  0.28738  Biso   1.000  O
  O182     1.0000 0.61178  0.57019  0.32721  Biso   1.000  O
  O183     1.0000 0.62442  0.41120  0.37008  Biso   1.000  O
  C481     1.0000 0.61942  0.56735  0.30402  Biso   1.000  C
  C482     1.0000 0.62206  0.53890  0.29544  Biso   1.000  C
  C483     1.0000 0.62438  0.49933  0.27015  Biso   1.000  C
  C484     1.0000 0.62414  0.49223  0.29682  Biso   1.000  C
  C485     1.0000 0.62441  0.46545  0.30395  Biso   1.000  C
  C486     1.0000 0.62070  0.51866  0.30944  Biso   1.000  C
  H181     1.0000 0.61920  0.52010  0.32780  Biso   1.000  H
  S182     1.0000 0.62334  0.53204  0.26052  Biso   1.000  S
  C487     1.0000 0.62411  0.52823  0.27214  Biso   1.000  C
  H182     1.0000 0.62550  0.53870  0.25700  Biso   1.000  H
  S183     1.0000 0.62304  0.51461  0.32156  Biso   1.000  S
  C488     1.0000 0.62367  0.44835  0.32717  Biso   1.000  C
  H183     1.0000 0.62430  0.45620  0.34390  Biso   1.000  H
  S184     1.0000 0.62371  0.95816  0.83698  Biso   1.000  S
  O184     1.0000 0.62491  0.08434  0.78738  Biso   1.000  O
  O185     1.0000 0.61178  0.07019  0.82721  Biso   1.000  O
  O186     1.0000 0.62442  0.91120  0.87008  Biso   1.000  O
  C489     1.0000 0.61942  0.06735  0.80402  Biso   1.000  C
  C490     1.0000 0.62206  0.03890  0.79544  Biso   1.000  C
  C491     1.0000 0.62438  0.99933  0.77015  Biso   1.000  C
  C492     1.0000 0.62414  0.99223  0.79682  Biso   1.000  C
  C493     1.0000 0.62441  0.96545  0.80395  Biso   1.000  C
  C494     1.0000 0.62070  0.01866  0.80944  Biso   1.000  C
  H184     1.0000 0.61920  0.02010  0.82780  Biso   1.000  H
  S185     1.0000 0.62334  0.03204  0.76052  Biso   1.000  S
  C495     1.0000 0.62411  0.02823  0.77214  Biso   1.000  C
  H185     1.0000 0.62550  0.03870  0.75700  Biso   1.000  H
  S186     1.0000 0.62304  0.01461  0.82156  Biso   1.000  S
  C496     1.0000 0.62367  0.94835  0.82717  Biso   1.000  C
  H186     1.0000 0.62430  0.95620  0.84390  Biso   1.000  H
  S187     1.0000 0.12371  0.45816  0.83698  Biso   1.000  S
  O187     1.0000 0.12491  0.58434  0.78738  Biso   1.000  O
  O188     1.0000 0.11178  0.57019  0.82721  Biso   1.000  O
  O189     1.0000 0.12442  0.41120  0.87008  Biso   1.000  O
  C497     1.0000 0.11942  0.56735  0.80402  Biso   1.000  C
  C498     1.0000 0.12206  0.53890  0.79544  Biso   1.000  C
  C499     1.0000 0.12438  0.49933  0.77015  Biso   1.000  C
  C500     1.0000 0.12414  0.49223  0.79682  Biso   1.000  C
  C501     1.0000 0.12441  0.46545  0.80395  Biso   1.000  C
  C502     1.0000 0.12070  0.51866  0.80944  Biso   1.000  C
  H187     1.0000 0.11920  0.52010  0.82780  Biso   1.000  H
  S188     1.0000 0.12334  0.53204  0.76052  Biso   1.000  S
  C503     1.0000 0.12411  0.52823  0.77214  Biso   1.000  C
  H188     1.0000 0.12550  0.53870  0.75700  Biso   1.000  H
  S189     1.0000 0.12304  0.51461  0.82156  Biso   1.000  S
  C504     1.0000 0.12367  0.44835  0.82717  Biso   1.000  C
  H189     1.0000 0.12430  0.45620  0.84390  Biso   1.000  H
  S190     1.0000 0.12371  0.95816  0.33698  Biso   1.000  S
  O190     1.0000 0.12491  0.08434  0.28738  Biso   1.000  O
  O191     1.0000 0.11178  0.07019  0.32721  Biso   1.000  O
  O192     1.0000 0.12442  0.91120  0.37008  Biso   1.000  O
  C505     1.0000 0.11942  0.06735  0.30402  Biso   1.000  C
  C506     1.0000 0.12206  0.03890  0.29544  Biso   1.000  C
  C507     1.0000 0.12438  0.99933  0.27015  Biso   1.000  C
  C508     1.0000 0.12414  0.99223  0.29682  Biso   1.000  C
  C509     1.0000 0.12441  0.96545  0.30395  Biso   1.000  C
  C510     1.0000 0.12070  0.01866  0.30944  Biso   1.000  C
  H190     1.0000 0.11920  0.02010  0.32780  Biso   1.000  H
  S191     1.0000 0.12334  0.03204  0.26052  Biso   1.000  S
  C511     1.0000 0.12411  0.02823  0.27214  Biso   1.000  C
  H191     1.0000 0.12550  0.03870  0.25700  Biso   1.000  H
  S192     1.0000 0.12304  0.01461  0.32156  Biso   1.000  S
  C512     1.0000 0.12367  0.94835  0.32717  Biso   1.000  C
  H192     1.0000 0.12430  0.95620  0.34390  Biso   1.000  H
  S193     1.0000 0.45816  0.33698  0.62371  Biso   1.000  S
  O193     1.0000 0.58434  0.28738  0.62491  Biso   1.000  O
  O194     1.0000 0.57019  0.32721  0.61178  Biso   1.000  O
  O195     1.0000 0.41120  0.37008  0.62442  Biso   1.000  O
  C513     1.0000 0.56735  0.30402  0.61942  Biso   1.000  C
  C514     1.0000 0.53890  0.29544  0.62206  Biso   1.000  C
  C515     1.0000 0.49933  0.27015  0.62438  Biso   1.000  C
  C516     1.0000 0.49223  0.29682  0.62414  Biso   1.000  C
  C517     1.0000 0.46545  0.30395  0.62441  Biso   1.000  C
  C518     1.0000 0.51866  0.30944  0.62070  Biso   1.000  C
  H193     1.0000 0.52010  0.32780  0.61920  Biso   1.000  H
  S194     1.0000 0.53204  0.26052  0.62334  Biso   1.000  S
  C519     1.0000 0.52823  0.27214  0.62411  Biso   1.000  C
  H194     1.0000 0.53870  0.25700  0.62550  Biso   1.000  H
  S195     1.0000 0.51461  0.32156  0.62304  Biso   1.000  S
  C520     1.0000 0.44835  0.32717  0.62367  Biso   1.000  C
  H195     1.0000 0.45620  0.34390  0.62430  Biso   1.000  H
  S196     1.0000 0.45816  0.83698  0.12371  Biso   1.000  S
  O196     1.0000 0.58434  0.78738  0.12491  Biso   1.000  O
  O197     1.0000 0.57019  0.82721  0.11178  Biso   1.000  O
  O198     1.0000 0.41120  0.87008  0.12442  Biso   1.000  O
  C521     1.0000 0.56735  0.80402  0.11942  Biso   1.000  C
  C522     1.0000 0.53890  0.79544  0.12206  Biso   1.000  C
  C523     1.0000 0.49933  0.77015  0.12438  Biso   1.000  C
  C524     1.0000 0.49223  0.79682  0.12414  Biso   1.000  C
  C525     1.0000 0.46545  0.80395  0.12441  Biso   1.000  C
  C526     1.0000 0.51866  0.80944  0.12070  Biso   1.000  C
  H196     1.0000 0.52010  0.82780  0.11920  Biso   1.000  H
  S197     1.0000 0.53204  0.76052  0.12334  Biso   1.000  S
  C527     1.0000 0.52823  0.77214  0.12411  Biso   1.000  C
  H197     1.0000 0.53870  0.75700  0.12550  Biso   1.000  H
  S198     1.0000 0.51461  0.82156  0.12304  Biso   1.000  S
  C528     1.0000 0.44835  0.82717  0.12367  Biso   1.000  C
  H198     1.0000 0.45620  0.84390  0.12430  Biso   1.000  H
  S199     1.0000 0.95816  0.33698  0.12371  Biso   1.000  S
  O199     1.0000 0.08434  0.28738  0.12491  Biso   1.000  O
  O200     1.0000 0.07019  0.32721  0.11178  Biso   1.000  O
  O201     1.0000 0.91120  0.37008  0.12442  Biso   1.000  O
  C529     1.0000 0.06735  0.30402  0.11942  Biso   1.000  C
  C530     1.0000 0.03890  0.29544  0.12206  Biso   1.000  C
  C531     1.0000 0.99933  0.27015  0.12438  Biso   1.000  C
  C532     1.0000 0.99223  0.29682  0.12414  Biso   1.000  C
  C533     1.0000 0.96545  0.30395  0.12441  Biso   1.000  C
  C534     1.0000 0.01866  0.30944  0.12070  Biso   1.000  C
  H199     1.0000 0.02010  0.32780  0.11920  Biso   1.000  H
  S200     1.0000 0.03204  0.26052  0.12334  Biso   1.000  S
  C535     1.0000 0.02823  0.27214  0.12411  Biso   1.000  C
  H200     1.0000 0.03870  0.25700  0.12550  Biso   1.000  H
  S201     1.0000 0.01461  0.32156  0.12304  Biso   1.000  S
  C536     1.0000 0.94835  0.32717  0.12367  Biso   1.000  C
  H201     1.0000 0.95620  0.34390  0.12430  Biso   1.000  H
  S202     1.0000 0.95816  0.83698  0.62371  Biso   1.000  S
  O202     1.0000 0.08434  0.78738  0.62491  Biso   1.000  O
  O203     1.0000 0.07019  0.82721  0.61178  Biso   1.000  O
  O204     1.0000 0.91120  0.87008  0.62442  Biso   1.000  O
  C537     1.0000 0.06735  0.80402  0.61942  Biso   1.000  C
  C538     1.0000 0.03890  0.79544  0.62206  Biso   1.000  C
  C539     1.0000 0.99933  0.77015  0.62438  Biso   1.000  C
  C540     1.0000 0.99223  0.79682  0.62414  Biso   1.000  C
  C541     1.0000 0.96545  0.80395  0.62441  Biso   1.000  C
  C542     1.0000 0.01866  0.80944  0.62070  Biso   1.000  C
  H202     1.0000 0.02010  0.82780  0.61920  Biso   1.000  H
  S203     1.0000 0.03204  0.76052  0.62334  Biso   1.000  S
  C543     1.0000 0.02823  0.77214  0.62411  Biso   1.000  C
  H203     1.0000 0.03870  0.75700  0.62550  Biso   1.000  H
  S204     1.0000 0.01461  0.82156  0.62304  Biso   1.000  S
  C544     1.0000 0.94835  0.82717  0.62367  Biso   1.000  C
  H204     1.0000 0.95620  0.84390  0.62430  Biso   1.000  H
  S205     1.0000 0.79184  0.83698  0.12629  Biso   1.000  S
  O205     1.0000 0.66566  0.78738  0.12509  Biso   1.000  O
  O206     1.0000 0.67981  0.82721  0.13822  Biso   1.000  O
  O207     1.0000 0.83880  0.87008  0.12558  Biso   1.000  O
  C545     1.0000 0.68265  0.80402  0.13058  Biso   1.000  C
  C546     1.0000 0.71110  0.79544  0.12794  Biso   1.000  C
  C547     1.0000 0.75067  0.77015  0.12562  Biso   1.000  C
  C548     1.0000 0.75777  0.79682  0.12586  Biso   1.000  C
  C549     1.0000 0.78455  0.80395  0.12559  Biso   1.000  C
  C550     1.0000 0.73134  0.80944  0.12930  Biso   1.000  C
  H205     1.0000 0.72990  0.82780  0.13080  Biso   1.000  H
  S206     1.0000 0.71796  0.76052  0.12666  Biso   1.000  S
  C551     1.0000 0.72177  0.77214  0.12589  Biso   1.000  C
  H206     1.0000 0.71130  0.75700  0.12450  Biso   1.000  H
  S207     1.0000 0.73539  0.82156  0.12696  Biso   1.000  S
  C552     1.0000 0.80165  0.82717  0.12633  Biso   1.000  C
  H207     1.0000 0.79380  0.84390  0.12570  Biso   1.000  H
  S208     1.0000 0.79184  0.33698  0.62629  Biso   1.000  S
  O208     1.0000 0.66566  0.28738  0.62509  Biso   1.000  O
  O209     1.0000 0.67981  0.32721  0.63822  Biso   1.000  O
  O210     1.0000 0.83880  0.37008  0.62558  Biso   1.000  O
  C553     1.0000 0.68265  0.30402  0.63058  Biso   1.000  C
  C554     1.0000 0.71110  0.29544  0.62794  Biso   1.000  C
  C555     1.0000 0.75067  0.27015  0.62562  Biso   1.000  C
  C556     1.0000 0.75777  0.29682  0.62586  Biso   1.000  C
  C557     1.0000 0.78455  0.30395  0.62559  Biso   1.000  C
  C558     1.0000 0.73134  0.30944  0.62930  Biso   1.000  C
  H208     1.0000 0.72990  0.32780  0.63080  Biso   1.000  H
  S209     1.0000 0.71796  0.26052  0.62666  Biso   1.000  S
  C559     1.0000 0.72177  0.27214  0.62589  Biso   1.000  C
  H209     1.0000 0.71130  0.25700  0.62450  Biso   1.000  H
  S210     1.0000 0.73539  0.32156  0.62696  Biso   1.000  S
  C560     1.0000 0.80165  0.32717  0.62633  Biso   1.000  C
  H210     1.0000 0.79380  0.34390  0.62570  Biso   1.000  H
  S211     1.0000 0.29184  0.83698  0.62629  Biso   1.000  S
  O211     1.0000 0.16566  0.78738  0.62509  Biso   1.000  O
  O212     1.0000 0.17981  0.82721  0.63822  Biso   1.000  O
  O213     1.0000 0.33880  0.87008  0.62558  Biso   1.000  O
  C561     1.0000 0.18265  0.80402  0.63058  Biso   1.000  C
  C562     1.0000 0.21110  0.79544  0.62794  Biso   1.000  C
  C563     1.0000 0.25067  0.77015  0.62562  Biso   1.000  C
  C564     1.0000 0.25777  0.79682  0.62586  Biso   1.000  C
  C565     1.0000 0.28455  0.80395  0.62559  Biso   1.000  C
  C566     1.0000 0.23134  0.80944  0.62930  Biso   1.000  C
  H211     1.0000 0.22990  0.82780  0.63080  Biso   1.000  H
  S212     1.0000 0.21796  0.76052  0.62666  Biso   1.000  S
  C567     1.0000 0.22177  0.77214  0.62589  Biso   1.000  C
  H212     1.0000 0.21130  0.75700  0.62450  Biso   1.000  H
  S213     1.0000 0.23539  0.82156  0.62696  Biso   1.000  S
  C568     1.0000 0.30165  0.82717  0.62633  Biso   1.000  C
  H213     1.0000 0.29380  0.84390  0.62570  Biso   1.000  H
  S214     1.0000 0.29184  0.33698  0.12629  Biso   1.000  S
  O214     1.0000 0.16566  0.28738  0.12509  Biso   1.000  O
  O215     1.0000 0.17981  0.32721  0.13822  Biso   1.000  O
  O216     1.0000 0.33880  0.37008  0.12558  Biso   1.000  O
  C569     1.0000 0.18265  0.30402  0.13058  Biso   1.000  C
  C570     1.0000 0.21110  0.29544  0.12794  Biso   1.000  C
  C571     1.0000 0.25067  0.27015  0.12562  Biso   1.000  C
  C572     1.0000 0.25777  0.29682  0.12586  Biso   1.000  C
  C573     1.0000 0.28455  0.30395  0.12559  Biso   1.000  C
  C574     1.0000 0.23134  0.30944  0.12930  Biso   1.000  C
  H214     1.0000 0.22990  0.32780  0.13080  Biso   1.000  H
  S215     1.0000 0.21796  0.26052  0.12666  Biso   1.000  S
  C575     1.0000 0.22177  0.27214  0.12589  Biso   1.000  C
  H215     1.0000 0.21130  0.25700  0.12450  Biso   1.000  H
  S216     1.0000 0.23539  0.32156  0.12696  Biso   1.000  S
  C576     1.0000 0.30165  0.32717  0.12633  Biso   1.000  C
  H216     1.0000 0.29380  0.34390  0.12570  Biso   1.000  H
  S217     1.0000 0.29184  0.91302  0.12371  Biso   1.000  S
  O217     1.0000 0.16566  0.96262  0.12491  Biso   1.000  O
  O218     1.0000 0.17981  0.92279  0.11178  Biso   1.000  O
  O219     1.0000 0.33880  0.87992  0.12442  Biso   1.000  O
  C577     1.0000 0.18265  0.94598  0.11942  Biso   1.000  C
  C578     1.0000 0.21110  0.95456  0.12206  Biso   1.000  C
  C579     1.0000 0.25067  0.97985  0.12438  Biso   1.000  C
  C580     1.0000 0.25777  0.95318  0.12414  Biso   1.000  C
  C581     1.0000 0.28455  0.94605  0.12441  Biso   1.000  C
  C582     1.0000 0.23134  0.94056  0.12070  Biso   1.000  C
  H217     1.0000 0.22990  0.92220  0.11920  Biso   1.000  H
  S218     1.0000 0.21796  0.98948  0.12334  Biso   1.000  S
  C583     1.0000 0.22177  0.97786  0.12411  Biso   1.000  C
  H218     1.0000 0.21130  0.99300  0.12550  Biso   1.000  H
  S219     1.0000 0.23539  0.92844  0.12304  Biso   1.000  S
  C584     1.0000 0.30165  0.92283  0.12367  Biso   1.000  C
  H219     1.0000 0.29380  0.90610  0.12430  Biso   1.000  H
  S220     1.0000 0.29184  0.41302  0.62371  Biso   1.000  S
  O220     1.0000 0.16566  0.46262  0.62491  Biso   1.000  O
  O221     1.0000 0.17981  0.42279  0.61178  Biso   1.000  O
  O222     1.0000 0.33880  0.37992  0.62442  Biso   1.000  O
  C585     1.0000 0.18265  0.44598  0.61942  Biso   1.000  C
  C586     1.0000 0.21110  0.45456  0.62206  Biso   1.000  C
  C587     1.0000 0.25067  0.47985  0.62438  Biso   1.000  C
  C588     1.0000 0.25777  0.45318  0.62414  Biso   1.000  C
  C589     1.0000 0.28455  0.44605  0.62441  Biso   1.000  C
  C590     1.0000 0.23134  0.44056  0.62070  Biso   1.000  C
  H220     1.0000 0.22990  0.42220  0.61920  Biso   1.000  H
  S221     1.0000 0.21796  0.48948  0.62334  Biso   1.000  S
  C591     1.0000 0.22177  0.47786  0.62411  Biso   1.000  C
  H221     1.0000 0.21130  0.49300  0.62550  Biso   1.000  H
  S222     1.0000 0.23539  0.42844  0.62304  Biso   1.000  S
  C592     1.0000 0.30165  0.42283  0.62367  Biso   1.000  C
  H222     1.0000 0.29380  0.40610  0.62430  Biso   1.000  H
  S223     1.0000 0.79184  0.91302  0.62371  Biso   1.000  S
  O223     1.0000 0.66566  0.96262  0.62491  Biso   1.000  O
  O224     1.0000 0.67981  0.92279  0.61178  Biso   1.000  O
  O225     1.0000 0.83880  0.87992  0.62442  Biso   1.000  O
  C593     1.0000 0.68265  0.94598  0.61942  Biso   1.000  C
  C594     1.0000 0.71110  0.95456  0.62206  Biso   1.000  C
  C595     1.0000 0.75067  0.97985  0.62438  Biso   1.000  C
  C596     1.0000 0.75777  0.95318  0.62414  Biso   1.000  C
  C597     1.0000 0.78455  0.94605  0.62441  Biso   1.000  C
  C598     1.0000 0.73134  0.94056  0.62070  Biso   1.000  C
  H223     1.0000 0.72990  0.92220  0.61920  Biso   1.000  H
  S224     1.0000 0.71796  0.98948  0.62334  Biso   1.000  S
  C599     1.0000 0.72177  0.97786  0.62411  Biso   1.000  C
  H224     1.0000 0.71130  0.99300  0.62550  Biso   1.000  H
  S225     1.0000 0.73539  0.92844  0.62304  Biso   1.000  S
  C600     1.0000 0.80165  0.92283  0.62367  Biso   1.000  C
  H225     1.0000 0.79380  0.90610  0.62430  Biso   1.000  H
  S226     1.0000 0.79184  0.41302  0.12371  Biso   1.000  S
  O226     1.0000 0.66566  0.46262  0.12491  Biso   1.000  O
  O227     1.0000 0.67981  0.42279  0.11178  Biso   1.000  O
  O228     1.0000 0.83880  0.37992  0.12442  Biso   1.000  O
  C601     1.0000 0.68265  0.44598  0.11942  Biso   1.000  C
  C602     1.0000 0.71110  0.45456  0.12206  Biso   1.000  C
  C603     1.0000 0.75067  0.47985  0.12438  Biso   1.000  C
  C604     1.0000 0.75777  0.45318  0.12414  Biso   1.000  C
  C605     1.0000 0.78455  0.44605  0.12441  Biso   1.000  C
  C606     1.0000 0.73134  0.44056  0.12070  Biso   1.000  C
  H226     1.0000 0.72990  0.42220  0.11920  Biso   1.000  H
  S227     1.0000 0.71796  0.48948  0.12334  Biso   1.000  S
  C607     1.0000 0.72177  0.47786  0.12411  Biso   1.000  C
  H227     1.0000 0.71130  0.49300  0.12550  Biso   1.000  H
  S228     1.0000 0.73539  0.42844  0.12304  Biso   1.000  S
  C608     1.0000 0.80165  0.42283  0.12367  Biso   1.000  C
  H228     1.0000 0.79380  0.40610  0.12430  Biso   1.000  H
  S229     1.0000 0.95816  0.41302  0.62629  Biso   1.000  S
  O229     1.0000 0.08434  0.46262  0.62509  Biso   1.000  O
  O230     1.0000 0.07019  0.42279  0.63822  Biso   1.000  O
  O231     1.0000 0.91120  0.37992  0.62558  Biso   1.000  O
  C609     1.0000 0.06735  0.44598  0.63058  Biso   1.000  C
  C610     1.0000 0.03890  0.45456  0.62794  Biso   1.000  C
  C611     1.0000 0.99933  0.47985  0.62562  Biso   1.000  C
  C612     1.0000 0.99223  0.45318  0.62586  Biso   1.000  C
  C613     1.0000 0.96545  0.44605  0.62559  Biso   1.000  C
  C614     1.0000 0.01866  0.44056  0.62930  Biso   1.000  C
  H229     1.0000 0.02010  0.42220  0.63080  Biso   1.000  H
  S230     1.0000 0.03204  0.48948  0.62666  Biso   1.000  S
  C615     1.0000 0.02823  0.47786  0.62589  Biso   1.000  C
  H230     1.0000 0.03870  0.49300  0.62450  Biso   1.000  H
  S231     1.0000 0.01461  0.42844  0.62696  Biso   1.000  S
  C616     1.0000 0.94835  0.42283  0.62633  Biso   1.000  C
  H231     1.0000 0.95620  0.40610  0.62570  Biso   1.000  H
  S232     1.0000 0.95816  0.91302  0.12629  Biso   1.000  S
  O232     1.0000 0.08434  0.96262  0.12509  Biso   1.000  O
  O233     1.0000 0.07019  0.92279  0.13822  Biso   1.000  O
  O234     1.0000 0.91120  0.87992  0.12558  Biso   1.000  O
  C617     1.0000 0.06735  0.94598  0.13058  Biso   1.000  C
  C618     1.0000 0.03890  0.95456  0.12794  Biso   1.000  C
  C619     1.0000 0.99933  0.97985  0.12562  Biso   1.000  C
  C620     1.0000 0.99223  0.95318  0.12586  Biso   1.000  C
  C621     1.0000 0.96545  0.94605  0.12559  Biso   1.000  C
  C622     1.0000 0.01866  0.94056  0.12930  Biso   1.000  C
  H232     1.0000 0.02010  0.92220  0.13080  Biso   1.000  H
  S233     1.0000 0.03204  0.98948  0.12666  Biso   1.000  S
  C623     1.0000 0.02823  0.97786  0.12589  Biso   1.000  C
  H233     1.0000 0.03870  0.99300  0.12450  Biso   1.000  H
  S234     1.0000 0.01461  0.92844  0.12696  Biso   1.000  S
  C624     1.0000 0.94835  0.92283  0.12633  Biso   1.000  C
  H234     1.0000 0.95620  0.90610  0.12570  Biso   1.000  H
  S235     1.0000 0.45816  0.41302  0.12629  Biso   1.000  S
  O235     1.0000 0.58434  0.46262  0.12509  Biso   1.000  O
  O236     1.0000 0.57019  0.42279  0.13822  Biso   1.000  O
  O237     1.0000 0.41120  0.37992  0.12558  Biso   1.000  O
  C625     1.0000 0.56735  0.44598  0.13058  Biso   1.000  C
  C626     1.0000 0.53890  0.45456  0.12794  Biso   1.000  C
  C627     1.0000 0.49933  0.47985  0.12562  Biso   1.000  C
  C628     1.0000 0.49223  0.45318  0.12586  Biso   1.000  C
  C629     1.0000 0.46545  0.44605  0.12559  Biso   1.000  C
  C630     1.0000 0.51866  0.44056  0.12930  Biso   1.000  C
  H235     1.0000 0.52010  0.42220  0.13080  Biso   1.000  H
  S236     1.0000 0.53204  0.48948  0.12666  Biso   1.000  S
  C631     1.0000 0.52823  0.47786  0.12589  Biso   1.000  C
  H236     1.0000 0.53870  0.49300  0.12450  Biso   1.000  H
  S237     1.0000 0.51461  0.42844  0.12696  Biso   1.000  S
  C632     1.0000 0.44835  0.42283  0.12633  Biso   1.000  C
  H237     1.0000 0.45620  0.40610  0.12570  Biso   1.000  H
  S238     1.0000 0.45816  0.91302  0.62629  Biso   1.000  S
  O238     1.0000 0.58434  0.96262  0.62509  Biso   1.000  O
  O239     1.0000 0.57019  0.92279  0.63822  Biso   1.000  O
  O240     1.0000 0.41120  0.87992  0.62558  Biso   1.000  O
  C633     1.0000 0.56735  0.94598  0.63058  Biso   1.000  C
  C634     1.0000 0.53890  0.95456  0.62794  Biso   1.000  C
  C635     1.0000 0.49933  0.97985  0.62562  Biso   1.000  C
  C636     1.0000 0.49223  0.95318  0.62586  Biso   1.000  C
  C637     1.0000 0.46545  0.94605  0.62559  Biso   1.000  C
  C638     1.0000 0.51866  0.94056  0.62930  Biso   1.000  C
  H238     1.0000 0.52010  0.92220  0.63080  Biso   1.000  H
  S239     1.0000 0.53204  0.98948  0.62666  Biso   1.000  S
  C639     1.0000 0.52823  0.97786  0.62589  Biso   1.000  C
  H239     1.0000 0.53870  0.99300  0.62450  Biso   1.000  H
  S240     1.0000 0.51461  0.92844  0.62696  Biso   1.000  S
  C640     1.0000 0.44835  0.92283  0.62633  Biso   1.000  C
  H240     1.0000 0.45620  0.90610  0.62570  Biso   1.000  H
  S241     1.0000 0.83698  0.12629  0.79184  Biso   1.000  S
  O241     1.0000 0.78738  0.12509  0.66566  Biso   1.000  O
  O242     1.0000 0.82721  0.13822  0.67981  Biso   1.000  O
  O243     1.0000 0.87008  0.12558  0.83880  Biso   1.000  O
  C641     1.0000 0.80402  0.13058  0.68265  Biso   1.000  C
  C642     1.0000 0.79544  0.12794  0.71110  Biso   1.000  C
  C643     1.0000 0.77015  0.12562  0.75067  Biso   1.000  C
  C644     1.0000 0.79682  0.12586  0.75777  Biso   1.000  C
  C645     1.0000 0.80395  0.12559  0.78455  Biso   1.000  C
  C646     1.0000 0.80944  0.12930  0.73134  Biso   1.000  C
  H241     1.0000 0.82780  0.13080  0.72990  Biso   1.000  H
  S242     1.0000 0.76052  0.12666  0.71796  Biso   1.000  S
  C647     1.0000 0.77214  0.12589  0.72177  Biso   1.000  C
  H242     1.0000 0.75700  0.12450  0.71130  Biso   1.000  H
  S243     1.0000 0.82156  0.12696  0.73539  Biso   1.000  S
  C648     1.0000 0.82717  0.12633  0.80165  Biso   1.000  C
  H243     1.0000 0.84390  0.12570  0.79380  Biso   1.000  H
  S244     1.0000 0.83698  0.62629  0.29184  Biso   1.000  S
  O244     1.0000 0.78738  0.62509  0.16566  Biso   1.000  O
  O245     1.0000 0.82721  0.63822  0.17981  Biso   1.000  O
  O246     1.0000 0.87008  0.62558  0.33880  Biso   1.000  O
  C649     1.0000 0.80402  0.63058  0.18265  Biso   1.000  C
  C650     1.0000 0.79544  0.62794  0.21110  Biso   1.000  C
  C651     1.0000 0.77015  0.62562  0.25067  Biso   1.000  C
  C652     1.0000 0.79682  0.62586  0.25777  Biso   1.000  C
  C653     1.0000 0.80395  0.62559  0.28455  Biso   1.000  C
  C654     1.0000 0.80944  0.62930  0.23134  Biso   1.000  C
  H244     1.0000 0.82780  0.63080  0.22990  Biso   1.000  H
  S245     1.0000 0.76052  0.62666  0.21796  Biso   1.000  S
  C655     1.0000 0.77214  0.62589  0.22177  Biso   1.000  C
  H245     1.0000 0.75700  0.62450  0.21130  Biso   1.000  H
  S246     1.0000 0.82156  0.62696  0.23539  Biso   1.000  S
  C656     1.0000 0.82717  0.62633  0.30165  Biso   1.000  C
  H246     1.0000 0.84390  0.62570  0.29380  Biso   1.000  H
  S247     1.0000 0.33698  0.12629  0.29184  Biso   1.000  S
  O247     1.0000 0.28738  0.12509  0.16566  Biso   1.000  O
  O248     1.0000 0.32721  0.13822  0.17981  Biso   1.000  O
  O249     1.0000 0.37008  0.12558  0.33880  Biso   1.000  O
  C657     1.0000 0.30402  0.13058  0.18265  Biso   1.000  C
  C658     1.0000 0.29544  0.12794  0.21110  Biso   1.000  C
  C659     1.0000 0.27015  0.12562  0.25067  Biso   1.000  C
  C660     1.0000 0.29682  0.12586  0.25777  Biso   1.000  C
  C661     1.0000 0.30395  0.12559  0.28455  Biso   1.000  C
  C662     1.0000 0.30944  0.12930  0.23134  Biso   1.000  C
  H247     1.0000 0.32780  0.13080  0.22990  Biso   1.000  H
  S248     1.0000 0.26052  0.12666  0.21796  Biso   1.000  S
  C663     1.0000 0.27214  0.12589  0.22177  Biso   1.000  C
  H248     1.0000 0.25700  0.12450  0.21130  Biso   1.000  H
  S249     1.0000 0.32156  0.12696  0.23539  Biso   1.000  S
  C664     1.0000 0.32717  0.12633  0.30165  Biso   1.000  C
  H249     1.0000 0.34390  0.12570  0.29380  Biso   1.000  H
  S250     1.0000 0.33698  0.62629  0.79184  Biso   1.000  S
  O250     1.0000 0.28738  0.62509  0.66566  Biso   1.000  O
  O251     1.0000 0.32721  0.63822  0.67981  Biso   1.000  O
  O252     1.0000 0.37008  0.62558  0.83880  Biso   1.000  O
  C665     1.0000 0.30402  0.63058  0.68265  Biso   1.000  C
  C666     1.0000 0.29544  0.62794  0.71110  Biso   1.000  C
  C667     1.0000 0.27015  0.62562  0.75067  Biso   1.000  C
  C668     1.0000 0.29682  0.62586  0.75777  Biso   1.000  C
  C669     1.0000 0.30395  0.62559  0.78455  Biso   1.000  C
  C670     1.0000 0.30944  0.62930  0.73134  Biso   1.000  C
  H250     1.0000 0.32780  0.63080  0.72990  Biso   1.000  H
  S251     1.0000 0.26052  0.62666  0.71796  Biso   1.000  S
  C671     1.0000 0.27214  0.62589  0.72177  Biso   1.000  C
  H251     1.0000 0.25700  0.62450  0.71130  Biso   1.000  H
  S252     1.0000 0.32156  0.62696  0.73539  Biso   1.000  S
  C672     1.0000 0.32717  0.62633  0.80165  Biso   1.000  C
  H252     1.0000 0.34390  0.62570  0.79380  Biso   1.000  H
  S253     1.0000 0.33698  0.62371  0.45816  Biso   1.000  S
  O253     1.0000 0.28738  0.62491  0.58434  Biso   1.000  O
  O254     1.0000 0.32721  0.61178  0.57019  Biso   1.000  O
  O255     1.0000 0.37008  0.62442  0.41120  Biso   1.000  O
  C673     1.0000 0.30402  0.61942  0.56735  Biso   1.000  C
  C674     1.0000 0.29544  0.62206  0.53890  Biso   1.000  C
  C675     1.0000 0.27015  0.62438  0.49933  Biso   1.000  C
  C676     1.0000 0.29682  0.62414  0.49223  Biso   1.000  C
  C677     1.0000 0.30395  0.62441  0.46545  Biso   1.000  C
  C678     1.0000 0.30944  0.62070  0.51866  Biso   1.000  C
  H253     1.0000 0.32780  0.61920  0.52010  Biso   1.000  H
  S254     1.0000 0.26052  0.62334  0.53204  Biso   1.000  S
  C679     1.0000 0.27214  0.62411  0.52823  Biso   1.000  C
  H254     1.0000 0.25700  0.62550  0.53870  Biso   1.000  H
  S255     1.0000 0.32156  0.62304  0.51461  Biso   1.000  S
  C680     1.0000 0.32717  0.62367  0.44835  Biso   1.000  C
  H255     1.0000 0.34390  0.62430  0.45620  Biso   1.000  H
  S256     1.0000 0.33698  0.12371  0.95816  Biso   1.000  S
  O256     1.0000 0.28738  0.12491  0.08434  Biso   1.000  O
  O257     1.0000 0.32721  0.11178  0.07019  Biso   1.000  O
  O258     1.0000 0.37008  0.12442  0.91120  Biso   1.000  O
  C681     1.0000 0.30402  0.11942  0.06735  Biso   1.000  C
  C682     1.0000 0.29544  0.12206  0.03890  Biso   1.000  C
  C683     1.0000 0.27015  0.12438  0.99933  Biso   1.000  C
  C684     1.0000 0.29682  0.12414  0.99223  Biso   1.000  C
  C685     1.0000 0.30395  0.12441  0.96545  Biso   1.000  C
  C686     1.0000 0.30944  0.12070  0.01866  Biso   1.000  C
  H256     1.0000 0.32780  0.11920  0.02010  Biso   1.000  H
  S257     1.0000 0.26052  0.12334  0.03204  Biso   1.000  S
  C687     1.0000 0.27214  0.12411  0.02823  Biso   1.000  C
  H257     1.0000 0.25700  0.12550  0.03870  Biso   1.000  H
  S258     1.0000 0.32156  0.12304  0.01461  Biso   1.000  S
  C688     1.0000 0.32717  0.12367  0.94835  Biso   1.000  C
  H258     1.0000 0.34390  0.12430  0.95620  Biso   1.000  H
  S259     1.0000 0.83698  0.62371  0.95816  Biso   1.000  S
  O259     1.0000 0.78738  0.62491  0.08434  Biso   1.000  O
  O260     1.0000 0.82721  0.61178  0.07019  Biso   1.000  O
  O261     1.0000 0.87008  0.62442  0.91120  Biso   1.000  O
  C689     1.0000 0.80402  0.61942  0.06735  Biso   1.000  C
  C690     1.0000 0.79544  0.62206  0.03890  Biso   1.000  C
  C691     1.0000 0.77015  0.62438  0.99933  Biso   1.000  C
  C692     1.0000 0.79682  0.62414  0.99223  Biso   1.000  C
  C693     1.0000 0.80395  0.62441  0.96545  Biso   1.000  C
  C694     1.0000 0.80944  0.62070  0.01866  Biso   1.000  C
  H259     1.0000 0.82780  0.61920  0.02010  Biso   1.000  H
  S260     1.0000 0.76052  0.62334  0.03204  Biso   1.000  S
  C695     1.0000 0.77214  0.62411  0.02823  Biso   1.000  C
  H260     1.0000 0.75700  0.62550  0.03870  Biso   1.000  H
  S261     1.0000 0.82156  0.62304  0.01461  Biso   1.000  S
  C696     1.0000 0.82717  0.62367  0.94835  Biso   1.000  C
  H261     1.0000 0.84390  0.62430  0.95620  Biso   1.000  H
  S262     1.0000 0.83698  0.12371  0.45816  Biso   1.000  S
  O262     1.0000 0.78738  0.12491  0.58434  Biso   1.000  O
  O263     1.0000 0.82721  0.11178  0.57019  Biso   1.000  O
  O264     1.0000 0.87008  0.12442  0.41120  Biso   1.000  O
  C697     1.0000 0.80402  0.11942  0.56735  Biso   1.000  C
  C698     1.0000 0.79544  0.12206  0.53890  Biso   1.000  C
  C699     1.0000 0.77015  0.12438  0.49933  Biso   1.000  C
  C700     1.0000 0.79682  0.12414  0.49223  Biso   1.000  C
  C701     1.0000 0.80395  0.12441  0.46545  Biso   1.000  C
  C702     1.0000 0.80944  0.12070  0.51866  Biso   1.000  C
  H262     1.0000 0.82780  0.11920  0.52010  Biso   1.000  H
  S263     1.0000 0.76052  0.12334  0.53204  Biso   1.000  S
  C703     1.0000 0.77214  0.12411  0.52823  Biso   1.000  C
  H263     1.0000 0.75700  0.12550  0.53870  Biso   1.000  H
  S264     1.0000 0.82156  0.12304  0.51461  Biso   1.000  S
  C704     1.0000 0.82717  0.12367  0.44835  Biso   1.000  C
  H264     1.0000 0.84390  0.12430  0.45620  Biso   1.000  H
  S265     1.0000 0.41302  0.62629  0.95816  Biso   1.000  S
  O265     1.0000 0.46262  0.62509  0.08434  Biso   1.000  O
  O266     1.0000 0.42279  0.63822  0.07019  Biso   1.000  O
  O267     1.0000 0.37992  0.62558  0.91120  Biso   1.000  O
  C705     1.0000 0.44598  0.63058  0.06735  Biso   1.000  C
  C706     1.0000 0.45456  0.62794  0.03890  Biso   1.000  C
  C707     1.0000 0.47985  0.62562  0.99933  Biso   1.000  C
  C708     1.0000 0.45318  0.62586  0.99223  Biso   1.000  C
  C709     1.0000 0.44605  0.62559  0.96545  Biso   1.000  C
  C710     1.0000 0.44056  0.62930  0.01866  Biso   1.000  C
  H265     1.0000 0.42220  0.63080  0.02010  Biso   1.000  H
  S266     1.0000 0.48948  0.62666  0.03204  Biso   1.000  S
  C711     1.0000 0.47786  0.62589  0.02823  Biso   1.000  C
  H266     1.0000 0.49300  0.62450  0.03870  Biso   1.000  H
  S267     1.0000 0.42844  0.62696  0.01461  Biso   1.000  S
  C712     1.0000 0.42283  0.62633  0.94835  Biso   1.000  C
  H267     1.0000 0.40610  0.62570  0.95620  Biso   1.000  H
  S268     1.0000 0.41302  0.12629  0.45816  Biso   1.000  S
  O268     1.0000 0.46262  0.12509  0.58434  Biso   1.000  O
  O269     1.0000 0.42279  0.13822  0.57019  Biso   1.000  O
  O270     1.0000 0.37992  0.12558  0.41120  Biso   1.000  O
  C713     1.0000 0.44598  0.13058  0.56735  Biso   1.000  C
  C714     1.0000 0.45456  0.12794  0.53890  Biso   1.000  C
  C715     1.0000 0.47985  0.12562  0.49933  Biso   1.000  C
  C716     1.0000 0.45318  0.12586  0.49223  Biso   1.000  C
  C717     1.0000 0.44605  0.12559  0.46545  Biso   1.000  C
  C718     1.0000 0.44056  0.12930  0.51866  Biso   1.000  C
  H268     1.0000 0.42220  0.13080  0.52010  Biso   1.000  H
  S269     1.0000 0.48948  0.12666  0.53204  Biso   1.000  S
  C719     1.0000 0.47786  0.12589  0.52823  Biso   1.000  C
  H269     1.0000 0.49300  0.12450  0.53870  Biso   1.000  H
  S270     1.0000 0.42844  0.12696  0.51461  Biso   1.000  S
  C720     1.0000 0.42283  0.12633  0.44835  Biso   1.000  C
  H270     1.0000 0.40610  0.12570  0.45620  Biso   1.000  H
  S271     1.0000 0.91302  0.62629  0.45816  Biso   1.000  S
  O271     1.0000 0.96262  0.62509  0.58434  Biso   1.000  O
  O272     1.0000 0.92279  0.63822  0.57019  Biso   1.000  O
  O273     1.0000 0.87992  0.62558  0.41120  Biso   1.000  O
  C721     1.0000 0.94598  0.63058  0.56735  Biso   1.000  C
  C722     1.0000 0.95456  0.62794  0.53890  Biso   1.000  C
  C723     1.0000 0.97985  0.62562  0.49933  Biso   1.000  C
  C724     1.0000 0.95318  0.62586  0.49223  Biso   1.000  C
  C725     1.0000 0.94605  0.62559  0.46545  Biso   1.000  C
  C726     1.0000 0.94056  0.62930  0.51866  Biso   1.000  C
  H271     1.0000 0.92220  0.63080  0.52010  Biso   1.000  H
  S272     1.0000 0.98948  0.62666  0.53204  Biso   1.000  S
  C727     1.0000 0.97786  0.62589  0.52823  Biso   1.000  C
  H272     1.0000 0.99300  0.62450  0.53870  Biso   1.000  H
  S273     1.0000 0.92844  0.62696  0.51461  Biso   1.000  S
  C728     1.0000 0.92283  0.62633  0.44835  Biso   1.000  C
  H273     1.0000 0.90610  0.62570  0.45620  Biso   1.000  H
  S274     1.0000 0.91302  0.12629  0.95816  Biso   1.000  S
  O274     1.0000 0.96262  0.12509  0.08434  Biso   1.000  O
  O275     1.0000 0.92279  0.13822  0.07019  Biso   1.000  O
  O276     1.0000 0.87992  0.12558  0.91120  Biso   1.000  O
  C729     1.0000 0.94598  0.13058  0.06735  Biso   1.000  C
  C730     1.0000 0.95456  0.12794  0.03890  Biso   1.000  C
  C731     1.0000 0.97985  0.12562  0.99933  Biso   1.000  C
  C732     1.0000 0.95318  0.12586  0.99223  Biso   1.000  C
  C733     1.0000 0.94605  0.12559  0.96545  Biso   1.000  C
  C734     1.0000 0.94056  0.12930  0.01866  Biso   1.000  C
  H274     1.0000 0.92220  0.13080  0.02010  Biso   1.000  H
  S275     1.0000 0.98948  0.12666  0.03204  Biso   1.000  S
  C735     1.0000 0.97786  0.12589  0.02823  Biso   1.000  C
  H275     1.0000 0.99300  0.12450  0.03870  Biso   1.000  H
  S276     1.0000 0.92844  0.12696  0.01461  Biso   1.000  S
  C736     1.0000 0.92283  0.12633  0.94835  Biso   1.000  C
  H276     1.0000 0.90610  0.12570  0.95620  Biso   1.000  H
  S277     1.0000 0.91302  0.12371  0.29184  Biso   1.000  S
  O277     1.0000 0.96262  0.12491  0.16566  Biso   1.000  O
  O278     1.0000 0.92279  0.11178  0.17981  Biso   1.000  O
  O279     1.0000 0.87992  0.12442  0.33880  Biso   1.000  O
  C737     1.0000 0.94598  0.11942  0.18265  Biso   1.000  C
  C738     1.0000 0.95456  0.12206  0.21110  Biso   1.000  C
  C739     1.0000 0.97985  0.12438  0.25067  Biso   1.000  C
  C740     1.0000 0.95318  0.12414  0.25777  Biso   1.000  C
  C741     1.0000 0.94605  0.12441  0.28455  Biso   1.000  C
  C742     1.0000 0.94056  0.12070  0.23134  Biso   1.000  C
  H277     1.0000 0.92220  0.11920  0.22990  Biso   1.000  H
  S278     1.0000 0.98948  0.12334  0.21796  Biso   1.000  S
  C743     1.0000 0.97786  0.12411  0.22177  Biso   1.000  C
  H278     1.0000 0.99300  0.12550  0.21130  Biso   1.000  H
  S279     1.0000 0.92844  0.12304  0.23539  Biso   1.000  S
  C744     1.0000 0.92283  0.12367  0.30165  Biso   1.000  C
  H279     1.0000 0.90610  0.12430  0.29380  Biso   1.000  H
  S280     1.0000 0.91302  0.62371  0.79184  Biso   1.000  S
  O280     1.0000 0.96262  0.62491  0.66566  Biso   1.000  O
  O281     1.0000 0.92279  0.61178  0.67981  Biso   1.000  O
  O282     1.0000 0.87992  0.62442  0.83880  Biso   1.000  O
  C745     1.0000 0.94598  0.61942  0.68265  Biso   1.000  C
  C746     1.0000 0.95456  0.62206  0.71110  Biso   1.000  C
  C747     1.0000 0.97985  0.62438  0.75067  Biso   1.000  C
  C748     1.0000 0.95318  0.62414  0.75777  Biso   1.000  C
  C749     1.0000 0.94605  0.62441  0.78455  Biso   1.000  C
  C750     1.0000 0.94056  0.62070  0.73134  Biso   1.000  C
  H280     1.0000 0.92220  0.61920  0.72990  Biso   1.000  H
  S281     1.0000 0.98948  0.62334  0.71796  Biso   1.000  S
  C751     1.0000 0.97786  0.62411  0.72177  Biso   1.000  C
  H281     1.0000 0.99300  0.62550  0.71130  Biso   1.000  H
  S282     1.0000 0.92844  0.62304  0.73539  Biso   1.000  S
  C752     1.0000 0.92283  0.62367  0.80165  Biso   1.000  C
  H282     1.0000 0.90610  0.62430  0.79380  Biso   1.000  H
  S283     1.0000 0.41302  0.12371  0.79184  Biso   1.000  S
  O283     1.0000 0.46262  0.12491  0.66566  Biso   1.000  O
  O284     1.0000 0.42279  0.11178  0.67981  Biso   1.000  O
  O285     1.0000 0.37992  0.12442  0.83880  Biso   1.000  O
  C753     1.0000 0.44598  0.11942  0.68265  Biso   1.000  C
  C754     1.0000 0.45456  0.12206  0.71110  Biso   1.000  C
  C755     1.0000 0.47985  0.12438  0.75067  Biso   1.000  C
  C756     1.0000 0.45318  0.12414  0.75777  Biso   1.000  C
  C757     1.0000 0.44605  0.12441  0.78455  Biso   1.000  C
  C758     1.0000 0.44056  0.12070  0.73134  Biso   1.000  C
  H283     1.0000 0.42220  0.11920  0.72990  Biso   1.000  H
  S284     1.0000 0.48948  0.12334  0.71796  Biso   1.000  S
  C759     1.0000 0.47786  0.12411  0.72177  Biso   1.000  C
  H284     1.0000 0.49300  0.12550  0.71130  Biso   1.000  H
  S285     1.0000 0.42844  0.12304  0.73539  Biso   1.000  S
  C760     1.0000 0.42283  0.12367  0.80165  Biso   1.000  C
  H285     1.0000 0.40610  0.12430  0.79380  Biso   1.000  H
  S286     1.0000 0.41302  0.62371  0.29184  Biso   1.000  S
  O286     1.0000 0.46262  0.62491  0.16566  Biso   1.000  O
  O287     1.0000 0.42279  0.61178  0.17981  Biso   1.000  O
  O288     1.0000 0.37992  0.62442  0.33880  Biso   1.000  O
  C761     1.0000 0.44598  0.61942  0.18265  Biso   1.000  C
  C762     1.0000 0.45456  0.62206  0.21110  Biso   1.000  C
  C763     1.0000 0.47985  0.62438  0.25067  Biso   1.000  C
  C764     1.0000 0.45318  0.62414  0.25777  Biso   1.000  C
  C765     1.0000 0.44605  0.62441  0.28455  Biso   1.000  C
  C766     1.0000 0.44056  0.62070  0.23134  Biso   1.000  C
  H286     1.0000 0.42220  0.61920  0.22990  Biso   1.000  H
  S287     1.0000 0.48948  0.62334  0.21796  Biso   1.000  S
  C767     1.0000 0.47786  0.62411  0.22177  Biso   1.000  C
  H287     1.0000 0.49300  0.62550  0.21130  Biso   1.000  H
  S288     1.0000 0.42844  0.62304  0.23539  Biso   1.000  S
  C768     1.0000 0.42283  0.62367  0.30165  Biso   1.000  C
  H288     1.0000 0.40610  0.62430  0.29380  Biso   1.000  H
  S289     1.0000 0.29184  0.12371  0.91302  Biso   1.000  S
  O289     1.0000 0.16566  0.12491  0.96262  Biso   1.000  O
  O290     1.0000 0.17981  0.11178  0.92279  Biso   1.000  O
  O291     1.0000 0.33880  0.12442  0.87992  Biso   1.000  O
  C769     1.0000 0.18265  0.11942  0.94598  Biso   1.000  C
  C770     1.0000 0.21110  0.12206  0.95456  Biso   1.000  C
  C771     1.0000 0.25067  0.12438  0.97985  Biso   1.000  C
  C772     1.0000 0.25777  0.12414  0.95318  Biso   1.000  C
  C773     1.0000 0.28455  0.12441  0.94605  Biso   1.000  C
  C774     1.0000 0.23134  0.12070  0.94056  Biso   1.000  C
  H289     1.0000 0.22990  0.11920  0.92220  Biso   1.000  H
  S290     1.0000 0.21796  0.12334  0.98948  Biso   1.000  S
  C775     1.0000 0.22177  0.12411  0.97786  Biso   1.000  C
  H290     1.0000 0.21130  0.12550  0.99300  Biso   1.000  H
  S291     1.0000 0.23539  0.12304  0.92844  Biso   1.000  S
  C776     1.0000 0.30165  0.12367  0.92283  Biso   1.000  C
  H291     1.0000 0.29380  0.12430  0.90610  Biso   1.000  H
  S292     1.0000 0.29184  0.62371  0.41302  Biso   1.000  S
  O292     1.0000 0.16566  0.62491  0.46262  Biso   1.000  O
  O293     1.0000 0.17981  0.61178  0.42279  Biso   1.000  O
  O294     1.0000 0.33880  0.62442  0.37992  Biso   1.000  O
  C777     1.0000 0.18265  0.61942  0.44598  Biso   1.000  C
  C778     1.0000 0.21110  0.62206  0.45456  Biso   1.000  C
  C779     1.0000 0.25067  0.62438  0.47985  Biso   1.000  C
  C780     1.0000 0.25777  0.62414  0.45318  Biso   1.000  C
  C781     1.0000 0.28455  0.62441  0.44605  Biso   1.000  C
  C782     1.0000 0.23134  0.62070  0.44056  Biso   1.000  C
  H292     1.0000 0.22990  0.61920  0.42220  Biso   1.000  H
  S293     1.0000 0.21796  0.62334  0.48948  Biso   1.000  S
  C783     1.0000 0.22177  0.62411  0.47786  Biso   1.000  C
  H293     1.0000 0.21130  0.62550  0.49300  Biso   1.000  H
  S294     1.0000 0.23539  0.62304  0.42844  Biso   1.000  S
  C784     1.0000 0.30165  0.62367  0.42283  Biso   1.000  C
  H294     1.0000 0.29380  0.62430  0.40610  Biso   1.000  H
  S295     1.0000 0.79184  0.12371  0.41302  Biso   1.000  S
  O295     1.0000 0.66566  0.12491  0.46262  Biso   1.000  O
  O296     1.0000 0.67981  0.11178  0.42279  Biso   1.000  O
  O297     1.0000 0.83880  0.12442  0.37992  Biso   1.000  O
  C785     1.0000 0.68265  0.11942  0.44598  Biso   1.000  C
  C786     1.0000 0.71110  0.12206  0.45456  Biso   1.000  C
  C787     1.0000 0.75067  0.12438  0.47985  Biso   1.000  C
  C788     1.0000 0.75777  0.12414  0.45318  Biso   1.000  C
  C789     1.0000 0.78455  0.12441  0.44605  Biso   1.000  C
  C790     1.0000 0.73134  0.12070  0.44056  Biso   1.000  C
  H295     1.0000 0.72990  0.11920  0.42220  Biso   1.000  H
  S296     1.0000 0.71796  0.12334  0.48948  Biso   1.000  S
  C791     1.0000 0.72177  0.12411  0.47786  Biso   1.000  C
  H296     1.0000 0.71130  0.12550  0.49300  Biso   1.000  H
  S297     1.0000 0.73539  0.12304  0.42844  Biso   1.000  S
  C792     1.0000 0.80165  0.12367  0.42283  Biso   1.000  C
  H297     1.0000 0.79380  0.12430  0.40610  Biso   1.000  H
  S298     1.0000 0.79184  0.62371  0.91302  Biso   1.000  S
  O298     1.0000 0.66566  0.62491  0.96262  Biso   1.000  O
  O299     1.0000 0.67981  0.61178  0.92279  Biso   1.000  O
  O300     1.0000 0.83880  0.62442  0.87992  Biso   1.000  O
  C793     1.0000 0.68265  0.61942  0.94598  Biso   1.000  C
  C794     1.0000 0.71110  0.62206  0.95456  Biso   1.000  C
  C795     1.0000 0.75067  0.62438  0.97985  Biso   1.000  C
  C796     1.0000 0.75777  0.62414  0.95318  Biso   1.000  C
  C797     1.0000 0.78455  0.62441  0.94605  Biso   1.000  C
  C798     1.0000 0.73134  0.62070  0.94056  Biso   1.000  C
  H298     1.0000 0.72990  0.61920  0.92220  Biso   1.000  H
  S299     1.0000 0.71796  0.62334  0.98948  Biso   1.000  S
  C799     1.0000 0.72177  0.62411  0.97786  Biso   1.000  C
  H299     1.0000 0.71130  0.62550  0.99300  Biso   1.000  H
  S300     1.0000 0.73539  0.62304  0.92844  Biso   1.000  S
  C800     1.0000 0.80165  0.62367  0.92283  Biso   1.000  C
  H300     1.0000 0.79380  0.62430  0.90610  Biso   1.000  H
  S301     1.0000 0.95816  0.62629  0.41302  Biso   1.000  S
  O301     1.0000 0.08434  0.62509  0.46262  Biso   1.000  O
  O302     1.0000 0.07019  0.63822  0.42279  Biso   1.000  O
  O303     1.0000 0.91120  0.62558  0.37992  Biso   1.000  O
  C801     1.0000 0.06735  0.63058  0.44598  Biso   1.000  C
  C802     1.0000 0.03890  0.62794  0.45456  Biso   1.000  C
  C803     1.0000 0.99933  0.62562  0.47985  Biso   1.000  C
  C804     1.0000 0.99223  0.62586  0.45318  Biso   1.000  C
  C805     1.0000 0.96545  0.62559  0.44605  Biso   1.000  C
  C806     1.0000 0.01866  0.62930  0.44056  Biso   1.000  C
  H301     1.0000 0.02010  0.63080  0.42220  Biso   1.000  H
  S302     1.0000 0.03204  0.62666  0.48948  Biso   1.000  S
  C807     1.0000 0.02823  0.62589  0.47786  Biso   1.000  C
  H302     1.0000 0.03870  0.62450  0.49300  Biso   1.000  H
  S303     1.0000 0.01461  0.62696  0.42844  Biso   1.000  S
  C808     1.0000 0.94835  0.62633  0.42283  Biso   1.000  C
  H303     1.0000 0.95620  0.62570  0.40610  Biso   1.000  H
  S304     1.0000 0.95816  0.12629  0.91302  Biso   1.000  S
  O304     1.0000 0.08434  0.12509  0.96262  Biso   1.000  O
  O305     1.0000 0.07019  0.13822  0.92279  Biso   1.000  O
  O306     1.0000 0.91120  0.12558  0.87992  Biso   1.000  O
  C809     1.0000 0.06735  0.13058  0.94598  Biso   1.000  C
  C810     1.0000 0.03890  0.12794  0.95456  Biso   1.000  C
  C811     1.0000 0.99933  0.12562  0.97985  Biso   1.000  C
  C812     1.0000 0.99223  0.12586  0.95318  Biso   1.000  C
  C813     1.0000 0.96545  0.12559  0.94605  Biso   1.000  C
  C814     1.0000 0.01866  0.12930  0.94056  Biso   1.000  C
  H304     1.0000 0.02010  0.13080  0.92220  Biso   1.000  H
  S305     1.0000 0.03204  0.12666  0.98948  Biso   1.000  S
  C815     1.0000 0.02823  0.12589  0.97786  Biso   1.000  C
  H305     1.0000 0.03870  0.12450  0.99300  Biso   1.000  H
  S306     1.0000 0.01461  0.12696  0.92844  Biso   1.000  S
  C816     1.0000 0.94835  0.12633  0.92283  Biso   1.000  C
  H306     1.0000 0.95620  0.12570  0.90610  Biso   1.000  H
  S307     1.0000 0.45816  0.62629  0.91302  Biso   1.000  S
  O307     1.0000 0.58434  0.62509  0.96262  Biso   1.000  O
  O308     1.0000 0.57019  0.63822  0.92279  Biso   1.000  O
  O309     1.0000 0.41120  0.62558  0.87992  Biso   1.000  O
  C817     1.0000 0.56735  0.63058  0.94598  Biso   1.000  C
  C818     1.0000 0.53890  0.62794  0.95456  Biso   1.000  C
  C819     1.0000 0.49933  0.62562  0.97985  Biso   1.000  C
  C820     1.0000 0.49223  0.62586  0.95318  Biso   1.000  C
  C821     1.0000 0.46545  0.62559  0.94605  Biso   1.000  C
  C822     1.0000 0.51866  0.62930  0.94056  Biso   1.000  C
  H307     1.0000 0.52010  0.63080  0.92220  Biso   1.000  H
  S308     1.0000 0.53204  0.62666  0.98948  Biso   1.000  S
  C823     1.0000 0.52823  0.62589  0.97786  Biso   1.000  C
  H308     1.0000 0.53870  0.62450  0.99300  Biso   1.000  H
  S309     1.0000 0.51461  0.62696  0.92844  Biso   1.000  S
  C824     1.0000 0.44835  0.62633  0.92283  Biso   1.000  C
  H309     1.0000 0.45620  0.62570  0.90610  Biso   1.000  H
  S310     1.0000 0.45816  0.12629  0.41302  Biso   1.000  S
  O310     1.0000 0.58434  0.12509  0.46262  Biso   1.000  O
  O311     1.0000 0.57019  0.13822  0.42279  Biso   1.000  O
  O312     1.0000 0.41120  0.12558  0.37992  Biso   1.000  O
  C825     1.0000 0.56735  0.13058  0.44598  Biso   1.000  C
  C826     1.0000 0.53890  0.12794  0.45456  Biso   1.000  C
  C827     1.0000 0.49933  0.12562  0.47985  Biso   1.000  C
  C828     1.0000 0.49223  0.12586  0.45318  Biso   1.000  C
  C829     1.0000 0.46545  0.12559  0.44605  Biso   1.000  C
  C830     1.0000 0.51866  0.12930  0.44056  Biso   1.000  C
  H310     1.0000 0.52010  0.13080  0.42220  Biso   1.000  H
  S311     1.0000 0.53204  0.12666  0.48948  Biso   1.000  S
  C831     1.0000 0.52823  0.12589  0.47786  Biso   1.000  C
  H311     1.0000 0.53870  0.12450  0.49300  Biso   1.000  H
  S312     1.0000 0.51461  0.12696  0.42844  Biso   1.000  S
  C832     1.0000 0.44835  0.12633  0.42283  Biso   1.000  C
  H312     1.0000 0.45620  0.12570  0.40610  Biso   1.000  H
  S313     1.0000 0.45816  0.62371  0.33698  Biso   1.000  S
  O313     1.0000 0.58434  0.62491  0.28738  Biso   1.000  O
  O314     1.0000 0.57019  0.61178  0.32721  Biso   1.000  O
  O315     1.0000 0.41120  0.62442  0.37008  Biso   1.000  O
  C833     1.0000 0.56735  0.61942  0.30402  Biso   1.000  C
  C834     1.0000 0.53890  0.62206  0.29544  Biso   1.000  C
  C835     1.0000 0.49933  0.62438  0.27015  Biso   1.000  C
  C836     1.0000 0.49223  0.62414  0.29682  Biso   1.000  C
  C837     1.0000 0.46545  0.62441  0.30395  Biso   1.000  C
  C838     1.0000 0.51866  0.62070  0.30944  Biso   1.000  C
  H313     1.0000 0.52010  0.61920  0.32780  Biso   1.000  H
  S314     1.0000 0.53204  0.62334  0.26052  Biso   1.000  S
  C839     1.0000 0.52823  0.62411  0.27214  Biso   1.000  C
  H314     1.0000 0.53870  0.62550  0.25700  Biso   1.000  H
  S315     1.0000 0.51461  0.62304  0.32156  Biso   1.000  S
  C840     1.0000 0.44835  0.62367  0.32717  Biso   1.000  C
  H315     1.0000 0.45620  0.62430  0.34390  Biso   1.000  H
  S316     1.0000 0.45816  0.12371  0.83698  Biso   1.000  S
  O316     1.0000 0.58434  0.12491  0.78738  Biso   1.000  O
  O317     1.0000 0.57019  0.11178  0.82721  Biso   1.000  O
  O318     1.0000 0.41120  0.12442  0.87008  Biso   1.000  O
  C841     1.0000 0.56735  0.11942  0.80402  Biso   1.000  C
  C842     1.0000 0.53890  0.12206  0.79544  Biso   1.000  C
  C843     1.0000 0.49933  0.12438  0.77015  Biso   1.000  C
  C844     1.0000 0.49223  0.12414  0.79682  Biso   1.000  C
  C845     1.0000 0.46545  0.12441  0.80395  Biso   1.000  C
  C846     1.0000 0.51866  0.12070  0.80944  Biso   1.000  C
  H316     1.0000 0.52010  0.11920  0.82780  Biso   1.000  H
  S317     1.0000 0.53204  0.12334  0.76052  Biso   1.000  S
  C847     1.0000 0.52823  0.12411  0.77214  Biso   1.000  C
  H317     1.0000 0.53870  0.12550  0.75700  Biso   1.000  H
  S318     1.0000 0.51461  0.12304  0.82156  Biso   1.000  S
  C848     1.0000 0.44835  0.12367  0.82717  Biso   1.000  C
  H318     1.0000 0.45620  0.12430  0.84390  Biso   1.000  H
  S319     1.0000 0.95816  0.62371  0.83698  Biso   1.000  S
  O319     1.0000 0.08434  0.62491  0.78738  Biso   1.000  O
  O320     1.0000 0.07019  0.61178  0.82721  Biso   1.000  O
  O321     1.0000 0.91120  0.62442  0.87008  Biso   1.000  O
  C849     1.0000 0.06735  0.61942  0.80402  Biso   1.000  C
  C850     1.0000 0.03890  0.62206  0.79544  Biso   1.000  C
  C851     1.0000 0.99933  0.62438  0.77015  Biso   1.000  C
  C852     1.0000 0.99223  0.62414  0.79682  Biso   1.000  C
  C853     1.0000 0.96545  0.62441  0.80395  Biso   1.000  C
  C854     1.0000 0.01866  0.62070  0.80944  Biso   1.000  C
  H319     1.0000 0.02010  0.61920  0.82780  Biso   1.000  H
  S320     1.0000 0.03204  0.62334  0.76052  Biso   1.000  S
  C855     1.0000 0.02823  0.62411  0.77214  Biso   1.000  C
  H320     1.0000 0.03870  0.62550  0.75700  Biso   1.000  H
  S321     1.0000 0.01461  0.62304  0.82156  Biso   1.000  S
  C856     1.0000 0.94835  0.62367  0.82717  Biso   1.000  C
  H321     1.0000 0.95620  0.62430  0.84390  Biso   1.000  H
  S322     1.0000 0.95816  0.12371  0.33698  Biso   1.000  S
  O322     1.0000 0.08434  0.12491  0.28738  Biso   1.000  O
  O323     1.0000 0.07019  0.11178  0.32721  Biso   1.000  O
  O324     1.0000 0.91120  0.12442  0.37008  Biso   1.000  O
  C857     1.0000 0.06735  0.11942  0.30402  Biso   1.000  C
  C858     1.0000 0.03890  0.12206  0.29544  Biso   1.000  C
  C859     1.0000 0.99933  0.12438  0.27015  Biso   1.000  C
  C860     1.0000 0.99223  0.12414  0.29682  Biso   1.000  C
  C861     1.0000 0.96545  0.12441  0.30395  Biso   1.000  C
  C862     1.0000 0.01866  0.12070  0.30944  Biso   1.000  C
  H322     1.0000 0.02010  0.11920  0.32780  Biso   1.000  H
  S323     1.0000 0.03204  0.12334  0.26052  Biso   1.000  S
  C863     1.0000 0.02823  0.12411  0.27214  Biso   1.000  C
  H323     1.0000 0.03870  0.12550  0.25700  Biso   1.000  H
  S324     1.0000 0.01461  0.12304  0.32156  Biso   1.000  S
  C864     1.0000 0.94835  0.12367  0.32717  Biso   1.000  C
  H324     1.0000 0.95620  0.12430  0.34390  Biso   1.000  H
  S325     1.0000 0.79184  0.12629  0.83698  Biso   1.000  S
  O325     1.0000 0.66566  0.12509  0.78738  Biso   1.000  O
  O326     1.0000 0.67981  0.13822  0.82721  Biso   1.000  O
  O327     1.0000 0.83880  0.12558  0.87008  Biso   1.000  O
  C865     1.0000 0.68265  0.13058  0.80402  Biso   1.000  C
  C866     1.0000 0.71110  0.12794  0.79544  Biso   1.000  C
  C867     1.0000 0.75067  0.12562  0.77015  Biso   1.000  C
  C868     1.0000 0.75777  0.12586  0.79682  Biso   1.000  C
  C869     1.0000 0.78455  0.12559  0.80395  Biso   1.000  C
  C870     1.0000 0.73134  0.12930  0.80944  Biso   1.000  C
  H325     1.0000 0.72990  0.13080  0.82780  Biso   1.000  H
  S326     1.0000 0.71796  0.12666  0.76052  Biso   1.000  S
  C871     1.0000 0.72177  0.12589  0.77214  Biso   1.000  C
  H326     1.0000 0.71130  0.12450  0.75700  Biso   1.000  H
  S327     1.0000 0.73539  0.12696  0.82156  Biso   1.000  S
  C872     1.0000 0.80165  0.12633  0.82717  Biso   1.000  C
  H327     1.0000 0.79380  0.12570  0.84390  Biso   1.000  H
  S328     1.0000 0.79184  0.62629  0.33698  Biso   1.000  S
  O328     1.0000 0.66566  0.62509  0.28738  Biso   1.000  O
  O329     1.0000 0.67981  0.63822  0.32721  Biso   1.000  O
  O330     1.0000 0.83880  0.62558  0.37008  Biso   1.000  O
  C873     1.0000 0.68265  0.63058  0.30402  Biso   1.000  C
  C874     1.0000 0.71110  0.62794  0.29544  Biso   1.000  C
  C875     1.0000 0.75067  0.62562  0.27015  Biso   1.000  C
  C876     1.0000 0.75777  0.62586  0.29682  Biso   1.000  C
  C877     1.0000 0.78455  0.62559  0.30395  Biso   1.000  C
  C878     1.0000 0.73134  0.62930  0.30944  Biso   1.000  C
  H328     1.0000 0.72990  0.63080  0.32780  Biso   1.000  H
  S329     1.0000 0.71796  0.62666  0.26052  Biso   1.000  S
  C879     1.0000 0.72177  0.62589  0.27214  Biso   1.000  C
  H329     1.0000 0.71130  0.62450  0.25700  Biso   1.000  H
  S330     1.0000 0.73539  0.62696  0.32156  Biso   1.000  S
  C880     1.0000 0.80165  0.62633  0.32717  Biso   1.000  C
  H330     1.0000 0.79380  0.62570  0.34390  Biso   1.000  H
  S331     1.0000 0.29184  0.12629  0.33698  Biso   1.000  S
  O331     1.0000 0.16566  0.12509  0.28738  Biso   1.000  O
  O332     1.0000 0.17981  0.13822  0.32721  Biso   1.000  O
  O333     1.0000 0.33880  0.12558  0.37008  Biso   1.000  O
  C881     1.0000 0.18265  0.13058  0.30402  Biso   1.000  C
  C882     1.0000 0.21110  0.12794  0.29544  Biso   1.000  C
  C883     1.0000 0.25067  0.12562  0.27015  Biso   1.000  C
  C884     1.0000 0.25777  0.12586  0.29682  Biso   1.000  C
  C885     1.0000 0.28455  0.12559  0.30395  Biso   1.000  C
  C886     1.0000 0.23134  0.12930  0.30944  Biso   1.000  C
  H331     1.0000 0.22990  0.13080  0.32780  Biso   1.000  H
  S332     1.0000 0.21796  0.12666  0.26052  Biso   1.000  S
  C887     1.0000 0.22177  0.12589  0.27214  Biso   1.000  C
  H332     1.0000 0.21130  0.12450  0.25700  Biso   1.000  H
  S333     1.0000 0.23539  0.12696  0.32156  Biso   1.000  S
  C888     1.0000 0.30165  0.12633  0.32717  Biso   1.000  C
  H333     1.0000 0.29380  0.12570  0.34390  Biso   1.000  H
  S334     1.0000 0.29184  0.62629  0.83698  Biso   1.000  S
  O334     1.0000 0.16566  0.62509  0.78738  Biso   1.000  O
  O335     1.0000 0.17981  0.63822  0.82721  Biso   1.000  O
  O336     1.0000 0.33880  0.62558  0.87008  Biso   1.000  O
  C889     1.0000 0.18265  0.63058  0.80402  Biso   1.000  C
  C890     1.0000 0.21110  0.62794  0.79544  Biso   1.000  C
  C891     1.0000 0.25067  0.62562  0.77015  Biso   1.000  C
  C892     1.0000 0.25777  0.62586  0.79682  Biso   1.000  C
  C893     1.0000 0.28455  0.62559  0.80395  Biso   1.000  C
  C894     1.0000 0.23134  0.62930  0.80944  Biso   1.000  C
  H334     1.0000 0.22990  0.63080  0.82780  Biso   1.000  H
  S335     1.0000 0.21796  0.62666  0.76052  Biso   1.000  S
  C895     1.0000 0.22177  0.62589  0.77214  Biso   1.000  C
  H335     1.0000 0.21130  0.62450  0.75700  Biso   1.000  H
  S336     1.0000 0.23539  0.62696  0.82156  Biso   1.000  S
  C896     1.0000 0.30165  0.62633  0.82717  Biso   1.000  C
  H336     1.0000 0.29380  0.62570  0.84390  Biso   1.000  H
  S337     1.0000 0.91302  0.29184  0.12371  Biso   1.000  S
  O337     1.0000 0.96262  0.16566  0.12491  Biso   1.000  O
  O338     1.0000 0.92279  0.17981  0.11178  Biso   1.000  O
  O339     1.0000 0.87992  0.33880  0.12442  Biso   1.000  O
  C897     1.0000 0.94598  0.18265  0.11942  Biso   1.000  C
  C898     1.0000 0.95456  0.21110  0.12206  Biso   1.000  C
  C899     1.0000 0.97985  0.25067  0.12438  Biso   1.000  C
  C900     1.0000 0.95318  0.25777  0.12414  Biso   1.000  C
  C901     1.0000 0.94605  0.28455  0.12441  Biso   1.000  C
  C902     1.0000 0.94056  0.23134  0.12070  Biso   1.000  C
  H337     1.0000 0.92220  0.22990  0.11920  Biso   1.000  H
  S338     1.0000 0.98948  0.21796  0.12334  Biso   1.000  S
  C903     1.0000 0.97786  0.22177  0.12411  Biso   1.000  C
  H338     1.0000 0.99300  0.21130  0.12550  Biso   1.000  H
  S339     1.0000 0.92844  0.23539  0.12304  Biso   1.000  S
  C904     1.0000 0.92283  0.30165  0.12367  Biso   1.000  C
  H339     1.0000 0.90610  0.29380  0.12430  Biso   1.000  H
  S340     1.0000 0.91302  0.79184  0.62371  Biso   1.000  S
  O340     1.0000 0.96262  0.66566  0.62491  Biso   1.000  O
  O341     1.0000 0.92279  0.67981  0.61178  Biso   1.000  O
  O342     1.0000 0.87992  0.83880  0.62442  Biso   1.000  O
  C905     1.0000 0.94598  0.68265  0.61942  Biso   1.000  C
  C906     1.0000 0.95456  0.71110  0.62206  Biso   1.000  C
  C907     1.0000 0.97985  0.75067  0.62438  Biso   1.000  C
  C908     1.0000 0.95318  0.75777  0.62414  Biso   1.000  C
  C909     1.0000 0.94605  0.78455  0.62441  Biso   1.000  C
  C910     1.0000 0.94056  0.73134  0.62070  Biso   1.000  C
  H340     1.0000 0.92220  0.72990  0.61920  Biso   1.000  H
  S341     1.0000 0.98948  0.71796  0.62334  Biso   1.000  S
  C911     1.0000 0.97786  0.72177  0.62411  Biso   1.000  C
  H341     1.0000 0.99300  0.71130  0.62550  Biso   1.000  H
  S342     1.0000 0.92844  0.73539  0.62304  Biso   1.000  S
  C912     1.0000 0.92283  0.80165  0.62367  Biso   1.000  C
  H342     1.0000 0.90610  0.79380  0.62430  Biso   1.000  H
  S343     1.0000 0.41302  0.29184  0.62371  Biso   1.000  S
  O343     1.0000 0.46262  0.16566  0.62491  Biso   1.000  O
  O344     1.0000 0.42279  0.17981  0.61178  Biso   1.000  O
  O345     1.0000 0.37992  0.33880  0.62442  Biso   1.000  O
  C913     1.0000 0.44598  0.18265  0.61942  Biso   1.000  C
  C914     1.0000 0.45456  0.21110  0.62206  Biso   1.000  C
  C915     1.0000 0.47985  0.25067  0.62438  Biso   1.000  C
  C916     1.0000 0.45318  0.25777  0.62414  Biso   1.000  C
  C917     1.0000 0.44605  0.28455  0.62441  Biso   1.000  C
  C918     1.0000 0.44056  0.23134  0.62070  Biso   1.000  C
  H343     1.0000 0.42220  0.22990  0.61920  Biso   1.000  H
  S344     1.0000 0.48948  0.21796  0.62334  Biso   1.000  S
  C919     1.0000 0.47786  0.22177  0.62411  Biso   1.000  C
  H344     1.0000 0.49300  0.21130  0.62550  Biso   1.000  H
  S345     1.0000 0.42844  0.23539  0.62304  Biso   1.000  S
  C920     1.0000 0.42283  0.30165  0.62367  Biso   1.000  C
  H345     1.0000 0.40610  0.29380  0.62430  Biso   1.000  H
  S346     1.0000 0.41302  0.79184  0.12371  Biso   1.000  S
  O346     1.0000 0.46262  0.66566  0.12491  Biso   1.000  O
  O347     1.0000 0.42279  0.67981  0.11178  Biso   1.000  O
  O348     1.0000 0.37992  0.83880  0.12442  Biso   1.000  O
  C921     1.0000 0.44598  0.68265  0.11942  Biso   1.000  C
  C922     1.0000 0.45456  0.71110  0.12206  Biso   1.000  C
  C923     1.0000 0.47985  0.75067  0.12438  Biso   1.000  C
  C924     1.0000 0.45318  0.75777  0.12414  Biso   1.000  C
  C925     1.0000 0.44605  0.78455  0.12441  Biso   1.000  C
  C926     1.0000 0.44056  0.73134  0.12070  Biso   1.000  C
  H346     1.0000 0.42220  0.72990  0.11920  Biso   1.000  H
  S347     1.0000 0.48948  0.71796  0.12334  Biso   1.000  S
  C927     1.0000 0.47786  0.72177  0.12411  Biso   1.000  C
  H347     1.0000 0.49300  0.71130  0.12550  Biso   1.000  H
  S348     1.0000 0.42844  0.73539  0.12304  Biso   1.000  S
  C928     1.0000 0.42283  0.80165  0.12367  Biso   1.000  C
  H348     1.0000 0.40610  0.79380  0.12430  Biso   1.000  H
  S349     1.0000 0.41302  0.95816  0.62629  Biso   1.000  S
  O349     1.0000 0.46262  0.08434  0.62509  Biso   1.000  O
  O350     1.0000 0.42279  0.07019  0.63822  Biso   1.000  O
  O351     1.0000 0.37992  0.91120  0.62558  Biso   1.000  O
  C929     1.0000 0.44598  0.06735  0.63058  Biso   1.000  C
  C930     1.0000 0.45456  0.03890  0.62794  Biso   1.000  C
  C931     1.0000 0.47985  0.99933  0.62562  Biso   1.000  C
  C932     1.0000 0.45318  0.99223  0.62586  Biso   1.000  C
  C933     1.0000 0.44605  0.96545  0.62559  Biso   1.000  C
  C934     1.0000 0.44056  0.01866  0.62930  Biso   1.000  C
  H349     1.0000 0.42220  0.02010  0.63080  Biso   1.000  H
  S350     1.0000 0.48948  0.03204  0.62666  Biso   1.000  S
  C935     1.0000 0.47786  0.02823  0.62589  Biso   1.000  C
  H350     1.0000 0.49300  0.03870  0.62450  Biso   1.000  H
  S351     1.0000 0.42844  0.01461  0.62696  Biso   1.000  S
  C936     1.0000 0.42283  0.94835  0.62633  Biso   1.000  C
  H351     1.0000 0.40610  0.95620  0.62570  Biso   1.000  H
  S352     1.0000 0.41302  0.45816  0.12629  Biso   1.000  S
  O352     1.0000 0.46262  0.58434  0.12509  Biso   1.000  O
  O353     1.0000 0.42279  0.57019  0.13822  Biso   1.000  O
  O354     1.0000 0.37992  0.41120  0.12558  Biso   1.000  O
  C937     1.0000 0.44598  0.56735  0.13058  Biso   1.000  C
  C938     1.0000 0.45456  0.53890  0.12794  Biso   1.000  C
  C939     1.0000 0.47985  0.49933  0.12562  Biso   1.000  C
  C940     1.0000 0.45318  0.49223  0.12586  Biso   1.000  C
  C941     1.0000 0.44605  0.46545  0.12559  Biso   1.000  C
  C942     1.0000 0.44056  0.51866  0.12930  Biso   1.000  C
  H352     1.0000 0.42220  0.52010  0.13080  Biso   1.000  H
  S353     1.0000 0.48948  0.53204  0.12666  Biso   1.000  S
  C943     1.0000 0.47786  0.52823  0.12589  Biso   1.000  C
  H353     1.0000 0.49300  0.53870  0.12450  Biso   1.000  H
  S354     1.0000 0.42844  0.51461  0.12696  Biso   1.000  S
  C944     1.0000 0.42283  0.44835  0.12633  Biso   1.000  C
  H354     1.0000 0.40610  0.45620  0.12570  Biso   1.000  H
  S355     1.0000 0.91302  0.95816  0.12629  Biso   1.000  S
  O355     1.0000 0.96262  0.08434  0.12509  Biso   1.000  O
  O356     1.0000 0.92279  0.07019  0.13822  Biso   1.000  O
  O357     1.0000 0.87992  0.91120  0.12558  Biso   1.000  O
  C945     1.0000 0.94598  0.06735  0.13058  Biso   1.000  C
  C946     1.0000 0.95456  0.03890  0.12794  Biso   1.000  C
  C947     1.0000 0.97985  0.99933  0.12562  Biso   1.000  C
  C948     1.0000 0.95318  0.99223  0.12586  Biso   1.000  C
  C949     1.0000 0.94605  0.96545  0.12559  Biso   1.000  C
  C950     1.0000 0.94056  0.01866  0.12930  Biso   1.000  C
  H355     1.0000 0.92220  0.02010  0.13080  Biso   1.000  H
  S356     1.0000 0.98948  0.03204  0.12666  Biso   1.000  S
  C951     1.0000 0.97786  0.02823  0.12589  Biso   1.000  C
  H356     1.0000 0.99300  0.03870  0.12450  Biso   1.000  H
  S357     1.0000 0.92844  0.01461  0.12696  Biso   1.000  S
  C952     1.0000 0.92283  0.94835  0.12633  Biso   1.000  C
  H357     1.0000 0.90610  0.95620  0.12570  Biso   1.000  H
  S358     1.0000 0.91302  0.45816  0.62629  Biso   1.000  S
  O358     1.0000 0.96262  0.58434  0.62509  Biso   1.000  O
  O359     1.0000 0.92279  0.57019  0.63822  Biso   1.000  O
  O360     1.0000 0.87992  0.41120  0.62558  Biso   1.000  O
  C953     1.0000 0.94598  0.56735  0.63058  Biso   1.000  C
  C954     1.0000 0.95456  0.53890  0.62794  Biso   1.000  C
  C955     1.0000 0.97985  0.49933  0.62562  Biso   1.000  C
  C956     1.0000 0.95318  0.49223  0.62586  Biso   1.000  C
  C957     1.0000 0.94605  0.46545  0.62559  Biso   1.000  C
  C958     1.0000 0.94056  0.51866  0.62930  Biso   1.000  C
  H358     1.0000 0.92220  0.52010  0.63080  Biso   1.000  H
  S359     1.0000 0.98948  0.53204  0.62666  Biso   1.000  S
  C959     1.0000 0.97786  0.52823  0.62589  Biso   1.000  C
  H359     1.0000 0.99300  0.53870  0.62450  Biso   1.000  H
  S360     1.0000 0.92844  0.51461  0.62696  Biso   1.000  S
  C960     1.0000 0.92283  0.44835  0.62633  Biso   1.000  C
  H360     1.0000 0.90610  0.45620  0.62570  Biso   1.000  H
  S361     1.0000 0.33698  0.45816  0.62371  Biso   1.000  S
  O361     1.0000 0.28738  0.58434  0.62491  Biso   1.000  O
  O362     1.0000 0.32721  0.57019  0.61178  Biso   1.000  O
  O363     1.0000 0.37008  0.41120  0.62442  Biso   1.000  O
  C961     1.0000 0.30402  0.56735  0.61942  Biso   1.000  C
  C962     1.0000 0.29544  0.53890  0.62206  Biso   1.000  C
  C963     1.0000 0.27015  0.49933  0.62438  Biso   1.000  C
  C964     1.0000 0.29682  0.49223  0.62414  Biso   1.000  C
  C965     1.0000 0.30395  0.46545  0.62441  Biso   1.000  C
  C966     1.0000 0.30944  0.51866  0.62070  Biso   1.000  C
  H361     1.0000 0.32780  0.52010  0.61920  Biso   1.000  H
  S362     1.0000 0.26052  0.53204  0.62334  Biso   1.000  S
  C967     1.0000 0.27214  0.52823  0.62411  Biso   1.000  C
  H362     1.0000 0.25700  0.53870  0.62550  Biso   1.000  H
  S363     1.0000 0.32156  0.51461  0.62304  Biso   1.000  S
  C968     1.0000 0.32717  0.44835  0.62367  Biso   1.000  C
  H363     1.0000 0.34390  0.45620  0.62430  Biso   1.000  H
  S364     1.0000 0.33698  0.95816  0.12371  Biso   1.000  S
  O364     1.0000 0.28738  0.08434  0.12491  Biso   1.000  O
  O365     1.0000 0.32721  0.07019  0.11178  Biso   1.000  O
  O366     1.0000 0.37008  0.91120  0.12442  Biso   1.000  O
  C969     1.0000 0.30402  0.06735  0.11942  Biso   1.000  C
  C970     1.0000 0.29544  0.03890  0.12206  Biso   1.000  C
  C971     1.0000 0.27015  0.99933  0.12438  Biso   1.000  C
  C972     1.0000 0.29682  0.99223  0.12414  Biso   1.000  C
  C973     1.0000 0.30395  0.96545  0.12441  Biso   1.000  C
  C974     1.0000 0.30944  0.01866  0.12070  Biso   1.000  C
  H364     1.0000 0.32780  0.02010  0.11920  Biso   1.000  H
  S365     1.0000 0.26052  0.03204  0.12334  Biso   1.000  S
  C975     1.0000 0.27214  0.02823  0.12411  Biso   1.000  C
  H365     1.0000 0.25700  0.03870  0.12550  Biso   1.000  H
  S366     1.0000 0.32156  0.01461  0.12304  Biso   1.000  S
  C976     1.0000 0.32717  0.94835  0.12367  Biso   1.000  C
  H366     1.0000 0.34390  0.95620  0.12430  Biso   1.000  H
  S367     1.0000 0.83698  0.45816  0.12371  Biso   1.000  S
  O367     1.0000 0.78738  0.58434  0.12491  Biso   1.000  O
  O368     1.0000 0.82721  0.57019  0.11178  Biso   1.000  O
  O369     1.0000 0.87008  0.41120  0.12442  Biso   1.000  O
  C977     1.0000 0.80402  0.56735  0.11942  Biso   1.000  C
  C978     1.0000 0.79544  0.53890  0.12206  Biso   1.000  C
  C979     1.0000 0.77015  0.49933  0.12438  Biso   1.000  C
  C980     1.0000 0.79682  0.49223  0.12414  Biso   1.000  C
  C981     1.0000 0.80395  0.46545  0.12441  Biso   1.000  C
  C982     1.0000 0.80944  0.51866  0.12070  Biso   1.000  C
  H367     1.0000 0.82780  0.52010  0.11920  Biso   1.000  H
  S368     1.0000 0.76052  0.53204  0.12334  Biso   1.000  S
  C983     1.0000 0.77214  0.52823  0.12411  Biso   1.000  C
  H368     1.0000 0.75700  0.53870  0.12550  Biso   1.000  H
  S369     1.0000 0.82156  0.51461  0.12304  Biso   1.000  S
  C984     1.0000 0.82717  0.44835  0.12367  Biso   1.000  C
  H369     1.0000 0.84390  0.45620  0.12430  Biso   1.000  H
  S370     1.0000 0.83698  0.95816  0.62371  Biso   1.000  S
  O370     1.0000 0.78738  0.08434  0.62491  Biso   1.000  O
  O371     1.0000 0.82721  0.07019  0.61178  Biso   1.000  O
  O372     1.0000 0.87008  0.91120  0.62442  Biso   1.000  O
  C985     1.0000 0.80402  0.06735  0.61942  Biso   1.000  C
  C986     1.0000 0.79544  0.03890  0.62206  Biso   1.000  C
  C987     1.0000 0.77015  0.99933  0.62438  Biso   1.000  C
  C988     1.0000 0.79682  0.99223  0.62414  Biso   1.000  C
  C989     1.0000 0.80395  0.96545  0.62441  Biso   1.000  C
  C990     1.0000 0.80944  0.01866  0.62070  Biso   1.000  C
  H370     1.0000 0.82780  0.02010  0.61920  Biso   1.000  H
  S371     1.0000 0.76052  0.03204  0.62334  Biso   1.000  S
  C991     1.0000 0.77214  0.02823  0.62411  Biso   1.000  C
  H371     1.0000 0.75700  0.03870  0.62550  Biso   1.000  H
  S372     1.0000 0.82156  0.01461  0.62304  Biso   1.000  S
  C992     1.0000 0.82717  0.94835  0.62367  Biso   1.000  C
  H372     1.0000 0.84390  0.95620  0.62430  Biso   1.000  H
  S373     1.0000 0.83698  0.79184  0.12629  Biso   1.000  S
  O373     1.0000 0.78738  0.66566  0.12509  Biso   1.000  O
  O374     1.0000 0.82721  0.67981  0.13822  Biso   1.000  O
  O375     1.0000 0.87008  0.83880  0.12558  Biso   1.000  O
  C993     1.0000 0.80402  0.68265  0.13058  Biso   1.000  C
  C994     1.0000 0.79544  0.71110  0.12794  Biso   1.000  C
  C995     1.0000 0.77015  0.75067  0.12562  Biso   1.000  C
  C996     1.0000 0.79682  0.75777  0.12586  Biso   1.000  C
  C997     1.0000 0.80395  0.78455  0.12559  Biso   1.000  C
  C998     1.0000 0.80944  0.73134  0.12930  Biso   1.000  C
  H373     1.0000 0.82780  0.72990  0.13080  Biso   1.000  H
  S374     1.0000 0.76052  0.71796  0.12666  Biso   1.000  S
  C999     1.0000 0.77214  0.72177  0.12589  Biso   1.000  C
  H374     1.0000 0.75700  0.71130  0.12450  Biso   1.000  H
  S375     1.0000 0.82156  0.73539  0.12696  Biso   1.000  S
  C1000    1.0000 0.82717  0.80165  0.12633  Biso   1.000  C
  H375     1.0000 0.84390  0.79380  0.12570  Biso   1.000  H
  S376     1.0000 0.83698  0.29184  0.62629  Biso   1.000  S
  O376     1.0000 0.78738  0.16566  0.62509  Biso   1.000  O
  O377     1.0000 0.82721  0.17981  0.63822  Biso   1.000  O
  O378     1.0000 0.87008  0.33880  0.62558  Biso   1.000  O
  C1001    1.0000 0.80402  0.18265  0.63058  Biso   1.000  C
  C1002    1.0000 0.79544  0.21110  0.62794  Biso   1.000  C
  C1003    1.0000 0.77015  0.25067  0.62562  Biso   1.000  C
  C1004    1.0000 0.79682  0.25777  0.62586  Biso   1.000  C
  C1005    1.0000 0.80395  0.28455  0.62559  Biso   1.000  C
  C1006    1.0000 0.80944  0.23134  0.62930  Biso   1.000  C
  H376     1.0000 0.82780  0.22990  0.63080  Biso   1.000  H
  S377     1.0000 0.76052  0.21796  0.62666  Biso   1.000  S
  C1007    1.0000 0.77214  0.22177  0.62589  Biso   1.000  C
  H377     1.0000 0.75700  0.21130  0.62450  Biso   1.000  H
  S378     1.0000 0.82156  0.23539  0.62696  Biso   1.000  S
  C1008    1.0000 0.82717  0.30165  0.62633  Biso   1.000  C
  H378     1.0000 0.84390  0.29380  0.62570  Biso   1.000  H
  S379     1.0000 0.33698  0.79184  0.62629  Biso   1.000  S
  O379     1.0000 0.28738  0.66566  0.62509  Biso   1.000  O
  O380     1.0000 0.32721  0.67981  0.63822  Biso   1.000  O
  O381     1.0000 0.37008  0.83880  0.62558  Biso   1.000  O
  C1009    1.0000 0.30402  0.68265  0.63058  Biso   1.000  C
  C1010    1.0000 0.29544  0.71110  0.62794  Biso   1.000  C
  C1011    1.0000 0.27015  0.75067  0.62562  Biso   1.000  C
  C1012    1.0000 0.29682  0.75777  0.62586  Biso   1.000  C
  C1013    1.0000 0.30395  0.78455  0.62559  Biso   1.000  C
  C1014    1.0000 0.30944  0.73134  0.62930  Biso   1.000  C
  H379     1.0000 0.32780  0.72990  0.63080  Biso   1.000  H
  S380     1.0000 0.26052  0.71796  0.62666  Biso   1.000  S
  C1015    1.0000 0.27214  0.72177  0.62589  Biso   1.000  C
  H380     1.0000 0.25700  0.71130  0.62450  Biso   1.000  H
  S381     1.0000 0.32156  0.73539  0.62696  Biso   1.000  S
  C1016    1.0000 0.32717  0.80165  0.62633  Biso   1.000  C
  H381     1.0000 0.34390  0.79380  0.62570  Biso   1.000  H
  S382     1.0000 0.33698  0.29184  0.12629  Biso   1.000  S
  O382     1.0000 0.28738  0.16566  0.12509  Biso   1.000  O
  O383     1.0000 0.32721  0.17981  0.13822  Biso   1.000  O
  O384     1.0000 0.37008  0.33880  0.12558  Biso   1.000  O
  C1017    1.0000 0.30402  0.18265  0.13058  Biso   1.000  C
  C1018    1.0000 0.29544  0.21110  0.12794  Biso   1.000  C
  C1019    1.0000 0.27015  0.25067  0.12562  Biso   1.000  C
  C1020    1.0000 0.29682  0.25777  0.12586  Biso   1.000  C
  C1021    1.0000 0.30395  0.28455  0.12559  Biso   1.000  C
  C1022    1.0000 0.30944  0.23134  0.12930  Biso   1.000  C
  H382     1.0000 0.32780  0.22990  0.13080  Biso   1.000  H
  S383     1.0000 0.26052  0.21796  0.12666  Biso   1.000  S
  C1023    1.0000 0.27214  0.22177  0.12589  Biso   1.000  C
  H383     1.0000 0.25700  0.21130  0.12450  Biso   1.000  H
  S384     1.0000 0.32156  0.23539  0.12696  Biso   1.000  S
  C1024    1.0000 0.32717  0.30165  0.12633  Biso   1.000  C
  H384     1.0000 0.34390  0.29380  0.12570  Biso   1.000  H
  S385     1.0000 0.12371  0.91302  0.29184  Biso   1.000  S
  O385     1.0000 0.12491  0.96262  0.16566  Biso   1.000  O
  O386     1.0000 0.11178  0.92279  0.17981  Biso   1.000  O
  O387     1.0000 0.12442  0.87992  0.33880  Biso   1.000  O
  C1025    1.0000 0.11942  0.94598  0.18265  Biso   1.000  C
  C1026    1.0000 0.12206  0.95456  0.21110  Biso   1.000  C
  C1027    1.0000 0.12438  0.97985  0.25067  Biso   1.000  C
  C1028    1.0000 0.12414  0.95318  0.25777  Biso   1.000  C
  C1029    1.0000 0.12441  0.94605  0.28455  Biso   1.000  C
  C1030    1.0000 0.12070  0.94056  0.23134  Biso   1.000  C
  H385     1.0000 0.11920  0.92220  0.22990  Biso   1.000  H
  S386     1.0000 0.12334  0.98948  0.21796  Biso   1.000  S
  C1031    1.0000 0.12411  0.97786  0.22177  Biso   1.000  C
  H386     1.0000 0.12550  0.99300  0.21130  Biso   1.000  H
  S387     1.0000 0.12304  0.92844  0.23539  Biso   1.000  S
  C1032    1.0000 0.12367  0.92283  0.30165  Biso   1.000  C
  H387     1.0000 0.12430  0.90610  0.29380  Biso   1.000  H
  S388     1.0000 0.12371  0.41302  0.79184  Biso   1.000  S
  O388     1.0000 0.12491  0.46262  0.66566  Biso   1.000  O
  O389     1.0000 0.11178  0.42279  0.67981  Biso   1.000  O
  O390     1.0000 0.12442  0.37992  0.83880  Biso   1.000  O
  C1033    1.0000 0.11942  0.44598  0.68265  Biso   1.000  C
  C1034    1.0000 0.12206  0.45456  0.71110  Biso   1.000  C
  C1035    1.0000 0.12438  0.47985  0.75067  Biso   1.000  C
  C1036    1.0000 0.12414  0.45318  0.75777  Biso   1.000  C
  C1037    1.0000 0.12441  0.44605  0.78455  Biso   1.000  C
  C1038    1.0000 0.12070  0.44056  0.73134  Biso   1.000  C
  H388     1.0000 0.11920  0.42220  0.72990  Biso   1.000  H
  S389     1.0000 0.12334  0.48948  0.71796  Biso   1.000  S
  C1039    1.0000 0.12411  0.47786  0.72177  Biso   1.000  C
  H389     1.0000 0.12550  0.49300  0.71130  Biso   1.000  H
  S390     1.0000 0.12304  0.42844  0.73539  Biso   1.000  S
  C1040    1.0000 0.12367  0.42283  0.80165  Biso   1.000  C
  H390     1.0000 0.12430  0.40610  0.79380  Biso   1.000  H
  S391     1.0000 0.62371  0.91302  0.79184  Biso   1.000  S
  O391     1.0000 0.62491  0.96262  0.66566  Biso   1.000  O
  O392     1.0000 0.61178  0.92279  0.67981  Biso   1.000  O
  O393     1.0000 0.62442  0.87992  0.83880  Biso   1.000  O
  C1041    1.0000 0.61942  0.94598  0.68265  Biso   1.000  C
  C1042    1.0000 0.62206  0.95456  0.71110  Biso   1.000  C
  C1043    1.0000 0.62438  0.97985  0.75067  Biso   1.000  C
  C1044    1.0000 0.62414  0.95318  0.75777  Biso   1.000  C
  C1045    1.0000 0.62441  0.94605  0.78455  Biso   1.000  C
  C1046    1.0000 0.62070  0.94056  0.73134  Biso   1.000  C
  H391     1.0000 0.61920  0.92220  0.72990  Biso   1.000  H
  S392     1.0000 0.62334  0.98948  0.71796  Biso   1.000  S
  C1047    1.0000 0.62411  0.97786  0.72177  Biso   1.000  C
  H392     1.0000 0.62550  0.99300  0.71130  Biso   1.000  H
  S393     1.0000 0.62304  0.92844  0.73539  Biso   1.000  S
  C1048    1.0000 0.62367  0.92283  0.80165  Biso   1.000  C
  H393     1.0000 0.62430  0.90610  0.79380  Biso   1.000  H
  S394     1.0000 0.62371  0.41302  0.29184  Biso   1.000  S
  O394     1.0000 0.62491  0.46262  0.16566  Biso   1.000  O
  O395     1.0000 0.61178  0.42279  0.17981  Biso   1.000  O
  O396     1.0000 0.62442  0.37992  0.33880  Biso   1.000  O
  C1049    1.0000 0.61942  0.44598  0.18265  Biso   1.000  C
  C1050    1.0000 0.62206  0.45456  0.21110  Biso   1.000  C
  C1051    1.0000 0.62438  0.47985  0.25067  Biso   1.000  C
  C1052    1.0000 0.62414  0.45318  0.25777  Biso   1.000  C
  C1053    1.0000 0.62441  0.44605  0.28455  Biso   1.000  C
  C1054    1.0000 0.62070  0.44056  0.23134  Biso   1.000  C
  H394     1.0000 0.61920  0.42220  0.22990  Biso   1.000  H
  S395     1.0000 0.62334  0.48948  0.21796  Biso   1.000  S
  C1055    1.0000 0.62411  0.47786  0.22177  Biso   1.000  C
  H395     1.0000 0.62550  0.49300  0.21130  Biso   1.000  H
  S396     1.0000 0.62304  0.42844  0.23539  Biso   1.000  S
  C1056    1.0000 0.62367  0.42283  0.30165  Biso   1.000  C
  H396     1.0000 0.62430  0.40610  0.29380  Biso   1.000  H
  S397     1.0000 0.62629  0.41302  0.95816  Biso   1.000  S
  O397     1.0000 0.62509  0.46262  0.08434  Biso   1.000  O
  O398     1.0000 0.63822  0.42279  0.07019  Biso   1.000  O
  O399     1.0000 0.62558  0.37992  0.91120  Biso   1.000  O
  C1057    1.0000 0.63058  0.44598  0.06735  Biso   1.000  C
  C1058    1.0000 0.62794  0.45456  0.03890  Biso   1.000  C
  C1059    1.0000 0.62562  0.47985  0.99933  Biso   1.000  C
  C1060    1.0000 0.62586  0.45318  0.99223  Biso   1.000  C
  C1061    1.0000 0.62559  0.44605  0.96545  Biso   1.000  C
  C1062    1.0000 0.62930  0.44056  0.01866  Biso   1.000  C
  H397     1.0000 0.63080  0.42220  0.02010  Biso   1.000  H
  S398     1.0000 0.62666  0.48948  0.03204  Biso   1.000  S
  C1063    1.0000 0.62589  0.47786  0.02823  Biso   1.000  C
  H398     1.0000 0.62450  0.49300  0.03870  Biso   1.000  H
  S399     1.0000 0.62696  0.42844  0.01461  Biso   1.000  S
  C1064    1.0000 0.62633  0.42283  0.94835  Biso   1.000  C
  H399     1.0000 0.62570  0.40610  0.95620  Biso   1.000  H
  S400     1.0000 0.62629  0.91302  0.45816  Biso   1.000  S
  O400     1.0000 0.62509  0.96262  0.58434  Biso   1.000  O
  O401     1.0000 0.63822  0.92279  0.57019  Biso   1.000  O
  O402     1.0000 0.62558  0.87992  0.41120  Biso   1.000  O
  C1065    1.0000 0.63058  0.94598  0.56735  Biso   1.000  C
  C1066    1.0000 0.62794  0.95456  0.53890  Biso   1.000  C
  C1067    1.0000 0.62562  0.97985  0.49933  Biso   1.000  C
  C1068    1.0000 0.62586  0.95318  0.49223  Biso   1.000  C
  C1069    1.0000 0.62559  0.94605  0.46545  Biso   1.000  C
  C1070    1.0000 0.62930  0.94056  0.51866  Biso   1.000  C
  H400     1.0000 0.63080  0.92220  0.52010  Biso   1.000  H
  S401     1.0000 0.62666  0.98948  0.53204  Biso   1.000  S
  C1071    1.0000 0.62589  0.97786  0.52823  Biso   1.000  C
  H401     1.0000 0.62450  0.99300  0.53870  Biso   1.000  H
  S402     1.0000 0.62696  0.92844  0.51461  Biso   1.000  S
  C1072    1.0000 0.62633  0.92283  0.44835  Biso   1.000  C
  H402     1.0000 0.62570  0.90610  0.45620  Biso   1.000  H
  S403     1.0000 0.12629  0.41302  0.45816  Biso   1.000  S
  O403     1.0000 0.12509  0.46262  0.58434  Biso   1.000  O
  O404     1.0000 0.13822  0.42279  0.57019  Biso   1.000  O
  O405     1.0000 0.12558  0.37992  0.41120  Biso   1.000  O
  C1073    1.0000 0.13058  0.44598  0.56735  Biso   1.000  C
  C1074    1.0000 0.12794  0.45456  0.53890  Biso   1.000  C
  C1075    1.0000 0.12562  0.47985  0.49933  Biso   1.000  C
  C1076    1.0000 0.12586  0.45318  0.49223  Biso   1.000  C
  C1077    1.0000 0.12559  0.44605  0.46545  Biso   1.000  C
  C1078    1.0000 0.12930  0.44056  0.51866  Biso   1.000  C
  H403     1.0000 0.13080  0.42220  0.52010  Biso   1.000  H
  S404     1.0000 0.12666  0.48948  0.53204  Biso   1.000  S
  C1079    1.0000 0.12589  0.47786  0.52823  Biso   1.000  C
  H404     1.0000 0.12450  0.49300  0.53870  Biso   1.000  H
  S405     1.0000 0.12696  0.42844  0.51461  Biso   1.000  S
  C1080    1.0000 0.12633  0.42283  0.44835  Biso   1.000  C
  H405     1.0000 0.12570  0.40610  0.45620  Biso   1.000  H
  S406     1.0000 0.12629  0.91302  0.95816  Biso   1.000  S
  O406     1.0000 0.12509  0.96262  0.08434  Biso   1.000  O
  O407     1.0000 0.13822  0.92279  0.07019  Biso   1.000  O
  O408     1.0000 0.12558  0.87992  0.91120  Biso   1.000  O
  C1081    1.0000 0.13058  0.94598  0.06735  Biso   1.000  C
  C1082    1.0000 0.12794  0.95456  0.03890  Biso   1.000  C
  C1083    1.0000 0.12562  0.97985  0.99933  Biso   1.000  C
  C1084    1.0000 0.12586  0.95318  0.99223  Biso   1.000  C
  C1085    1.0000 0.12559  0.94605  0.96545  Biso   1.000  C
  C1086    1.0000 0.12930  0.94056  0.01866  Biso   1.000  C
  H406     1.0000 0.13080  0.92220  0.02010  Biso   1.000  H
  S407     1.0000 0.12666  0.98948  0.03204  Biso   1.000  S
  C1087    1.0000 0.12589  0.97786  0.02823  Biso   1.000  C
  H407     1.0000 0.12450  0.99300  0.03870  Biso   1.000  H
  S408     1.0000 0.12696  0.92844  0.01461  Biso   1.000  S
  C1088    1.0000 0.12633  0.92283  0.94835  Biso   1.000  C
  H408     1.0000 0.12570  0.90610  0.95620  Biso   1.000  H
  S409     1.0000 0.62371  0.33698  0.45816  Biso   1.000  S
  O409     1.0000 0.62491  0.28738  0.58434  Biso   1.000  O
  O410     1.0000 0.61178  0.32721  0.57019  Biso   1.000  O
  O411     1.0000 0.62442  0.37008  0.41120  Biso   1.000  O
  C1089    1.0000 0.61942  0.30402  0.56735  Biso   1.000  C
  C1090    1.0000 0.62206  0.29544  0.53890  Biso   1.000  C
  C1091    1.0000 0.62438  0.27015  0.49933  Biso   1.000  C
  C1092    1.0000 0.62414  0.29682  0.49223  Biso   1.000  C
  C1093    1.0000 0.62441  0.30395  0.46545  Biso   1.000  C
  C1094    1.0000 0.62070  0.30944  0.51866  Biso   1.000  C
  H409     1.0000 0.61920  0.32780  0.52010  Biso   1.000  H
  S410     1.0000 0.62334  0.26052  0.53204  Biso   1.000  S
  C1095    1.0000 0.62411  0.27214  0.52823  Biso   1.000  C
  H410     1.0000 0.62550  0.25700  0.53870  Biso   1.000  H
  S411     1.0000 0.62304  0.32156  0.51461  Biso   1.000  S
  C1096    1.0000 0.62367  0.32717  0.44835  Biso   1.000  C
  H411     1.0000 0.62430  0.34390  0.45620  Biso   1.000  H
  S412     1.0000 0.62371  0.83698  0.95816  Biso   1.000  S
  O412     1.0000 0.62491  0.78738  0.08434  Biso   1.000  O
  O413     1.0000 0.61178  0.82721  0.07019  Biso   1.000  O
  O414     1.0000 0.62442  0.87008  0.91120  Biso   1.000  O
  C1097    1.0000 0.61942  0.80402  0.06735  Biso   1.000  C
  C1098    1.0000 0.62206  0.79544  0.03890  Biso   1.000  C
  C1099    1.0000 0.62438  0.77015  0.99933  Biso   1.000  C
  C1100    1.0000 0.62414  0.79682  0.99223  Biso   1.000  C
  C1101    1.0000 0.62441  0.80395  0.96545  Biso   1.000  C
  C1102    1.0000 0.62070  0.80944  0.01866  Biso   1.000  C
  H412     1.0000 0.61920  0.82780  0.02010  Biso   1.000  H
  S413     1.0000 0.62334  0.76052  0.03204  Biso   1.000  S
  C1103    1.0000 0.62411  0.77214  0.02823  Biso   1.000  C
  H413     1.0000 0.62550  0.75700  0.03870  Biso   1.000  H
  S414     1.0000 0.62304  0.82156  0.01461  Biso   1.000  S
  C1104    1.0000 0.62367  0.82717  0.94835  Biso   1.000  C
  H414     1.0000 0.62430  0.84390  0.95620  Biso   1.000  H
  S415     1.0000 0.12371  0.33698  0.95816  Biso   1.000  S
  O415     1.0000 0.12491  0.28738  0.08434  Biso   1.000  O
  O416     1.0000 0.11178  0.32721  0.07019  Biso   1.000  O
  O417     1.0000 0.12442  0.37008  0.91120  Biso   1.000  O
  C1105    1.0000 0.11942  0.30402  0.06735  Biso   1.000  C
  C1106    1.0000 0.12206  0.29544  0.03890  Biso   1.000  C
  C1107    1.0000 0.12438  0.27015  0.99933  Biso   1.000  C
  C1108    1.0000 0.12414  0.29682  0.99223  Biso   1.000  C
  C1109    1.0000 0.12441  0.30395  0.96545  Biso   1.000  C
  C1110    1.0000 0.12070  0.30944  0.01866  Biso   1.000  C
  H415     1.0000 0.11920  0.32780  0.02010  Biso   1.000  H
  S416     1.0000 0.12334  0.26052  0.03204  Biso   1.000  S
  C1111    1.0000 0.12411  0.27214  0.02823  Biso   1.000  C
  H416     1.0000 0.12550  0.25700  0.03870  Biso   1.000  H
  S417     1.0000 0.12304  0.32156  0.01461  Biso   1.000  S
  C1112    1.0000 0.12367  0.32717  0.94835  Biso   1.000  C
  H417     1.0000 0.12430  0.34390  0.95620  Biso   1.000  H
  S418     1.0000 0.12371  0.83698  0.45816  Biso   1.000  S
  O418     1.0000 0.12491  0.78738  0.58434  Biso   1.000  O
  O419     1.0000 0.11178  0.82721  0.57019  Biso   1.000  O
  O420     1.0000 0.12442  0.87008  0.41120  Biso   1.000  O
  C1113    1.0000 0.11942  0.80402  0.56735  Biso   1.000  C
  C1114    1.0000 0.12206  0.79544  0.53890  Biso   1.000  C
  C1115    1.0000 0.12438  0.77015  0.49933  Biso   1.000  C
  C1116    1.0000 0.12414  0.79682  0.49223  Biso   1.000  C
  C1117    1.0000 0.12441  0.80395  0.46545  Biso   1.000  C
  C1118    1.0000 0.12070  0.80944  0.51866  Biso   1.000  C
  H418     1.0000 0.11920  0.82780  0.52010  Biso   1.000  H
  S419     1.0000 0.12334  0.76052  0.53204  Biso   1.000  S
  C1119    1.0000 0.12411  0.77214  0.52823  Biso   1.000  C
  H419     1.0000 0.12550  0.75700  0.53870  Biso   1.000  H
  S420     1.0000 0.12304  0.82156  0.51461  Biso   1.000  S
  C1120    1.0000 0.12367  0.82717  0.44835  Biso   1.000  C
  H420     1.0000 0.12430  0.84390  0.45620  Biso   1.000  H
  S421     1.0000 0.12629  0.83698  0.79184  Biso   1.000  S
  O421     1.0000 0.12509  0.78738  0.66566  Biso   1.000  O
  O422     1.0000 0.13822  0.82721  0.67981  Biso   1.000  O
  O423     1.0000 0.12558  0.87008  0.83880  Biso   1.000  O
  C1121    1.0000 0.13058  0.80402  0.68265  Biso   1.000  C
  C1122    1.0000 0.12794  0.79544  0.71110  Biso   1.000  C
  C1123    1.0000 0.12562  0.77015  0.75067  Biso   1.000  C
  C1124    1.0000 0.12586  0.79682  0.75777  Biso   1.000  C
  C1125    1.0000 0.12559  0.80395  0.78455  Biso   1.000  C
  C1126    1.0000 0.12930  0.80944  0.73134  Biso   1.000  C
  H421     1.0000 0.13080  0.82780  0.72990  Biso   1.000  H
  S422     1.0000 0.12666  0.76052  0.71796  Biso   1.000  S
  C1127    1.0000 0.12589  0.77214  0.72177  Biso   1.000  C
  H422     1.0000 0.12450  0.75700  0.71130  Biso   1.000  H
  S423     1.0000 0.12696  0.82156  0.73539  Biso   1.000  S
  C1128    1.0000 0.12633  0.82717  0.80165  Biso   1.000  C
  H423     1.0000 0.12570  0.84390  0.79380  Biso   1.000  H
  S424     1.0000 0.12629  0.33698  0.29184  Biso   1.000  S
  O424     1.0000 0.12509  0.28738  0.16566  Biso   1.000  O
  O425     1.0000 0.13822  0.32721  0.17981  Biso   1.000  O
  O426     1.0000 0.12558  0.37008  0.33880  Biso   1.000  O
  C1129    1.0000 0.13058  0.30402  0.18265  Biso   1.000  C
  C1130    1.0000 0.12794  0.29544  0.21110  Biso   1.000  C
  C1131    1.0000 0.12562  0.27015  0.25067  Biso   1.000  C
  C1132    1.0000 0.12586  0.29682  0.25777  Biso   1.000  C
  C1133    1.0000 0.12559  0.30395  0.28455  Biso   1.000  C
  C1134    1.0000 0.12930  0.30944  0.23134  Biso   1.000  C
  H424     1.0000 0.13080  0.32780  0.22990  Biso   1.000  H
  S425     1.0000 0.12666  0.26052  0.21796  Biso   1.000  S
  C1135    1.0000 0.12589  0.27214  0.22177  Biso   1.000  C
  H425     1.0000 0.12450  0.25700  0.21130  Biso   1.000  H
  S426     1.0000 0.12696  0.32156  0.23539  Biso   1.000  S
  C1136    1.0000 0.12633  0.32717  0.30165  Biso   1.000  C
  H426     1.0000 0.12570  0.34390  0.29380  Biso   1.000  H
  S427     1.0000 0.62629  0.83698  0.29184  Biso   1.000  S
  O427     1.0000 0.62509  0.78738  0.16566  Biso   1.000  O
  O428     1.0000 0.63822  0.82721  0.17981  Biso   1.000  O
  O429     1.0000 0.62558  0.87008  0.33880  Biso   1.000  O
  C1137    1.0000 0.63058  0.80402  0.18265  Biso   1.000  C
  C1138    1.0000 0.62794  0.79544  0.21110  Biso   1.000  C
  C1139    1.0000 0.62562  0.77015  0.25067  Biso   1.000  C
  C1140    1.0000 0.62586  0.79682  0.25777  Biso   1.000  C
  C1141    1.0000 0.62559  0.80395  0.28455  Biso   1.000  C
  C1142    1.0000 0.62930  0.80944  0.23134  Biso   1.000  C
  H427     1.0000 0.63080  0.82780  0.22990  Biso   1.000  H
  S428     1.0000 0.62666  0.76052  0.21796  Biso   1.000  S
  C1143    1.0000 0.62589  0.77214  0.22177  Biso   1.000  C
  H428     1.0000 0.62450  0.75700  0.21130  Biso   1.000  H
  S429     1.0000 0.62696  0.82156  0.23539  Biso   1.000  S
  C1144    1.0000 0.62633  0.82717  0.30165  Biso   1.000  C
  H429     1.0000 0.62570  0.84390  0.29380  Biso   1.000  H
  S430     1.0000 0.62629  0.33698  0.79184  Biso   1.000  S
  O430     1.0000 0.62509  0.28738  0.66566  Biso   1.000  O
  O431     1.0000 0.63822  0.32721  0.67981  Biso   1.000  O
  O432     1.0000 0.62558  0.37008  0.83880  Biso   1.000  O
  C1145    1.0000 0.63058  0.30402  0.68265  Biso   1.000  C
  C1146    1.0000 0.62794  0.29544  0.71110  Biso   1.000  C
  C1147    1.0000 0.62562  0.27015  0.75067  Biso   1.000  C
  C1148    1.0000 0.62586  0.29682  0.75777  Biso   1.000  C
  C1149    1.0000 0.62559  0.30395  0.78455  Biso   1.000  C
  C1150    1.0000 0.62930  0.30944  0.73134  Biso   1.000  C
  H430     1.0000 0.63080  0.32780  0.72990  Biso   1.000  H
  S431     1.0000 0.62666  0.26052  0.71796  Biso   1.000  S
  C1151    1.0000 0.62589  0.27214  0.72177  Biso   1.000  C
  H431     1.0000 0.62450  0.25700  0.71130  Biso   1.000  H
  S432     1.0000 0.62696  0.32156  0.73539  Biso   1.000  S
  C1152    1.0000 0.62633  0.32717  0.80165  Biso   1.000  C
  H432     1.0000 0.62570  0.34390  0.79380  Biso   1.000  H
  S433     1.0000 0.37371  0.04184  0.58698  Biso   1.000  S
  O433     1.0000 0.37491  0.91566  0.53738  Biso   1.000  O
  O434     1.0000 0.36178  0.92981  0.57721  Biso   1.000  O
  O435     1.0000 0.37442  0.08880  0.62008  Biso   1.000  O
  C1153    1.0000 0.36942  0.93265  0.55402  Biso   1.000  C
  C1154    1.0000 0.37206  0.96110  0.54544  Biso   1.000  C
  C1155    1.0000 0.37438  0.00067  0.52015  Biso   1.000  C
  C1156    1.0000 0.37414  0.00777  0.54682  Biso   1.000  C
  C1157    1.0000 0.37441  0.03455  0.55395  Biso   1.000  C
  C1158    1.0000 0.37070  0.98134  0.55944  Biso   1.000  C
  H433     1.0000 0.36920  0.97990  0.57780  Biso   1.000  H
  S434     1.0000 0.37334  0.96796  0.51052  Biso   1.000  S
  C1159    1.0000 0.37411  0.97177  0.52214  Biso   1.000  C
  H434     1.0000 0.37550  0.96130  0.50700  Biso   1.000  H
  S435     1.0000 0.37304  0.98539  0.57156  Biso   1.000  S
  C1160    1.0000 0.37367  0.05165  0.57717  Biso   1.000  C
  H435     1.0000 0.37430  0.04380  0.59390  Biso   1.000  H
  S436     1.0000 0.37371  0.54184  0.08698  Biso   1.000  S
  O436     1.0000 0.37491  0.41566  0.03738  Biso   1.000  O
  O437     1.0000 0.36178  0.42981  0.07721  Biso   1.000  O
  O438     1.0000 0.37442  0.58880  0.12008  Biso   1.000  O
  C1161    1.0000 0.36942  0.43265  0.05402  Biso   1.000  C
  C1162    1.0000 0.37206  0.46110  0.04544  Biso   1.000  C
  C1163    1.0000 0.37438  0.50067  0.02015  Biso   1.000  C
  C1164    1.0000 0.37414  0.50777  0.04682  Biso   1.000  C
  C1165    1.0000 0.37441  0.53455  0.05395  Biso   1.000  C
  C1166    1.0000 0.37070  0.48134  0.05944  Biso   1.000  C
  H436     1.0000 0.36920  0.47990  0.07780  Biso   1.000  H
  S437     1.0000 0.37334  0.46796  0.01052  Biso   1.000  S
  C1167    1.0000 0.37411  0.47177  0.02214  Biso   1.000  C
  H437     1.0000 0.37550  0.46130  0.00700  Biso   1.000  H
  S438     1.0000 0.37304  0.48539  0.07156  Biso   1.000  S
  C1168    1.0000 0.37367  0.55165  0.07717  Biso   1.000  C
  H438     1.0000 0.37430  0.54380  0.09390  Biso   1.000  H
  S439     1.0000 0.87371  0.04184  0.08698  Biso   1.000  S
  O439     1.0000 0.87491  0.91566  0.03738  Biso   1.000  O
  O440     1.0000 0.86178  0.92981  0.07721  Biso   1.000  O
  O441     1.0000 0.87442  0.08880  0.12008  Biso   1.000  O
  C1169    1.0000 0.86942  0.93265  0.05402  Biso   1.000  C
  C1170    1.0000 0.87206  0.96110  0.04544  Biso   1.000  C
  C1171    1.0000 0.87438  0.00067  0.02015  Biso   1.000  C
  C1172    1.0000 0.87414  0.00777  0.04682  Biso   1.000  C
  C1173    1.0000 0.87441  0.03455  0.05395  Biso   1.000  C
  C1174    1.0000 0.87070  0.98134  0.05944  Biso   1.000  C
  H439     1.0000 0.86920  0.97990  0.07780  Biso   1.000  H
  S440     1.0000 0.87334  0.96796  0.01052  Biso   1.000  S
  C1175    1.0000 0.87411  0.97177  0.02214  Biso   1.000  C
  H440     1.0000 0.87550  0.96130  0.00700  Biso   1.000  H
  S441     1.0000 0.87304  0.98539  0.07156  Biso   1.000  S
  C1176    1.0000 0.87367  0.05165  0.07717  Biso   1.000  C
  H441     1.0000 0.87430  0.04380  0.09390  Biso   1.000  H
  S442     1.0000 0.87371  0.54184  0.58698  Biso   1.000  S
  O442     1.0000 0.87491  0.41566  0.53738  Biso   1.000  O
  O443     1.0000 0.86178  0.42981  0.57721  Biso   1.000  O
  O444     1.0000 0.87442  0.58880  0.62008  Biso   1.000  O
  C1177    1.0000 0.86942  0.43265  0.55402  Biso   1.000  C
  C1178    1.0000 0.87206  0.46110  0.54544  Biso   1.000  C
  C1179    1.0000 0.87438  0.50067  0.52015  Biso   1.000  C
  C1180    1.0000 0.87414  0.50777  0.54682  Biso   1.000  C
  C1181    1.0000 0.87441  0.53455  0.55395  Biso   1.000  C
  C1182    1.0000 0.87070  0.48134  0.55944  Biso   1.000  C
  H442     1.0000 0.86920  0.47990  0.57780  Biso   1.000  H
  S443     1.0000 0.87334  0.46796  0.51052  Biso   1.000  S
  C1183    1.0000 0.87411  0.47177  0.52214  Biso   1.000  C
  H443     1.0000 0.87550  0.46130  0.50700  Biso   1.000  H
  S444     1.0000 0.87304  0.48539  0.57156  Biso   1.000  S
  C1184    1.0000 0.87367  0.55165  0.57717  Biso   1.000  C
  H444     1.0000 0.87430  0.54380  0.59390  Biso   1.000  H
  S445     1.0000 0.87629  0.70816  0.08698  Biso   1.000  S
  O445     1.0000 0.87509  0.83434  0.03738  Biso   1.000  O
  O446     1.0000 0.88822  0.82019  0.07721  Biso   1.000  O
  O447     1.0000 0.87558  0.66120  0.12008  Biso   1.000  O
  C1185    1.0000 0.88058  0.81735  0.05402  Biso   1.000  C
  C1186    1.0000 0.87794  0.78890  0.04544  Biso   1.000  C
  C1187    1.0000 0.87562  0.74933  0.02015  Biso   1.000  C
  C1188    1.0000 0.87586  0.74223  0.04682  Biso   1.000  C
  C1189    1.0000 0.87559  0.71545  0.05395  Biso   1.000  C
  C1190    1.0000 0.87930  0.76866  0.05944  Biso   1.000  C
  H445     1.0000 0.88080  0.77010  0.07780  Biso   1.000  H
  S446     1.0000 0.87666  0.78204  0.01052  Biso   1.000  S
  C1191    1.0000 0.87589  0.77823  0.02214  Biso   1.000  C
  H446     1.0000 0.87450  0.78870  0.00700  Biso   1.000  H
  S447     1.0000 0.87696  0.76461  0.07156  Biso   1.000  S
  C1192    1.0000 0.87633  0.69835  0.07717  Biso   1.000  C
  H447     1.0000 0.87570  0.70620  0.09390  Biso   1.000  H
  S448     1.0000 0.87629  0.20816  0.58698  Biso   1.000  S
  O448     1.0000 0.87509  0.33434  0.53738  Biso   1.000  O
  O449     1.0000 0.88822  0.32019  0.57721  Biso   1.000  O
  O450     1.0000 0.87558  0.16120  0.62008  Biso   1.000  O
  C1193    1.0000 0.88058  0.31735  0.55402  Biso   1.000  C
  C1194    1.0000 0.87794  0.28890  0.54544  Biso   1.000  C
  C1195    1.0000 0.87562  0.24933  0.52015  Biso   1.000  C
  C1196    1.0000 0.87586  0.24223  0.54682  Biso   1.000  C
  C1197    1.0000 0.87559  0.21545  0.55395  Biso   1.000  C
  C1198    1.0000 0.87930  0.26866  0.55944  Biso   1.000  C
  H448     1.0000 0.88080  0.27010  0.57780  Biso   1.000  H
  S449     1.0000 0.87666  0.28204  0.51052  Biso   1.000  S
  C1199    1.0000 0.87589  0.27823  0.52214  Biso   1.000  C
  H449     1.0000 0.87450  0.28870  0.50700  Biso   1.000  H
  S450     1.0000 0.87696  0.26461  0.57156  Biso   1.000  S
  C1200    1.0000 0.87633  0.19835  0.57717  Biso   1.000  C
  H450     1.0000 0.87570  0.20620  0.59390  Biso   1.000  H
  S451     1.0000 0.37629  0.70816  0.58698  Biso   1.000  S
  O451     1.0000 0.37509  0.83434  0.53738  Biso   1.000  O
  O452     1.0000 0.38822  0.82019  0.57721  Biso   1.000  O
  O453     1.0000 0.37558  0.66120  0.62008  Biso   1.000  O
  C1201    1.0000 0.38058  0.81735  0.55402  Biso   1.000  C
  C1202    1.0000 0.37794  0.78890  0.54544  Biso   1.000  C
  C1203    1.0000 0.37562  0.74933  0.52015  Biso   1.000  C
  C1204    1.0000 0.37586  0.74223  0.54682  Biso   1.000  C
  C1205    1.0000 0.37559  0.71545  0.55395  Biso   1.000  C
  C1206    1.0000 0.37930  0.76866  0.55944  Biso   1.000  C
  H451     1.0000 0.38080  0.77010  0.57780  Biso   1.000  H
  S452     1.0000 0.37666  0.78204  0.51052  Biso   1.000  S
  C1207    1.0000 0.37589  0.77823  0.52214  Biso   1.000  C
  H452     1.0000 0.37450  0.78870  0.50700  Biso   1.000  H
  S453     1.0000 0.37696  0.76461  0.57156  Biso   1.000  S
  C1208    1.0000 0.37633  0.69835  0.57717  Biso   1.000  C
  H453     1.0000 0.37570  0.70620  0.59390  Biso   1.000  H
  S454     1.0000 0.37629  0.20816  0.08698  Biso   1.000  S
  O454     1.0000 0.37509  0.33434  0.03738  Biso   1.000  O
  O455     1.0000 0.38822  0.32019  0.07721  Biso   1.000  O
  O456     1.0000 0.37558  0.16120  0.12008  Biso   1.000  O
  C1209    1.0000 0.38058  0.31735  0.05402  Biso   1.000  C
  C1210    1.0000 0.37794  0.28890  0.04544  Biso   1.000  C
  C1211    1.0000 0.37562  0.24933  0.02015  Biso   1.000  C
  C1212    1.0000 0.37586  0.24223  0.04682  Biso   1.000  C
  C1213    1.0000 0.37559  0.21545  0.05395  Biso   1.000  C
  C1214    1.0000 0.37930  0.26866  0.05944  Biso   1.000  C
  H454     1.0000 0.38080  0.27010  0.07780  Biso   1.000  H
  S455     1.0000 0.37666  0.28204  0.01052  Biso   1.000  S
  C1215    1.0000 0.37589  0.27823  0.02214  Biso   1.000  C
  H455     1.0000 0.37450  0.28870  0.00700  Biso   1.000  H
  S456     1.0000 0.37696  0.26461  0.07156  Biso   1.000  S
  C1216    1.0000 0.37633  0.19835  0.07717  Biso   1.000  C
  H456     1.0000 0.37570  0.20620  0.09390  Biso   1.000  H
  S457     1.0000 0.87371  0.20816  0.16302  Biso   1.000  S
  O457     1.0000 0.87491  0.33434  0.21262  Biso   1.000  O
  O458     1.0000 0.86178  0.32019  0.17279  Biso   1.000  O
  O459     1.0000 0.87442  0.16120  0.12992  Biso   1.000  O
  C1217    1.0000 0.86942  0.31735  0.19598  Biso   1.000  C
  C1218    1.0000 0.87206  0.28890  0.20456  Biso   1.000  C
  C1219    1.0000 0.87438  0.24933  0.22985  Biso   1.000  C
  C1220    1.0000 0.87414  0.24223  0.20318  Biso   1.000  C
  C1221    1.0000 0.87441  0.21545  0.19605  Biso   1.000  C
  C1222    1.0000 0.87070  0.26866  0.19056  Biso   1.000  C
  H457     1.0000 0.86920  0.27010  0.17220  Biso   1.000  H
  S458     1.0000 0.87334  0.28204  0.23948  Biso   1.000  S
  C1223    1.0000 0.87411  0.27823  0.22786  Biso   1.000  C
  H458     1.0000 0.87550  0.28870  0.24300  Biso   1.000  H
  S459     1.0000 0.87304  0.26461  0.17844  Biso   1.000  S
  C1224    1.0000 0.87367  0.19835  0.17283  Biso   1.000  C
  H459     1.0000 0.87430  0.20620  0.15610  Biso   1.000  H
  S460     1.0000 0.87371  0.70816  0.66302  Biso   1.000  S
  O460     1.0000 0.87491  0.83434  0.71262  Biso   1.000  O
  O461     1.0000 0.86178  0.82019  0.67279  Biso   1.000  O
  O462     1.0000 0.87442  0.66120  0.62992  Biso   1.000  O
  C1225    1.0000 0.86942  0.81735  0.69598  Biso   1.000  C
  C1226    1.0000 0.87206  0.78890  0.70456  Biso   1.000  C
  C1227    1.0000 0.87438  0.74933  0.72985  Biso   1.000  C
  C1228    1.0000 0.87414  0.74223  0.70318  Biso   1.000  C
  C1229    1.0000 0.87441  0.71545  0.69605  Biso   1.000  C
  C1230    1.0000 0.87070  0.76866  0.69056  Biso   1.000  C
  H460     1.0000 0.86920  0.77010  0.67220  Biso   1.000  H
  S461     1.0000 0.87334  0.78204  0.73948  Biso   1.000  S
  C1231    1.0000 0.87411  0.77823  0.72786  Biso   1.000  C
  H461     1.0000 0.87550  0.78870  0.74300  Biso   1.000  H
  S462     1.0000 0.87304  0.76461  0.67844  Biso   1.000  S
  C1232    1.0000 0.87367  0.69835  0.67283  Biso   1.000  C
  H462     1.0000 0.87430  0.70620  0.65610  Biso   1.000  H
  S463     1.0000 0.37371  0.20816  0.66302  Biso   1.000  S
  O463     1.0000 0.37491  0.33434  0.71262  Biso   1.000  O
  O464     1.0000 0.36178  0.32019  0.67279  Biso   1.000  O
  O465     1.0000 0.37442  0.16120  0.62992  Biso   1.000  O
  C1233    1.0000 0.36942  0.31735  0.69598  Biso   1.000  C
  C1234    1.0000 0.37206  0.28890  0.70456  Biso   1.000  C
  C1235    1.0000 0.37438  0.24933  0.72985  Biso   1.000  C
  C1236    1.0000 0.37414  0.24223  0.70318  Biso   1.000  C
  C1237    1.0000 0.37441  0.21545  0.69605  Biso   1.000  C
  C1238    1.0000 0.37070  0.26866  0.69056  Biso   1.000  C
  H463     1.0000 0.36920  0.27010  0.67220  Biso   1.000  H
  S464     1.0000 0.37334  0.28204  0.73948  Biso   1.000  S
  C1239    1.0000 0.37411  0.27823  0.72786  Biso   1.000  C
  H464     1.0000 0.37550  0.28870  0.74300  Biso   1.000  H
  S465     1.0000 0.37304  0.26461  0.67844  Biso   1.000  S
  C1240    1.0000 0.37367  0.19835  0.67283  Biso   1.000  C
  H465     1.0000 0.37430  0.20620  0.65610  Biso   1.000  H
  S466     1.0000 0.37371  0.70816  0.16302  Biso   1.000  S
  O466     1.0000 0.37491  0.83434  0.21262  Biso   1.000  O
  O467     1.0000 0.36178  0.82019  0.17279  Biso   1.000  O
  O468     1.0000 0.37442  0.66120  0.12992  Biso   1.000  O
  C1241    1.0000 0.36942  0.81735  0.19598  Biso   1.000  C
  C1242    1.0000 0.37206  0.78890  0.20456  Biso   1.000  C
  C1243    1.0000 0.37438  0.74933  0.22985  Biso   1.000  C
  C1244    1.0000 0.37414  0.74223  0.20318  Biso   1.000  C
  C1245    1.0000 0.37441  0.71545  0.19605  Biso   1.000  C
  C1246    1.0000 0.37070  0.76866  0.19056  Biso   1.000  C
  H466     1.0000 0.36920  0.77010  0.17220  Biso   1.000  H
  S467     1.0000 0.37334  0.78204  0.23948  Biso   1.000  S
  C1247    1.0000 0.37411  0.77823  0.22786  Biso   1.000  C
  H467     1.0000 0.37550  0.78870  0.24300  Biso   1.000  H
  S468     1.0000 0.37304  0.76461  0.17844  Biso   1.000  S
  C1248    1.0000 0.37367  0.69835  0.17283  Biso   1.000  C
  H468     1.0000 0.37430  0.70620  0.15610  Biso   1.000  H
  S469     1.0000 0.37629  0.54184  0.66302  Biso   1.000  S
  O469     1.0000 0.37509  0.41566  0.71262  Biso   1.000  O
  O470     1.0000 0.38822  0.42981  0.67279  Biso   1.000  O
  O471     1.0000 0.37558  0.58880  0.62992  Biso   1.000  O
  C1249    1.0000 0.38058  0.43265  0.69598  Biso   1.000  C
  C1250    1.0000 0.37794  0.46110  0.70456  Biso   1.000  C
  C1251    1.0000 0.37562  0.50067  0.72985  Biso   1.000  C
  C1252    1.0000 0.37586  0.50777  0.70318  Biso   1.000  C
  C1253    1.0000 0.37559  0.53455  0.69605  Biso   1.000  C
  C1254    1.0000 0.37930  0.48134  0.69056  Biso   1.000  C
  H469     1.0000 0.38080  0.47990  0.67220  Biso   1.000  H
  S470     1.0000 0.37666  0.46796  0.73948  Biso   1.000  S
  C1255    1.0000 0.37589  0.47177  0.72786  Biso   1.000  C
  H470     1.0000 0.37450  0.46130  0.74300  Biso   1.000  H
  S471     1.0000 0.37696  0.48539  0.67844  Biso   1.000  S
  C1256    1.0000 0.37633  0.55165  0.67283  Biso   1.000  C
  H471     1.0000 0.37570  0.54380  0.65610  Biso   1.000  H
  S472     1.0000 0.37629  0.04184  0.16302  Biso   1.000  S
  O472     1.0000 0.37509  0.91566  0.21262  Biso   1.000  O
  O473     1.0000 0.38822  0.92981  0.17279  Biso   1.000  O
  O474     1.0000 0.37558  0.08880  0.12992  Biso   1.000  O
  C1257    1.0000 0.38058  0.93265  0.19598  Biso   1.000  C
  C1258    1.0000 0.37794  0.96110  0.20456  Biso   1.000  C
  C1259    1.0000 0.37562  0.00067  0.22985  Biso   1.000  C
  C1260    1.0000 0.37586  0.00777  0.20318  Biso   1.000  C
  C1261    1.0000 0.37559  0.03455  0.19605  Biso   1.000  C
  C1262    1.0000 0.37930  0.98134  0.19056  Biso   1.000  C
  H472     1.0000 0.38080  0.97990  0.17220  Biso   1.000  H
  S473     1.0000 0.37666  0.96796  0.23948  Biso   1.000  S
  C1263    1.0000 0.37589  0.97177  0.22786  Biso   1.000  C
  H473     1.0000 0.37450  0.96130  0.24300  Biso   1.000  H
  S474     1.0000 0.37696  0.98539  0.17844  Biso   1.000  S
  C1264    1.0000 0.37633  0.05165  0.17283  Biso   1.000  C
  H474     1.0000 0.37570  0.04380  0.15610  Biso   1.000  H
  S475     1.0000 0.87629  0.54184  0.16302  Biso   1.000  S
  O475     1.0000 0.87509  0.41566  0.21262  Biso   1.000  O
  O476     1.0000 0.88822  0.42981  0.17279  Biso   1.000  O
  O477     1.0000 0.87558  0.58880  0.12992  Biso   1.000  O
  C1265    1.0000 0.88058  0.43265  0.19598  Biso   1.000  C
  C1266    1.0000 0.87794  0.46110  0.20456  Biso   1.000  C
  C1267    1.0000 0.87562  0.50067  0.22985  Biso   1.000  C
  C1268    1.0000 0.87586  0.50777  0.20318  Biso   1.000  C
  C1269    1.0000 0.87559  0.53455  0.19605  Biso   1.000  C
  C1270    1.0000 0.87930  0.48134  0.19056  Biso   1.000  C
  H475     1.0000 0.88080  0.47990  0.17220  Biso   1.000  H
  S476     1.0000 0.87666  0.46796  0.23948  Biso   1.000  S
  C1271    1.0000 0.87589  0.47177  0.22786  Biso   1.000  C
  H476     1.0000 0.87450  0.46130  0.24300  Biso   1.000  H
  S477     1.0000 0.87696  0.48539  0.17844  Biso   1.000  S
  C1272    1.0000 0.87633  0.55165  0.17283  Biso   1.000  C
  H477     1.0000 0.87570  0.54380  0.15610  Biso   1.000  H
  S478     1.0000 0.87629  0.04184  0.66302  Biso   1.000  S
  O478     1.0000 0.87509  0.91566  0.71262  Biso   1.000  O
  O479     1.0000 0.88822  0.92981  0.67279  Biso   1.000  O
  O480     1.0000 0.87558  0.08880  0.62992  Biso   1.000  O
  C1273    1.0000 0.88058  0.93265  0.69598  Biso   1.000  C
  C1274    1.0000 0.87794  0.96110  0.70456  Biso   1.000  C
  C1275    1.0000 0.87562  0.00067  0.72985  Biso   1.000  C
  C1276    1.0000 0.87586  0.00777  0.70318  Biso   1.000  C
  C1277    1.0000 0.87559  0.03455  0.69605  Biso   1.000  C
  C1278    1.0000 0.87930  0.98134  0.69056  Biso   1.000  C
  H478     1.0000 0.88080  0.97990  0.67220  Biso   1.000  H
  S479     1.0000 0.87666  0.96796  0.73948  Biso   1.000  S
  C1279    1.0000 0.87589  0.97177  0.72786  Biso   1.000  C
  H479     1.0000 0.87450  0.96130  0.74300  Biso   1.000  H
  S480     1.0000 0.87696  0.98539  0.67844  Biso   1.000  S
  C1280    1.0000 0.87633  0.05165  0.67283  Biso   1.000  C
  H480     1.0000 0.87570  0.04380  0.65610  Biso   1.000  H
  S481     1.0000 0.54184  0.66302  0.37629  Biso   1.000  S
  O481     1.0000 0.41566  0.71262  0.37509  Biso   1.000  O
  O482     1.0000 0.42981  0.67279  0.38822  Biso   1.000  O
  O483     1.0000 0.58880  0.62992  0.37558  Biso   1.000  O
  C1281    1.0000 0.43265  0.69598  0.38058  Biso   1.000  C
  C1282    1.0000 0.46110  0.70456  0.37794  Biso   1.000  C
  C1283    1.0000 0.50067  0.72985  0.37562  Biso   1.000  C
  C1284    1.0000 0.50777  0.70318  0.37586  Biso   1.000  C
  C1285    1.0000 0.53455  0.69605  0.37559  Biso   1.000  C
  C1286    1.0000 0.48134  0.69056  0.37930  Biso   1.000  C
  H481     1.0000 0.47990  0.67220  0.38080  Biso   1.000  H
  S482     1.0000 0.46796  0.73948  0.37666  Biso   1.000  S
  C1287    1.0000 0.47177  0.72786  0.37589  Biso   1.000  C
  H482     1.0000 0.46130  0.74300  0.37450  Biso   1.000  H
  S483     1.0000 0.48539  0.67844  0.37696  Biso   1.000  S
  C1288    1.0000 0.55165  0.67283  0.37633  Biso   1.000  C
  H483     1.0000 0.54380  0.65610  0.37570  Biso   1.000  H
  S484     1.0000 0.54184  0.16302  0.87629  Biso   1.000  S
  O484     1.0000 0.41566  0.21262  0.87509  Biso   1.000  O
  O485     1.0000 0.42981  0.17279  0.88822  Biso   1.000  O
  O486     1.0000 0.58880  0.12992  0.87558  Biso   1.000  O
  C1289    1.0000 0.43265  0.19598  0.88058  Biso   1.000  C
  C1290    1.0000 0.46110  0.20456  0.87794  Biso   1.000  C
  C1291    1.0000 0.50067  0.22985  0.87562  Biso   1.000  C
  C1292    1.0000 0.50777  0.20318  0.87586  Biso   1.000  C
  C1293    1.0000 0.53455  0.19605  0.87559  Biso   1.000  C
  C1294    1.0000 0.48134  0.19056  0.87930  Biso   1.000  C
  H484     1.0000 0.47990  0.17220  0.88080  Biso   1.000  H
  S485     1.0000 0.46796  0.23948  0.87666  Biso   1.000  S
  C1295    1.0000 0.47177  0.22786  0.87589  Biso   1.000  C
  H485     1.0000 0.46130  0.24300  0.87450  Biso   1.000  H
  S486     1.0000 0.48539  0.17844  0.87696  Biso   1.000  S
  C1296    1.0000 0.55165  0.17283  0.87633  Biso   1.000  C
  H486     1.0000 0.54380  0.15610  0.87570  Biso   1.000  H
  S487     1.0000 0.04184  0.66302  0.87629  Biso   1.000  S
  O487     1.0000 0.91566  0.71262  0.87509  Biso   1.000  O
  O488     1.0000 0.92981  0.67279  0.88822  Biso   1.000  O
  O489     1.0000 0.08880  0.62992  0.87558  Biso   1.000  O
  C1297    1.0000 0.93265  0.69598  0.88058  Biso   1.000  C
  C1298    1.0000 0.96110  0.70456  0.87794  Biso   1.000  C
  C1299    1.0000 0.00067  0.72985  0.87562  Biso   1.000  C
  C1300    1.0000 0.00777  0.70318  0.87586  Biso   1.000  C
  C1301    1.0000 0.03455  0.69605  0.87559  Biso   1.000  C
  C1302    1.0000 0.98134  0.69056  0.87930  Biso   1.000  C
  H487     1.0000 0.97990  0.67220  0.88080  Biso   1.000  H
  S488     1.0000 0.96796  0.73948  0.87666  Biso   1.000  S
  C1303    1.0000 0.97177  0.72786  0.87589  Biso   1.000  C
  H488     1.0000 0.96130  0.74300  0.87450  Biso   1.000  H
  S489     1.0000 0.98539  0.67844  0.87696  Biso   1.000  S
  C1304    1.0000 0.05165  0.67283  0.87633  Biso   1.000  C
  H489     1.0000 0.04380  0.65610  0.87570  Biso   1.000  H
  S490     1.0000 0.04184  0.16302  0.37629  Biso   1.000  S
  O490     1.0000 0.91566  0.21262  0.37509  Biso   1.000  O
  O491     1.0000 0.92981  0.17279  0.38822  Biso   1.000  O
  O492     1.0000 0.08880  0.12992  0.37558  Biso   1.000  O
  C1305    1.0000 0.93265  0.19598  0.38058  Biso   1.000  C
  C1306    1.0000 0.96110  0.20456  0.37794  Biso   1.000  C
  C1307    1.0000 0.00067  0.22985  0.37562  Biso   1.000  C
  C1308    1.0000 0.00777  0.20318  0.37586  Biso   1.000  C
  C1309    1.0000 0.03455  0.19605  0.37559  Biso   1.000  C
  C1310    1.0000 0.98134  0.19056  0.37930  Biso   1.000  C
  H490     1.0000 0.97990  0.17220  0.38080  Biso   1.000  H
  S491     1.0000 0.96796  0.23948  0.37666  Biso   1.000  S
  C1311    1.0000 0.97177  0.22786  0.37589  Biso   1.000  C
  H491     1.0000 0.96130  0.24300  0.37450  Biso   1.000  H
  S492     1.0000 0.98539  0.17844  0.37696  Biso   1.000  S
  C1312    1.0000 0.05165  0.17283  0.37633  Biso   1.000  C
  H492     1.0000 0.04380  0.15610  0.37570  Biso   1.000  H
  S493     1.0000 0.20816  0.16302  0.87371  Biso   1.000  S
  O493     1.0000 0.33434  0.21262  0.87491  Biso   1.000  O
  O494     1.0000 0.32019  0.17279  0.86178  Biso   1.000  O
  O495     1.0000 0.16120  0.12992  0.87442  Biso   1.000  O
  C1313    1.0000 0.31735  0.19598  0.86942  Biso   1.000  C
  C1314    1.0000 0.28890  0.20456  0.87206  Biso   1.000  C
  C1315    1.0000 0.24933  0.22985  0.87438  Biso   1.000  C
  C1316    1.0000 0.24223  0.20318  0.87414  Biso   1.000  C
  C1317    1.0000 0.21545  0.19605  0.87441  Biso   1.000  C
  C1318    1.0000 0.26866  0.19056  0.87070  Biso   1.000  C
  H493     1.0000 0.27010  0.17220  0.86920  Biso   1.000  H
  S494     1.0000 0.28204  0.23948  0.87334  Biso   1.000  S
  C1319    1.0000 0.27823  0.22786  0.87411  Biso   1.000  C
  H494     1.0000 0.28870  0.24300  0.87550  Biso   1.000  H
  S495     1.0000 0.26461  0.17844  0.87304  Biso   1.000  S
  C1320    1.0000 0.19835  0.17283  0.87367  Biso   1.000  C
  H495     1.0000 0.20620  0.15610  0.87430  Biso   1.000  H
  S496     1.0000 0.20816  0.66302  0.37371  Biso   1.000  S
  O496     1.0000 0.33434  0.71262  0.37491  Biso   1.000  O
  O497     1.0000 0.32019  0.67279  0.36178  Biso   1.000  O
  O498     1.0000 0.16120  0.62992  0.37442  Biso   1.000  O
  C1321    1.0000 0.31735  0.69598  0.36942  Biso   1.000  C
  C1322    1.0000 0.28890  0.70456  0.37206  Biso   1.000  C
  C1323    1.0000 0.24933  0.72985  0.37438  Biso   1.000  C
  C1324    1.0000 0.24223  0.70318  0.37414  Biso   1.000  C
  C1325    1.0000 0.21545  0.69605  0.37441  Biso   1.000  C
  C1326    1.0000 0.26866  0.69056  0.37070  Biso   1.000  C
  H496     1.0000 0.27010  0.67220  0.36920  Biso   1.000  H
  S497     1.0000 0.28204  0.73948  0.37334  Biso   1.000  S
  C1327    1.0000 0.27823  0.72786  0.37411  Biso   1.000  C
  H497     1.0000 0.28870  0.74300  0.37550  Biso   1.000  H
  S498     1.0000 0.26461  0.67844  0.37304  Biso   1.000  S
  C1328    1.0000 0.19835  0.67283  0.37367  Biso   1.000  C
  H498     1.0000 0.20620  0.65610  0.37430  Biso   1.000  H
  S499     1.0000 0.70816  0.16302  0.37371  Biso   1.000  S
  O499     1.0000 0.83434  0.21262  0.37491  Biso   1.000  O
  O500     1.0000 0.82019  0.17279  0.36178  Biso   1.000  O
  O501     1.0000 0.66120  0.12992  0.37442  Biso   1.000  O
  C1329    1.0000 0.81735  0.19598  0.36942  Biso   1.000  C
  C1330    1.0000 0.78890  0.20456  0.37206  Biso   1.000  C
  C1331    1.0000 0.74933  0.22985  0.37438  Biso   1.000  C
  C1332    1.0000 0.74223  0.20318  0.37414  Biso   1.000  C
  C1333    1.0000 0.71545  0.19605  0.37441  Biso   1.000  C
  C1334    1.0000 0.76866  0.19056  0.37070  Biso   1.000  C
  H499     1.0000 0.77010  0.17220  0.36920  Biso   1.000  H
  S500     1.0000 0.78204  0.23948  0.37334  Biso   1.000  S
  C1335    1.0000 0.77823  0.22786  0.37411  Biso   1.000  C
  H500     1.0000 0.78870  0.24300  0.37550  Biso   1.000  H
  S501     1.0000 0.76461  0.17844  0.37304  Biso   1.000  S
  C1336    1.0000 0.69835  0.17283  0.37367  Biso   1.000  C
  H501     1.0000 0.70620  0.15610  0.37430  Biso   1.000  H
  S502     1.0000 0.70816  0.66302  0.87371  Biso   1.000  S
  O502     1.0000 0.83434  0.71262  0.87491  Biso   1.000  O
  O503     1.0000 0.82019  0.67279  0.86178  Biso   1.000  O
  O504     1.0000 0.66120  0.62992  0.87442  Biso   1.000  O
  C1337    1.0000 0.81735  0.69598  0.86942  Biso   1.000  C
  C1338    1.0000 0.78890  0.70456  0.87206  Biso   1.000  C
  C1339    1.0000 0.74933  0.72985  0.87438  Biso   1.000  C
  C1340    1.0000 0.74223  0.70318  0.87414  Biso   1.000  C
  C1341    1.0000 0.71545  0.69605  0.87441  Biso   1.000  C
  C1342    1.0000 0.76866  0.69056  0.87070  Biso   1.000  C
  H502     1.0000 0.77010  0.67220  0.86920  Biso   1.000  H
  S503     1.0000 0.78204  0.73948  0.87334  Biso   1.000  S
  C1343    1.0000 0.77823  0.72786  0.87411  Biso   1.000  C
  H503     1.0000 0.78870  0.74300  0.87550  Biso   1.000  H
  S504     1.0000 0.76461  0.67844  0.87304  Biso   1.000  S
  C1344    1.0000 0.69835  0.67283  0.87367  Biso   1.000  C
  H504     1.0000 0.70620  0.65610  0.87430  Biso   1.000  H
  S505     1.0000 0.70816  0.08698  0.87629  Biso   1.000  S
  O505     1.0000 0.83434  0.03738  0.87509  Biso   1.000  O
  O506     1.0000 0.82019  0.07721  0.88822  Biso   1.000  O
  O507     1.0000 0.66120  0.12008  0.87558  Biso   1.000  O
  C1345    1.0000 0.81735  0.05402  0.88058  Biso   1.000  C
  C1346    1.0000 0.78890  0.04544  0.87794  Biso   1.000  C
  C1347    1.0000 0.74933  0.02015  0.87562  Biso   1.000  C
  C1348    1.0000 0.74223  0.04682  0.87586  Biso   1.000  C
  C1349    1.0000 0.71545  0.05395  0.87559  Biso   1.000  C
  C1350    1.0000 0.76866  0.05944  0.87930  Biso   1.000  C
  H505     1.0000 0.77010  0.07780  0.88080  Biso   1.000  H
  S506     1.0000 0.78204  0.01052  0.87666  Biso   1.000  S
  C1351    1.0000 0.77823  0.02214  0.87589  Biso   1.000  C
  H506     1.0000 0.78870  0.00700  0.87450  Biso   1.000  H
  S507     1.0000 0.76461  0.07156  0.87696  Biso   1.000  S
  C1352    1.0000 0.69835  0.07717  0.87633  Biso   1.000  C
  H507     1.0000 0.70620  0.09390  0.87570  Biso   1.000  H
  S508     1.0000 0.70816  0.58698  0.37629  Biso   1.000  S
  O508     1.0000 0.83434  0.53738  0.37509  Biso   1.000  O
  O509     1.0000 0.82019  0.57721  0.38822  Biso   1.000  O
  O510     1.0000 0.66120  0.62008  0.37558  Biso   1.000  O
  C1353    1.0000 0.81735  0.55402  0.38058  Biso   1.000  C
  C1354    1.0000 0.78890  0.54544  0.37794  Biso   1.000  C
  C1355    1.0000 0.74933  0.52015  0.37562  Biso   1.000  C
  C1356    1.0000 0.74223  0.54682  0.37586  Biso   1.000  C
  C1357    1.0000 0.71545  0.55395  0.37559  Biso   1.000  C
  C1358    1.0000 0.76866  0.55944  0.37930  Biso   1.000  C
  H508     1.0000 0.77010  0.57780  0.38080  Biso   1.000  H
  S509     1.0000 0.78204  0.51052  0.37666  Biso   1.000  S
  C1359    1.0000 0.77823  0.52214  0.37589  Biso   1.000  C
  H509     1.0000 0.78870  0.50700  0.37450  Biso   1.000  H
  S510     1.0000 0.76461  0.57156  0.37696  Biso   1.000  S
  C1360    1.0000 0.69835  0.57717  0.37633  Biso   1.000  C
  H510     1.0000 0.70620  0.59390  0.37570  Biso   1.000  H
  S511     1.0000 0.20816  0.08698  0.37629  Biso   1.000  S
  O511     1.0000 0.33434  0.03738  0.37509  Biso   1.000  O
  O512     1.0000 0.32019  0.07721  0.38822  Biso   1.000  O
  O513     1.0000 0.16120  0.12008  0.37558  Biso   1.000  O
  C1361    1.0000 0.31735  0.05402  0.38058  Biso   1.000  C
  C1362    1.0000 0.28890  0.04544  0.37794  Biso   1.000  C
  C1363    1.0000 0.24933  0.02015  0.37562  Biso   1.000  C
  C1364    1.0000 0.24223  0.04682  0.37586  Biso   1.000  C
  C1365    1.0000 0.21545  0.05395  0.37559  Biso   1.000  C
  C1366    1.0000 0.26866  0.05944  0.37930  Biso   1.000  C
  H511     1.0000 0.27010  0.07780  0.38080  Biso   1.000  H
  S512     1.0000 0.28204  0.01052  0.37666  Biso   1.000  S
  C1367    1.0000 0.27823  0.02214  0.37589  Biso   1.000  C
  H512     1.0000 0.28870  0.00700  0.37450  Biso   1.000  H
  S513     1.0000 0.26461  0.07156  0.37696  Biso   1.000  S
  C1368    1.0000 0.19835  0.07717  0.37633  Biso   1.000  C
  H513     1.0000 0.20620  0.09390  0.37570  Biso   1.000  H
  S514     1.0000 0.20816  0.58698  0.87629  Biso   1.000  S
  O514     1.0000 0.33434  0.53738  0.87509  Biso   1.000  O
  O515     1.0000 0.32019  0.57721  0.88822  Biso   1.000  O
  O516     1.0000 0.16120  0.62008  0.87558  Biso   1.000  O
  C1369    1.0000 0.31735  0.55402  0.88058  Biso   1.000  C
  C1370    1.0000 0.28890  0.54544  0.87794  Biso   1.000  C
  C1371    1.0000 0.24933  0.52015  0.87562  Biso   1.000  C
  C1372    1.0000 0.24223  0.54682  0.87586  Biso   1.000  C
  C1373    1.0000 0.21545  0.55395  0.87559  Biso   1.000  C
  C1374    1.0000 0.26866  0.55944  0.87930  Biso   1.000  C
  H514     1.0000 0.27010  0.57780  0.88080  Biso   1.000  H
  S515     1.0000 0.28204  0.51052  0.87666  Biso   1.000  S
  C1375    1.0000 0.27823  0.52214  0.87589  Biso   1.000  C
  H515     1.0000 0.28870  0.50700  0.87450  Biso   1.000  H
  S516     1.0000 0.26461  0.57156  0.87696  Biso   1.000  S
  C1376    1.0000 0.19835  0.57717  0.87633  Biso   1.000  C
  H516     1.0000 0.20620  0.59390  0.87570  Biso   1.000  H
  S517     1.0000 0.04184  0.58698  0.37371  Biso   1.000  S
  O517     1.0000 0.91566  0.53738  0.37491  Biso   1.000  O
  O518     1.0000 0.92981  0.57721  0.36178  Biso   1.000  O
  O519     1.0000 0.08880  0.62008  0.37442  Biso   1.000  O
  C1377    1.0000 0.93265  0.55402  0.36942  Biso   1.000  C
  C1378    1.0000 0.96110  0.54544  0.37206  Biso   1.000  C
  C1379    1.0000 0.00067  0.52015  0.37438  Biso   1.000  C
  C1380    1.0000 0.00777  0.54682  0.37414  Biso   1.000  C
  C1381    1.0000 0.03455  0.55395  0.37441  Biso   1.000  C
  C1382    1.0000 0.98134  0.55944  0.37070  Biso   1.000  C
  H517     1.0000 0.97990  0.57780  0.36920  Biso   1.000  H
  S518     1.0000 0.96796  0.51052  0.37334  Biso   1.000  S
  C1383    1.0000 0.97177  0.52214  0.37411  Biso   1.000  C
  H518     1.0000 0.96130  0.50700  0.37550  Biso   1.000  H
  S519     1.0000 0.98539  0.57156  0.37304  Biso   1.000  S
  C1384    1.0000 0.05165  0.57717  0.37367  Biso   1.000  C
  H519     1.0000 0.04380  0.59390  0.37430  Biso   1.000  H
  S520     1.0000 0.04184  0.08698  0.87371  Biso   1.000  S
  O520     1.0000 0.91566  0.03738  0.87491  Biso   1.000  O
  O521     1.0000 0.92981  0.07721  0.86178  Biso   1.000  O
  O522     1.0000 0.08880  0.12008  0.87442  Biso   1.000  O
  C1385    1.0000 0.93265  0.05402  0.86942  Biso   1.000  C
  C1386    1.0000 0.96110  0.04544  0.87206  Biso   1.000  C
  C1387    1.0000 0.00067  0.02015  0.87438  Biso   1.000  C
  C1388    1.0000 0.00777  0.04682  0.87414  Biso   1.000  C
  C1389    1.0000 0.03455  0.05395  0.87441  Biso   1.000  C
  C1390    1.0000 0.98134  0.05944  0.87070  Biso   1.000  C
  H520     1.0000 0.97990  0.07780  0.86920  Biso   1.000  H
  S521     1.0000 0.96796  0.01052  0.87334  Biso   1.000  S
  C1391    1.0000 0.97177  0.02214  0.87411  Biso   1.000  C
  H521     1.0000 0.96130  0.00700  0.87550  Biso   1.000  H
  S522     1.0000 0.98539  0.07156  0.87304  Biso   1.000  S
  C1392    1.0000 0.05165  0.07717  0.87367  Biso   1.000  C
  H522     1.0000 0.04380  0.09390  0.87430  Biso   1.000  H
  S523     1.0000 0.54184  0.58698  0.87371  Biso   1.000  S
  O523     1.0000 0.41566  0.53738  0.87491  Biso   1.000  O
  O524     1.0000 0.42981  0.57721  0.86178  Biso   1.000  O
  O525     1.0000 0.58880  0.62008  0.87442  Biso   1.000  O
  C1393    1.0000 0.43265  0.55402  0.86942  Biso   1.000  C
  C1394    1.0000 0.46110  0.54544  0.87206  Biso   1.000  C
  C1395    1.0000 0.50067  0.52015  0.87438  Biso   1.000  C
  C1396    1.0000 0.50777  0.54682  0.87414  Biso   1.000  C
  C1397    1.0000 0.53455  0.55395  0.87441  Biso   1.000  C
  C1398    1.0000 0.48134  0.55944  0.87070  Biso   1.000  C
  H523     1.0000 0.47990  0.57780  0.86920  Biso   1.000  H
  S524     1.0000 0.46796  0.51052  0.87334  Biso   1.000  S
  C1399    1.0000 0.47177  0.52214  0.87411  Biso   1.000  C
  H524     1.0000 0.46130  0.50700  0.87550  Biso   1.000  H
  S525     1.0000 0.48539  0.57156  0.87304  Biso   1.000  S
  C1400    1.0000 0.55165  0.57717  0.87367  Biso   1.000  C
  H525     1.0000 0.54380  0.59390  0.87430  Biso   1.000  H
  S526     1.0000 0.54184  0.08698  0.37371  Biso   1.000  S
  O526     1.0000 0.41566  0.03738  0.37491  Biso   1.000  O
  O527     1.0000 0.42981  0.07721  0.36178  Biso   1.000  O
  O528     1.0000 0.58880  0.12008  0.37442  Biso   1.000  O
  C1401    1.0000 0.43265  0.05402  0.36942  Biso   1.000  C
  C1402    1.0000 0.46110  0.04544  0.37206  Biso   1.000  C
  C1403    1.0000 0.50067  0.02015  0.37438  Biso   1.000  C
  C1404    1.0000 0.50777  0.04682  0.37414  Biso   1.000  C
  C1405    1.0000 0.53455  0.05395  0.37441  Biso   1.000  C
  C1406    1.0000 0.48134  0.05944  0.37070  Biso   1.000  C
  H526     1.0000 0.47990  0.07780  0.36920  Biso   1.000  H
  S527     1.0000 0.46796  0.01052  0.37334  Biso   1.000  S
  C1407    1.0000 0.47177  0.02214  0.37411  Biso   1.000  C
  H527     1.0000 0.46130  0.00700  0.37550  Biso   1.000  H
  S528     1.0000 0.48539  0.07156  0.37304  Biso   1.000  S
  C1408    1.0000 0.55165  0.07717  0.37367  Biso   1.000  C
  H528     1.0000 0.54380  0.09390  0.37430  Biso   1.000  H
  S529     1.0000 0.16302  0.87371  0.20816  Biso   1.000  S
  O529     1.0000 0.21262  0.87491  0.33434  Biso   1.000  O
  O530     1.0000 0.17279  0.86178  0.32019  Biso   1.000  O
  O531     1.0000 0.12992  0.87442  0.16120  Biso   1.000  O
  C1409    1.0000 0.19598  0.86942  0.31735  Biso   1.000  C
  C1410    1.0000 0.20456  0.87206  0.28890  Biso   1.000  C
  C1411    1.0000 0.22985  0.87438  0.24933  Biso   1.000  C
  C1412    1.0000 0.20318  0.87414  0.24223  Biso   1.000  C
  C1413    1.0000 0.19605  0.87441  0.21545  Biso   1.000  C
  C1414    1.0000 0.19056  0.87070  0.26866  Biso   1.000  C
  H529     1.0000 0.17220  0.86920  0.27010  Biso   1.000  H
  S530     1.0000 0.23948  0.87334  0.28204  Biso   1.000  S
  C1415    1.0000 0.22786  0.87411  0.27823  Biso   1.000  C
  H530     1.0000 0.24300  0.87550  0.28870  Biso   1.000  H
  S531     1.0000 0.17844  0.87304  0.26461  Biso   1.000  S
  C1416    1.0000 0.17283  0.87367  0.19835  Biso   1.000  C
  H531     1.0000 0.15610  0.87430  0.20620  Biso   1.000  H
  S532     1.0000 0.16302  0.37371  0.70816  Biso   1.000  S
  O532     1.0000 0.21262  0.37491  0.83434  Biso   1.000  O
  O533     1.0000 0.17279  0.36178  0.82019  Biso   1.000  O
  O534     1.0000 0.12992  0.37442  0.66120  Biso   1.000  O
  C1417    1.0000 0.19598  0.36942  0.81735  Biso   1.000  C
  C1418    1.0000 0.20456  0.37206  0.78890  Biso   1.000  C
  C1419    1.0000 0.22985  0.37438  0.74933  Biso   1.000  C
  C1420    1.0000 0.20318  0.37414  0.74223  Biso   1.000  C
  C1421    1.0000 0.19605  0.37441  0.71545  Biso   1.000  C
  C1422    1.0000 0.19056  0.37070  0.76866  Biso   1.000  C
  H532     1.0000 0.17220  0.36920  0.77010  Biso   1.000  H
  S533     1.0000 0.23948  0.37334  0.78204  Biso   1.000  S
  C1423    1.0000 0.22786  0.37411  0.77823  Biso   1.000  C
  H533     1.0000 0.24300  0.37550  0.78870  Biso   1.000  H
  S534     1.0000 0.17844  0.37304  0.76461  Biso   1.000  S
  C1424    1.0000 0.17283  0.37367  0.69835  Biso   1.000  C
  H534     1.0000 0.15610  0.37430  0.70620  Biso   1.000  H
  S535     1.0000 0.66302  0.87371  0.70816  Biso   1.000  S
  O535     1.0000 0.71262  0.87491  0.83434  Biso   1.000  O
  O536     1.0000 0.67279  0.86178  0.82019  Biso   1.000  O
  O537     1.0000 0.62992  0.87442  0.66120  Biso   1.000  O
  C1425    1.0000 0.69598  0.86942  0.81735  Biso   1.000  C
  C1426    1.0000 0.70456  0.87206  0.78890  Biso   1.000  C
  C1427    1.0000 0.72985  0.87438  0.74933  Biso   1.000  C
  C1428    1.0000 0.70318  0.87414  0.74223  Biso   1.000  C
  C1429    1.0000 0.69605  0.87441  0.71545  Biso   1.000  C
  C1430    1.0000 0.69056  0.87070  0.76866  Biso   1.000  C
  H535     1.0000 0.67220  0.86920  0.77010  Biso   1.000  H
  S536     1.0000 0.73948  0.87334  0.78204  Biso   1.000  S
  C1431    1.0000 0.72786  0.87411  0.77823  Biso   1.000  C
  H536     1.0000 0.74300  0.87550  0.78870  Biso   1.000  H
  S537     1.0000 0.67844  0.87304  0.76461  Biso   1.000  S
  C1432    1.0000 0.67283  0.87367  0.69835  Biso   1.000  C
  H537     1.0000 0.65610  0.87430  0.70620  Biso   1.000  H
  S538     1.0000 0.66302  0.37371  0.20816  Biso   1.000  S
  O538     1.0000 0.71262  0.37491  0.33434  Biso   1.000  O
  O539     1.0000 0.67279  0.36178  0.32019  Biso   1.000  O
  O540     1.0000 0.62992  0.37442  0.16120  Biso   1.000  O
  C1433    1.0000 0.69598  0.36942  0.31735  Biso   1.000  C
  C1434    1.0000 0.70456  0.37206  0.28890  Biso   1.000  C
  C1435    1.0000 0.72985  0.37438  0.24933  Biso   1.000  C
  C1436    1.0000 0.70318  0.37414  0.24223  Biso   1.000  C
  C1437    1.0000 0.69605  0.37441  0.21545  Biso   1.000  C
  C1438    1.0000 0.69056  0.37070  0.26866  Biso   1.000  C
  H538     1.0000 0.67220  0.36920  0.27010  Biso   1.000  H
  S539     1.0000 0.73948  0.37334  0.28204  Biso   1.000  S
  C1439    1.0000 0.72786  0.37411  0.27823  Biso   1.000  C
  H539     1.0000 0.74300  0.37550  0.28870  Biso   1.000  H
  S540     1.0000 0.67844  0.37304  0.26461  Biso   1.000  S
  C1440    1.0000 0.67283  0.37367  0.19835  Biso   1.000  C
  H540     1.0000 0.65610  0.37430  0.20620  Biso   1.000  H
  S541     1.0000 0.66302  0.37629  0.54184  Biso   1.000  S
  O541     1.0000 0.71262  0.37509  0.41566  Biso   1.000  O
  O542     1.0000 0.67279  0.38822  0.42981  Biso   1.000  O
  O543     1.0000 0.62992  0.37558  0.58880  Biso   1.000  O
  C1441    1.0000 0.69598  0.38058  0.43265  Biso   1.000  C
  C1442    1.0000 0.70456  0.37794  0.46110  Biso   1.000  C
  C1443    1.0000 0.72985  0.37562  0.50067  Biso   1.000  C
  C1444    1.0000 0.70318  0.37586  0.50777  Biso   1.000  C
  C1445    1.0000 0.69605  0.37559  0.53455  Biso   1.000  C
  C1446    1.0000 0.69056  0.37930  0.48134  Biso   1.000  C
  H541     1.0000 0.67220  0.38080  0.47990  Biso   1.000  H
  S542     1.0000 0.73948  0.37666  0.46796  Biso   1.000  S
  C1447    1.0000 0.72786  0.37589  0.47177  Biso   1.000  C
  H542     1.0000 0.74300  0.37450  0.46130  Biso   1.000  H
  S543     1.0000 0.67844  0.37696  0.48539  Biso   1.000  S
  C1448    1.0000 0.67283  0.37633  0.55165  Biso   1.000  C
  H543     1.0000 0.65610  0.37570  0.54380  Biso   1.000  H
  S544     1.0000 0.66302  0.87629  0.04184  Biso   1.000  S
  O544     1.0000 0.71262  0.87509  0.91566  Biso   1.000  O
  O545     1.0000 0.67279  0.88822  0.92981  Biso   1.000  O
  O546     1.0000 0.62992  0.87558  0.08880  Biso   1.000  O
  C1449    1.0000 0.69598  0.88058  0.93265  Biso   1.000  C
  C1450    1.0000 0.70456  0.87794  0.96110  Biso   1.000  C
  C1451    1.0000 0.72985  0.87562  0.00067  Biso   1.000  C
  C1452    1.0000 0.70318  0.87586  0.00777  Biso   1.000  C
  C1453    1.0000 0.69605  0.87559  0.03455  Biso   1.000  C
  C1454    1.0000 0.69056  0.87930  0.98134  Biso   1.000  C
  H544     1.0000 0.67220  0.88080  0.97990  Biso   1.000  H
  S545     1.0000 0.73948  0.87666  0.96796  Biso   1.000  S
  C1455    1.0000 0.72786  0.87589  0.97177  Biso   1.000  C
  H545     1.0000 0.74300  0.87450  0.96130  Biso   1.000  H
  S546     1.0000 0.67844  0.87696  0.98539  Biso   1.000  S
  C1456    1.0000 0.67283  0.87633  0.05165  Biso   1.000  C
  H546     1.0000 0.65610  0.87570  0.04380  Biso   1.000  H
  S547     1.0000 0.16302  0.37629  0.04184  Biso   1.000  S
  O547     1.0000 0.21262  0.37509  0.91566  Biso   1.000  O
  O548     1.0000 0.17279  0.38822  0.92981  Biso   1.000  O
  O549     1.0000 0.12992  0.37558  0.08880  Biso   1.000  O
  C1457    1.0000 0.19598  0.38058  0.93265  Biso   1.000  C
  C1458    1.0000 0.20456  0.37794  0.96110  Biso   1.000  C
  C1459    1.0000 0.22985  0.37562  0.00067  Biso   1.000  C
  C1460    1.0000 0.20318  0.37586  0.00777  Biso   1.000  C
  C1461    1.0000 0.19605  0.37559  0.03455  Biso   1.000  C
  C1462    1.0000 0.19056  0.37930  0.98134  Biso   1.000  C
  H547     1.0000 0.17220  0.38080  0.97990  Biso   1.000  H
  S548     1.0000 0.23948  0.37666  0.96796  Biso   1.000  S
  C1463    1.0000 0.22786  0.37589  0.97177  Biso   1.000  C
  H548     1.0000 0.24300  0.37450  0.96130  Biso   1.000  H
  S549     1.0000 0.17844  0.37696  0.98539  Biso   1.000  S
  C1464    1.0000 0.17283  0.37633  0.05165  Biso   1.000  C
  H549     1.0000 0.15610  0.37570  0.04380  Biso   1.000  H
  S550     1.0000 0.16302  0.87629  0.54184  Biso   1.000  S
  O550     1.0000 0.21262  0.87509  0.41566  Biso   1.000  O
  O551     1.0000 0.17279  0.88822  0.42981  Biso   1.000  O
  O552     1.0000 0.12992  0.87558  0.58880  Biso   1.000  O
  C1465    1.0000 0.19598  0.88058  0.43265  Biso   1.000  C
  C1466    1.0000 0.20456  0.87794  0.46110  Biso   1.000  C
  C1467    1.0000 0.22985  0.87562  0.50067  Biso   1.000  C
  C1468    1.0000 0.20318  0.87586  0.50777  Biso   1.000  C
  C1469    1.0000 0.19605  0.87559  0.53455  Biso   1.000  C
  C1470    1.0000 0.19056  0.87930  0.48134  Biso   1.000  C
  H550     1.0000 0.17220  0.88080  0.47990  Biso   1.000  H
  S551     1.0000 0.23948  0.87666  0.46796  Biso   1.000  S
  C1471    1.0000 0.22786  0.87589  0.47177  Biso   1.000  C
  H551     1.0000 0.24300  0.87450  0.46130  Biso   1.000  H
  S552     1.0000 0.17844  0.87696  0.48539  Biso   1.000  S
  C1472    1.0000 0.17283  0.87633  0.55165  Biso   1.000  C
  H552     1.0000 0.15610  0.87570  0.54380  Biso   1.000  H
  S553     1.0000 0.58698  0.37371  0.04184  Biso   1.000  S
  O553     1.0000 0.53738  0.37491  0.91566  Biso   1.000  O
  O554     1.0000 0.57721  0.36178  0.92981  Biso   1.000  O
  O555     1.0000 0.62008  0.37442  0.08880  Biso   1.000  O
  C1473    1.0000 0.55402  0.36942  0.93265  Biso   1.000  C
  C1474    1.0000 0.54544  0.37206  0.96110  Biso   1.000  C
  C1475    1.0000 0.52015  0.37438  0.00067  Biso   1.000  C
  C1476    1.0000 0.54682  0.37414  0.00777  Biso   1.000  C
  C1477    1.0000 0.55395  0.37441  0.03455  Biso   1.000  C
  C1478    1.0000 0.55944  0.37070  0.98134  Biso   1.000  C
  H553     1.0000 0.57780  0.36920  0.97990  Biso   1.000  H
  S554     1.0000 0.51052  0.37334  0.96796  Biso   1.000  S
  C1479    1.0000 0.52214  0.37411  0.97177  Biso   1.000  C
  H554     1.0000 0.50700  0.37550  0.96130  Biso   1.000  H
  S555     1.0000 0.57156  0.37304  0.98539  Biso   1.000  S
  C1480    1.0000 0.57717  0.37367  0.05165  Biso   1.000  C
  H555     1.0000 0.59390  0.37430  0.04380  Biso   1.000  H
  S556     1.0000 0.58698  0.87371  0.54184  Biso   1.000  S
  O556     1.0000 0.53738  0.87491  0.41566  Biso   1.000  O
  O557     1.0000 0.57721  0.86178  0.42981  Biso   1.000  O
  O558     1.0000 0.62008  0.87442  0.58880  Biso   1.000  O
  C1481    1.0000 0.55402  0.86942  0.43265  Biso   1.000  C
  C1482    1.0000 0.54544  0.87206  0.46110  Biso   1.000  C
  C1483    1.0000 0.52015  0.87438  0.50067  Biso   1.000  C
  C1484    1.0000 0.54682  0.87414  0.50777  Biso   1.000  C
  C1485    1.0000 0.55395  0.87441  0.53455  Biso   1.000  C
  C1486    1.0000 0.55944  0.87070  0.48134  Biso   1.000  C
  H556     1.0000 0.57780  0.86920  0.47990  Biso   1.000  H
  S557     1.0000 0.51052  0.87334  0.46796  Biso   1.000  S
  C1487    1.0000 0.52214  0.87411  0.47177  Biso   1.000  C
  H557     1.0000 0.50700  0.87550  0.46130  Biso   1.000  H
  S558     1.0000 0.57156  0.87304  0.48539  Biso   1.000  S
  C1488    1.0000 0.57717  0.87367  0.55165  Biso   1.000  C
  H558     1.0000 0.59390  0.87430  0.54380  Biso   1.000  H
  S559     1.0000 0.08698  0.37371  0.54184  Biso   1.000  S
  O559     1.0000 0.03738  0.37491  0.41566  Biso   1.000  O
  O560     1.0000 0.07721  0.36178  0.42981  Biso   1.000  O
  O561     1.0000 0.12008  0.37442  0.58880  Biso   1.000  O
  C1489    1.0000 0.05402  0.36942  0.43265  Biso   1.000  C
  C1490    1.0000 0.04544  0.37206  0.46110  Biso   1.000  C
  C1491    1.0000 0.02015  0.37438  0.50067  Biso   1.000  C
  C1492    1.0000 0.04682  0.37414  0.50777  Biso   1.000  C
  C1493    1.0000 0.05395  0.37441  0.53455  Biso   1.000  C
  C1494    1.0000 0.05944  0.37070  0.48134  Biso   1.000  C
  H559     1.0000 0.07780  0.36920  0.47990  Biso   1.000  H
  S560     1.0000 0.01052  0.37334  0.46796  Biso   1.000  S
  C1495    1.0000 0.02214  0.37411  0.47177  Biso   1.000  C
  H560     1.0000 0.00700  0.37550  0.46130  Biso   1.000  H
  S561     1.0000 0.07156  0.37304  0.48539  Biso   1.000  S
  C1496    1.0000 0.07717  0.37367  0.55165  Biso   1.000  C
  H561     1.0000 0.09390  0.37430  0.54380  Biso   1.000  H
  S562     1.0000 0.08698  0.87371  0.04184  Biso   1.000  S
  O562     1.0000 0.03738  0.87491  0.91566  Biso   1.000  O
  O563     1.0000 0.07721  0.86178  0.92981  Biso   1.000  O
  O564     1.0000 0.12008  0.87442  0.08880  Biso   1.000  O
  C1497    1.0000 0.05402  0.86942  0.93265  Biso   1.000  C
  C1498    1.0000 0.04544  0.87206  0.96110  Biso   1.000  C
  C1499    1.0000 0.02015  0.87438  0.00067  Biso   1.000  C
  C1500    1.0000 0.04682  0.87414  0.00777  Biso   1.000  C
  C1501    1.0000 0.05395  0.87441  0.03455  Biso   1.000  C
  C1502    1.0000 0.05944  0.87070  0.98134  Biso   1.000  C
  H562     1.0000 0.07780  0.86920  0.97990  Biso   1.000  H
  S563     1.0000 0.01052  0.87334  0.96796  Biso   1.000  S
  C1503    1.0000 0.02214  0.87411  0.97177  Biso   1.000  C
  H563     1.0000 0.00700  0.87550  0.96130  Biso   1.000  H
  S564     1.0000 0.07156  0.87304  0.98539  Biso   1.000  S
  C1504    1.0000 0.07717  0.87367  0.05165  Biso   1.000  C
  H564     1.0000 0.09390  0.87430  0.04380  Biso   1.000  H
  S565     1.0000 0.08698  0.87629  0.70816  Biso   1.000  S
  O565     1.0000 0.03738  0.87509  0.83434  Biso   1.000  O
  O566     1.0000 0.07721  0.88822  0.82019  Biso   1.000  O
  O567     1.0000 0.12008  0.87558  0.66120  Biso   1.000  O
  C1505    1.0000 0.05402  0.88058  0.81735  Biso   1.000  C
  C1506    1.0000 0.04544  0.87794  0.78890  Biso   1.000  C
  C1507    1.0000 0.02015  0.87562  0.74933  Biso   1.000  C
  C1508    1.0000 0.04682  0.87586  0.74223  Biso   1.000  C
  C1509    1.0000 0.05395  0.87559  0.71545  Biso   1.000  C
  C1510    1.0000 0.05944  0.87930  0.76866  Biso   1.000  C
  H565     1.0000 0.07780  0.88080  0.77010  Biso   1.000  H
  S566     1.0000 0.01052  0.87666  0.78204  Biso   1.000  S
  C1511    1.0000 0.02214  0.87589  0.77823  Biso   1.000  C
  H566     1.0000 0.00700  0.87450  0.78870  Biso   1.000  H
  S567     1.0000 0.07156  0.87696  0.76461  Biso   1.000  S
  C1512    1.0000 0.07717  0.87633  0.69835  Biso   1.000  C
  H567     1.0000 0.09390  0.87570  0.70620  Biso   1.000  H
  S568     1.0000 0.08698  0.37629  0.20816  Biso   1.000  S
  O568     1.0000 0.03738  0.37509  0.33434  Biso   1.000  O
  O569     1.0000 0.07721  0.38822  0.32019  Biso   1.000  O
  O570     1.0000 0.12008  0.37558  0.16120  Biso   1.000  O
  C1513    1.0000 0.05402  0.38058  0.31735  Biso   1.000  C
  C1514    1.0000 0.04544  0.37794  0.28890  Biso   1.000  C
  C1515    1.0000 0.02015  0.37562  0.24933  Biso   1.000  C
  C1516    1.0000 0.04682  0.37586  0.24223  Biso   1.000  C
  C1517    1.0000 0.05395  0.37559  0.21545  Biso   1.000  C
  C1518    1.0000 0.05944  0.37930  0.26866  Biso   1.000  C
  H568     1.0000 0.07780  0.38080  0.27010  Biso   1.000  H
  S569     1.0000 0.01052  0.37666  0.28204  Biso   1.000  S
  C1519    1.0000 0.02214  0.37589  0.27823  Biso   1.000  C
  H569     1.0000 0.00700  0.37450  0.28870  Biso   1.000  H
  S570     1.0000 0.07156  0.37696  0.26461  Biso   1.000  S
  C1520    1.0000 0.07717  0.37633  0.19835  Biso   1.000  C
  H570     1.0000 0.09390  0.37570  0.20620  Biso   1.000  H
  S571     1.0000 0.58698  0.87629  0.20816  Biso   1.000  S
  O571     1.0000 0.53738  0.87509  0.33434  Biso   1.000  O
  O572     1.0000 0.57721  0.88822  0.32019  Biso   1.000  O
  O573     1.0000 0.62008  0.87558  0.16120  Biso   1.000  O
  C1521    1.0000 0.55402  0.88058  0.31735  Biso   1.000  C
  C1522    1.0000 0.54544  0.87794  0.28890  Biso   1.000  C
  C1523    1.0000 0.52015  0.87562  0.24933  Biso   1.000  C
  C1524    1.0000 0.54682  0.87586  0.24223  Biso   1.000  C
  C1525    1.0000 0.55395  0.87559  0.21545  Biso   1.000  C
  C1526    1.0000 0.55944  0.87930  0.26866  Biso   1.000  C
  H571     1.0000 0.57780  0.88080  0.27010  Biso   1.000  H
  S572     1.0000 0.51052  0.87666  0.28204  Biso   1.000  S
  C1527    1.0000 0.52214  0.87589  0.27823  Biso   1.000  C
  H572     1.0000 0.50700  0.87450  0.28870  Biso   1.000  H
  S573     1.0000 0.57156  0.87696  0.26461  Biso   1.000  S
  C1528    1.0000 0.57717  0.87633  0.19835  Biso   1.000  C
  H573     1.0000 0.59390  0.87570  0.20620  Biso   1.000  H
  S574     1.0000 0.58698  0.37629  0.70816  Biso   1.000  S
  O574     1.0000 0.53738  0.37509  0.83434  Biso   1.000  O
  O575     1.0000 0.57721  0.38822  0.82019  Biso   1.000  O
  O576     1.0000 0.62008  0.37558  0.66120  Biso   1.000  O
  C1529    1.0000 0.55402  0.38058  0.81735  Biso   1.000  C
  C1530    1.0000 0.54544  0.37794  0.78890  Biso   1.000  C
  C1531    1.0000 0.52015  0.37562  0.74933  Biso   1.000  C
  C1532    1.0000 0.54682  0.37586  0.74223  Biso   1.000  C
  C1533    1.0000 0.55395  0.37559  0.71545  Biso   1.000  C
  C1534    1.0000 0.55944  0.37930  0.76866  Biso   1.000  C
  H574     1.0000 0.57780  0.38080  0.77010  Biso   1.000  H
  S575     1.0000 0.51052  0.37666  0.78204  Biso   1.000  S
  C1535    1.0000 0.52214  0.37589  0.77823  Biso   1.000  C
  H575     1.0000 0.50700  0.37450  0.78870  Biso   1.000  H
  S576     1.0000 0.57156  0.37696  0.76461  Biso   1.000  S
  C1536    1.0000 0.57717  0.37633  0.69835  Biso   1.000  C
  H576     1.0000 0.59390  0.37570  0.70620  Biso   1.000  H
  Fe1      1.0000 0.87500  0.87500  0.03970  Biso   1.000  Fe
  O577     1.0000 0.87500  0.87500  0.08021  Biso   1.000  O
  Fe2      1.0000 0.87500  0.37500  0.53970  Biso   1.000  Fe
  O578     1.0000 0.87500  0.37500  0.58021  Biso   1.000  O
  Fe3      1.0000 0.37500  0.37500  0.71030  Biso   1.000  Fe
  O579     1.0000 0.37500  0.37500  0.66979  Biso   1.000  O
  Fe4      1.0000 0.87500  0.87500  0.71030  Biso   1.000  Fe
  O580     1.0000 0.87500  0.87500  0.66979  Biso   1.000  O
  Fe5      1.0000 0.37500  0.87500  0.21030  Biso   1.000  Fe
  O581     1.0000 0.37500  0.87500  0.16979  Biso   1.000  O
  Fe6      1.0000 0.03970  0.87500  0.87500  Biso   1.000  Fe
  O582     1.0000 0.08021  0.87500  0.87500  Biso   1.000  O
  Fe7      1.0000 0.03970  0.37500  0.37500  Biso   1.000  Fe
  O583     1.0000 0.08021  0.37500  0.37500  Biso   1.000  O
  Fe8      1.0000 0.53970  0.87500  0.37500  Biso   1.000  Fe
  O584     1.0000 0.58021  0.87500  0.37500  Biso   1.000  O
  Fe9      1.0000 0.71030  0.37500  0.37500  Biso   1.000  Fe
  O585     1.0000 0.66979  0.37500  0.37500  Biso   1.000  O
  Fe10     1.0000 0.71030  0.87500  0.87500  Biso   1.000  Fe
  O586     1.0000 0.66979  0.87500  0.87500  Biso   1.000  O
  Fe11     1.0000 0.21030  0.37500  0.87500  Biso   1.000  Fe
  O587     1.0000 0.16979  0.37500  0.87500  Biso   1.000  O
  Fe12     1.0000 0.87500  0.03970  0.87500  Biso   1.000  Fe
  O588     1.0000 0.87500  0.08021  0.87500  Biso   1.000  O
  Fe13     1.0000 0.37500  0.53970  0.87500  Biso   1.000  Fe
  O589     1.0000 0.37500  0.58021  0.87500  Biso   1.000  O
  Fe14     1.0000 0.37500  0.03970  0.37500  Biso   1.000  Fe
  O590     1.0000 0.37500  0.08021  0.37500  Biso   1.000  O
  Fe15     1.0000 0.37500  0.71030  0.37500  Biso   1.000  Fe
  O591     1.0000 0.37500  0.66979  0.37500  Biso   1.000  O
  Fe16     1.0000 0.87500  0.21030  0.37500  Biso   1.000  Fe
  O592     1.0000 0.87500  0.16979  0.37500  Biso   1.000  O
  Fe17     1.0000 0.87500  0.71030  0.87500  Biso   1.000  Fe
  O593     1.0000 0.87500  0.66979  0.87500  Biso   1.000  O
  Fe18     1.0000 0.62500  0.12500  0.46030  Biso   1.000  Fe
  O594     1.0000 0.62500  0.12500  0.41979  Biso   1.000  O
  Fe19     1.0000 0.62500  0.62500  0.96030  Biso   1.000  Fe
  O595     1.0000 0.62500  0.62500  0.91979  Biso   1.000  O
  Fe20     1.0000 0.12500  0.12500  0.96030  Biso   1.000  Fe
  O596     1.0000 0.12500  0.12500  0.91979  Biso   1.000  O
  Fe21     1.0000 0.12500  0.62500  0.78970  Biso   1.000  Fe
  O597     1.0000 0.12500  0.62500  0.83021  Biso   1.000  O
  Fe22     1.0000 0.12500  0.12500  0.28970  Biso   1.000  Fe
  O598     1.0000 0.12500  0.12500  0.33021  Biso   1.000  O
  Fe23     1.0000 0.62500  0.62500  0.28970  Biso   1.000  Fe
  O599     1.0000 0.62500  0.62500  0.33021  Biso   1.000  O
  Fe24     1.0000 0.62500  0.28970  0.62500  Biso   1.000  Fe
  O600     1.0000 0.62500  0.33021  0.62500  Biso   1.000  O
  Fe25     1.0000 0.62500  0.78970  0.12500  Biso   1.000  Fe
  O601     1.0000 0.62500  0.83021  0.12500  Biso   1.000  O
  Fe26     1.0000 0.12500  0.96030  0.12500  Biso   1.000  Fe
  O602     1.0000 0.12500  0.91979  0.12500  Biso   1.000  O
  Fe27     1.0000 0.12500  0.46030  0.62500  Biso   1.000  Fe
  O603     1.0000 0.12500  0.41979  0.62500  Biso   1.000  O
  Fe28     1.0000 0.62500  0.96030  0.62500  Biso   1.000  Fe
  O604     1.0000 0.62500  0.91979  0.62500  Biso   1.000  O
  Fe29     1.0000 0.78970  0.12500  0.62500  Biso   1.000  Fe
  O605     1.0000 0.83021  0.12500  0.62500  Biso   1.000  O
  Fe30     1.0000 0.28970  0.62500  0.62500  Biso   1.000  Fe
  O606     1.0000 0.33021  0.62500  0.62500  Biso   1.000  O
  Fe31     1.0000 0.28970  0.12500  0.12500  Biso   1.000  Fe
  O607     1.0000 0.33021  0.12500  0.12500  Biso   1.000  O
  Fe32     1.0000 0.46030  0.62500  0.12500  Biso   1.000  Fe
  O608     1.0000 0.41979  0.62500  0.12500  Biso   1.000  O
  Fe33     1.0000 0.96030  0.12500  0.12500  Biso   1.000  Fe
  O609     1.0000 0.91979  0.12500  0.12500  Biso   1.000  O
  Fe34     1.0000 0.96030  0.62500  0.62500  Biso   1.000  Fe
  O610     1.0000 0.91979  0.62500  0.62500  Biso   1.000  O
  Fe35     1.0000 0.12500  0.62500  0.46030  Biso   1.000  Fe
  O611     1.0000 0.12500  0.62500  0.41979  Biso   1.000  O
  Fe36     1.0000 0.62500  0.12500  0.78970  Biso   1.000  Fe
  O612     1.0000 0.62500  0.12500  0.83021  Biso   1.000  O
  Fe37     1.0000 0.46030  0.12500  0.62500  Biso   1.000  Fe
  O613     1.0000 0.41979  0.12500  0.62500  Biso   1.000  O
  Fe38     1.0000 0.78970  0.62500  0.12500  Biso   1.000  Fe
  O614     1.0000 0.83021  0.62500  0.12500  Biso   1.000  O
  Fe39     1.0000 0.62500  0.46030  0.12500  Biso   1.000  Fe
  O615     1.0000 0.62500  0.41979  0.12500  Biso   1.000  O
  Fe40     1.0000 0.12500  0.78970  0.62500  Biso   1.000  Fe
  O616     1.0000 0.12500  0.83021  0.62500  Biso   1.000  O
  Fe41     1.0000 0.12500  0.28970  0.12500  Biso   1.000  Fe
  O617     1.0000 0.12500  0.33021  0.12500  Biso   1.000  O
  Fe42     1.0000 0.37500  0.87500  0.53970  Biso   1.000  Fe
  O618     1.0000 0.37500  0.87500  0.58021  Biso   1.000  O
  Fe43     1.0000 0.37500  0.37500  0.03970  Biso   1.000  Fe
  O619     1.0000 0.37500  0.37500  0.08021  Biso   1.000  O
  Fe44     1.0000 0.87500  0.37500  0.21030  Biso   1.000  Fe
  O620     1.0000 0.87500  0.37500  0.16979  Biso   1.000  O
  Fe45     1.0000 0.37500  0.21030  0.87500  Biso   1.000  Fe
  O621     1.0000 0.37500  0.16979  0.87500  Biso   1.000  O
  Fe46     1.0000 0.87500  0.53970  0.37500  Biso   1.000  Fe
  O622     1.0000 0.87500  0.58021  0.37500  Biso   1.000  O
  Fe47     1.0000 0.21030  0.87500  0.37500  Biso   1.000  Fe
  O623     1.0000 0.16979  0.87500  0.37500  Biso   1.000  O
  Fe48     1.0000 0.53970  0.37500  0.87500  Biso   1.000  Fe
  O624     1.0000 0.58021  0.37500  0.87500  Biso   1.000  O
  Fe49     1.0000 0.85054  0.89946  0.10066  Biso   1.000  Fe
  Fe50     1.0000 0.85054  0.39946  0.60066  Biso   1.000  Fe
  Fe51     1.0000 0.89946  0.35054  0.60066  Biso   1.000  Fe
  Fe52     1.0000 0.39946  0.35054  0.10066  Biso   1.000  Fe
  Fe53     1.0000 0.39946  0.39946  0.64934  Biso   1.000  Fe
  Fe54     1.0000 0.39946  0.89946  0.14934  Biso   1.000  Fe
  Fe55     1.0000 0.89946  0.39946  0.14934  Biso   1.000  Fe
  Fe56     1.0000 0.89946  0.89946  0.64934  Biso   1.000  Fe
  Fe57     1.0000 0.35054  0.85054  0.14934  Biso   1.000  Fe
  Fe58     1.0000 0.35054  0.35054  0.64934  Biso   1.000  Fe
  Fe59     1.0000 0.10066  0.85054  0.89946  Biso   1.000  Fe
  Fe60     1.0000 0.10066  0.35054  0.39946  Biso   1.000  Fe
  Fe61     1.0000 0.60066  0.89946  0.35054  Biso   1.000  Fe
  Fe62     1.0000 0.60066  0.39946  0.85054  Biso   1.000  Fe
  Fe63     1.0000 0.64934  0.39946  0.39946  Biso   1.000  Fe
  Fe64     1.0000 0.64934  0.89946  0.89946  Biso   1.000  Fe
  Fe65     1.0000 0.14934  0.39946  0.89946  Biso   1.000  Fe
  Fe66     1.0000 0.14934  0.89946  0.39946  Biso   1.000  Fe
  Fe67     1.0000 0.14934  0.35054  0.85054  Biso   1.000  Fe
  Fe68     1.0000 0.64934  0.35054  0.35054  Biso   1.000  Fe
  Fe69     1.0000 0.89946  0.10066  0.85054  Biso   1.000  Fe
  Fe70     1.0000 0.39946  0.10066  0.35054  Biso   1.000  Fe
  Fe71     1.0000 0.35054  0.60066  0.89946  Biso   1.000  Fe
  Fe72     1.0000 0.35054  0.10066  0.39946  Biso   1.000  Fe
  Fe73     1.0000 0.39946  0.64934  0.39946  Biso   1.000  Fe
  Fe74     1.0000 0.39946  0.14934  0.89946  Biso   1.000  Fe
  Fe75     1.0000 0.89946  0.64934  0.89946  Biso   1.000  Fe
  Fe76     1.0000 0.89946  0.14934  0.39946  Biso   1.000  Fe
  Fe77     1.0000 0.85054  0.14934  0.35054  Biso   1.000  Fe
  Fe78     1.0000 0.85054  0.64934  0.85054  Biso   1.000  Fe
  Fe79     1.0000 0.64946  0.10054  0.39934  Biso   1.000  Fe
  Fe80     1.0000 0.64946  0.60054  0.89934  Biso   1.000  Fe
  Fe81     1.0000 0.10054  0.14946  0.89934  Biso   1.000  Fe
  Fe82     1.0000 0.60054  0.14946  0.39934  Biso   1.000  Fe
  Fe83     1.0000 0.14946  0.64946  0.85066  Biso   1.000  Fe
  Fe84     1.0000 0.14946  0.14946  0.35066  Biso   1.000  Fe
  Fe85     1.0000 0.60054  0.60054  0.35066  Biso   1.000  Fe
  Fe86     1.0000 0.60054  0.10054  0.85066  Biso   1.000  Fe
  Fe87     1.0000 0.10054  0.60054  0.85066  Biso   1.000  Fe
  Fe88     1.0000 0.10054  0.10054  0.35066  Biso   1.000  Fe
  Fe89     1.0000 0.60054  0.35066  0.60054  Biso   1.000  Fe
  Fe90     1.0000 0.60054  0.85066  0.10054  Biso   1.000  Fe
  Fe91     1.0000 0.10054  0.35066  0.10054  Biso   1.000  Fe
  Fe92     1.0000 0.10054  0.85066  0.60054  Biso   1.000  Fe
  Fe93     1.0000 0.64946  0.85066  0.14946  Biso   1.000  Fe
  Fe94     1.0000 0.64946  0.35066  0.64946  Biso   1.000  Fe
  Fe95     1.0000 0.14946  0.89934  0.10054  Biso   1.000  Fe
  Fe96     1.0000 0.14946  0.39934  0.60054  Biso   1.000  Fe
  Fe97     1.0000 0.10054  0.39934  0.64946  Biso   1.000  Fe
  Fe98     1.0000 0.60054  0.39934  0.14946  Biso   1.000  Fe
  Fe99     1.0000 0.85066  0.14946  0.64946  Biso   1.000  Fe
  Fe100    1.0000 0.35066  0.14946  0.14946  Biso   1.000  Fe
  Fe101    1.0000 0.35066  0.60054  0.60054  Biso   1.000  Fe
  Fe102    1.0000 0.35066  0.10054  0.10054  Biso   1.000  Fe
  Fe103    1.0000 0.85066  0.60054  0.10054  Biso   1.000  Fe
  Fe104    1.0000 0.85066  0.10054  0.60054  Biso   1.000  Fe
  Fe105    1.0000 0.39934  0.64946  0.10054  Biso   1.000  Fe
  Fe106    1.0000 0.39934  0.14946  0.60054  Biso   1.000  Fe
  Fe107    1.0000 0.89934  0.10054  0.14946  Biso   1.000  Fe
  Fe108    1.0000 0.89934  0.60054  0.64946  Biso   1.000  Fe
  Fe109    1.0000 0.14946  0.10054  0.89934  Biso   1.000  Fe
  Fe110    1.0000 0.14946  0.60054  0.39934  Biso   1.000  Fe
  Fe111    1.0000 0.10054  0.64946  0.39934  Biso   1.000  Fe
  Fe112    1.0000 0.60054  0.64946  0.89934  Biso   1.000  Fe
  Fe113    1.0000 0.64946  0.14946  0.85066  Biso   1.000  Fe
  Fe114    1.0000 0.64946  0.64946  0.35066  Biso   1.000  Fe
  Fe115    1.0000 0.89934  0.14946  0.10054  Biso   1.000  Fe
  Fe116    1.0000 0.89934  0.64946  0.60054  Biso   1.000  Fe
  Fe117    1.0000 0.39934  0.10054  0.64946  Biso   1.000  Fe
  Fe118    1.0000 0.39934  0.60054  0.14946  Biso   1.000  Fe
  Fe119    1.0000 0.85066  0.64946  0.14946  Biso   1.000  Fe
  Fe120    1.0000 0.35066  0.64946  0.64946  Biso   1.000  Fe
  Fe121    1.0000 0.10054  0.89934  0.14946  Biso   1.000  Fe
  Fe122    1.0000 0.60054  0.89934  0.64946  Biso   1.000  Fe
  Fe123    1.0000 0.64946  0.39934  0.10054  Biso   1.000  Fe
  Fe124    1.0000 0.64946  0.89934  0.60054  Biso   1.000  Fe
  Fe125    1.0000 0.14946  0.85066  0.64946  Biso   1.000  Fe
  Fe126    1.0000 0.14946  0.35066  0.14946  Biso   1.000  Fe
  Fe127    1.0000 0.35054  0.89946  0.60066  Biso   1.000  Fe
  Fe128    1.0000 0.35054  0.39946  0.10066  Biso   1.000  Fe
  Fe129    1.0000 0.89946  0.85054  0.10066  Biso   1.000  Fe
  Fe130    1.0000 0.39946  0.85054  0.60066  Biso   1.000  Fe
  Fe131    1.0000 0.85054  0.35054  0.14934  Biso   1.000  Fe
  Fe132    1.0000 0.85054  0.85054  0.64934  Biso   1.000  Fe
  Fe133    1.0000 0.35054  0.14934  0.85054  Biso   1.000  Fe
  Fe134    1.0000 0.35054  0.64934  0.35054  Biso   1.000  Fe
  Fe135    1.0000 0.85054  0.10066  0.89946  Biso   1.000  Fe
  Fe136    1.0000 0.85054  0.60066  0.39946  Biso   1.000  Fe
  Fe137    1.0000 0.89946  0.60066  0.35054  Biso   1.000  Fe
  Fe138    1.0000 0.39946  0.60066  0.85054  Biso   1.000  Fe
  Fe139    1.0000 0.14934  0.85054  0.35054  Biso   1.000  Fe
  Fe140    1.0000 0.64934  0.85054  0.85054  Biso   1.000  Fe
  Fe141    1.0000 0.60066  0.35054  0.89946  Biso   1.000  Fe
  Fe142    1.0000 0.60066  0.85054  0.39946  Biso   1.000  Fe
  Fe143    1.0000 0.10066  0.89946  0.85054  Biso   1.000  Fe
  Fe144    1.0000 0.10066  0.39946  0.35054  Biso   1.000  Fe
  C1537    1.0000 0.67386  0.87653  0.07614  Biso   1.000  C
  C1538    1.0000 0.65314  0.87590  0.09686  Biso   1.000  C
  C1539    1.0000 0.17386  0.87653  0.57614  Biso   1.000  C
  C1540    1.0000 0.15314  0.87590  0.59686  Biso   1.000  C
  C1541    1.0000 0.17386  0.37653  0.07614  Biso   1.000  C
  C1542    1.0000 0.15314  0.37590  0.09686  Biso   1.000  C
  C1543    1.0000 0.07614  0.37347  0.57614  Biso   1.000  C
  C1544    1.0000 0.09686  0.37410  0.59686  Biso   1.000  C
  C1545    1.0000 0.07614  0.87347  0.07614  Biso   1.000  C
  C1546    1.0000 0.09686  0.87410  0.09686  Biso   1.000  C
  C1547    1.0000 0.57614  0.87347  0.57614  Biso   1.000  C
  C1548    1.0000 0.59686  0.87410  0.59686  Biso   1.000  C
  C1549    1.0000 0.57614  0.37653  0.67386  Biso   1.000  C
  C1550    1.0000 0.59686  0.37590  0.65314  Biso   1.000  C
  C1551    1.0000 0.57614  0.87653  0.17386  Biso   1.000  C
  C1552    1.0000 0.59686  0.87590  0.15314  Biso   1.000  C
  C1553    1.0000 0.07614  0.37653  0.17386  Biso   1.000  C
  C1554    1.0000 0.09686  0.37590  0.15314  Biso   1.000  C
  C1555    1.0000 0.17386  0.87347  0.17386  Biso   1.000  C
  C1556    1.0000 0.15314  0.87410  0.15314  Biso   1.000  C
  C1557    1.0000 0.17386  0.37347  0.67386  Biso   1.000  C
  C1558    1.0000 0.15314  0.37410  0.65314  Biso   1.000  C
  C1559    1.0000 0.67386  0.87347  0.67386  Biso   1.000  C
  C1560    1.0000 0.65314  0.87410  0.65314  Biso   1.000  C
  C1561    1.0000 0.67386  0.37347  0.17386  Biso   1.000  C
  C1562    1.0000 0.65314  0.37410  0.15314  Biso   1.000  C
  C1563    1.0000 0.07614  0.67386  0.87653  Biso   1.000  C
  C1564    1.0000 0.09686  0.65314  0.87590  Biso   1.000  C
  C1565    1.0000 0.07614  0.17386  0.37653  Biso   1.000  C
  C1566    1.0000 0.09686  0.15314  0.37590  Biso   1.000  C
  C1567    1.0000 0.57614  0.07614  0.37347  Biso   1.000  C
  C1568    1.0000 0.59686  0.09686  0.37410  Biso   1.000  C
  C1569    1.0000 0.57614  0.57614  0.87347  Biso   1.000  C
  C1570    1.0000 0.59686  0.59686  0.87410  Biso   1.000  C
  C1571    1.0000 0.67386  0.57614  0.37653  Biso   1.000  C
  C1572    1.0000 0.65314  0.59686  0.37590  Biso   1.000  C
  C1573    1.0000 0.17386  0.57614  0.87653  Biso   1.000  C
  C1574    1.0000 0.15314  0.59686  0.87590  Biso   1.000  C
  C1575    1.0000 0.17386  0.07614  0.37653  Biso   1.000  C
  C1576    1.0000 0.15314  0.09686  0.37590  Biso   1.000  C
  C1577    1.0000 0.17386  0.17386  0.87347  Biso   1.000  C
  C1578    1.0000 0.15314  0.15314  0.87410  Biso   1.000  C
  C1579    1.0000 0.17386  0.67386  0.37347  Biso   1.000  C
  C1580    1.0000 0.15314  0.65314  0.37410  Biso   1.000  C
  C1581    1.0000 0.67386  0.17386  0.37347  Biso   1.000  C
  C1582    1.0000 0.65314  0.15314  0.37410  Biso   1.000  C
  C1583    1.0000 0.67386  0.67386  0.87347  Biso   1.000  C
  C1584    1.0000 0.65314  0.65314  0.87410  Biso   1.000  C
  C1585    1.0000 0.87653  0.07614  0.67386  Biso   1.000  C
  C1586    1.0000 0.87590  0.09686  0.65314  Biso   1.000  C
  C1587    1.0000 0.87653  0.57614  0.17386  Biso   1.000  C
  C1588    1.0000 0.87590  0.59686  0.15314  Biso   1.000  C
  C1589    1.0000 0.37653  0.07614  0.17386  Biso   1.000  C
  C1590    1.0000 0.37590  0.09686  0.15314  Biso   1.000  C
  C1591    1.0000 0.37347  0.57614  0.07614  Biso   1.000  C
  C1592    1.0000 0.37410  0.59686  0.09686  Biso   1.000  C
  C1593    1.0000 0.87347  0.57614  0.57614  Biso   1.000  C
  C1594    1.0000 0.87410  0.59686  0.59686  Biso   1.000  C
  C1595    1.0000 0.37653  0.67386  0.57614  Biso   1.000  C
  C1596    1.0000 0.37590  0.65314  0.59686  Biso   1.000  C
  C1597    1.0000 0.37653  0.17386  0.07614  Biso   1.000  C
  C1598    1.0000 0.37590  0.15314  0.09686  Biso   1.000  C
  C1599    1.0000 0.87347  0.17386  0.17386  Biso   1.000  C
  C1600    1.0000 0.87410  0.15314  0.15314  Biso   1.000  C
  C1601    1.0000 0.87347  0.67386  0.67386  Biso   1.000  C
  C1602    1.0000 0.87410  0.65314  0.65314  Biso   1.000  C
  C1603    1.0000 0.37347  0.17386  0.67386  Biso   1.000  C
  C1604    1.0000 0.37410  0.15314  0.65314  Biso   1.000  C
  C1605    1.0000 0.37347  0.67386  0.17386  Biso   1.000  C
  C1606    1.0000 0.37410  0.65314  0.15314  Biso   1.000  C
  C1607    1.0000 0.62653  0.92386  0.42386  Biso   1.000  C
  C1608    1.0000 0.62590  0.90314  0.40314  Biso   1.000  C
  C1609    1.0000 0.12653  0.92386  0.92386  Biso   1.000  C
  C1610    1.0000 0.12590  0.90314  0.90314  Biso   1.000  C
  C1611    1.0000 0.12347  0.32614  0.92386  Biso   1.000  C
  C1612    1.0000 0.12410  0.34686  0.90314  Biso   1.000  C
  C1613    1.0000 0.12347  0.82614  0.42386  Biso   1.000  C
  C1614    1.0000 0.12410  0.84686  0.40314  Biso   1.000  C
  C1615    1.0000 0.12653  0.82614  0.82614  Biso   1.000  C
  C1616    1.0000 0.12590  0.84686  0.84686  Biso   1.000  C
  C1617    1.0000 0.12653  0.32614  0.32614  Biso   1.000  C
  C1618    1.0000 0.12590  0.34686  0.34686  Biso   1.000  C
  C1619    1.0000 0.62653  0.82614  0.32614  Biso   1.000  C
  C1620    1.0000 0.62590  0.84686  0.34686  Biso   1.000  C
  C1621    1.0000 0.62653  0.32614  0.82614  Biso   1.000  C
  C1622    1.0000 0.62590  0.34686  0.84686  Biso   1.000  C
  C1623    1.0000 0.62347  0.42386  0.32614  Biso   1.000  C
  C1624    1.0000 0.62410  0.40314  0.34686  Biso   1.000  C
  C1625    1.0000 0.62347  0.92386  0.82614  Biso   1.000  C
  C1626    1.0000 0.62410  0.90314  0.84686  Biso   1.000  C
  C1627    1.0000 0.42386  0.32614  0.62347  Biso   1.000  C
  C1628    1.0000 0.40314  0.34686  0.62410  Biso   1.000  C
  C1629    1.0000 0.42386  0.82614  0.12347  Biso   1.000  C
  C1630    1.0000 0.40314  0.84686  0.12410  Biso   1.000  C
  C1631    1.0000 0.82614  0.82614  0.12653  Biso   1.000  C
  C1632    1.0000 0.84686  0.84686  0.12590  Biso   1.000  C
  C1633    1.0000 0.82614  0.32614  0.62653  Biso   1.000  C
  C1634    1.0000 0.84686  0.34686  0.62590  Biso   1.000  C
  C1635    1.0000 0.32614  0.82614  0.62653  Biso   1.000  C
  C1636    1.0000 0.34686  0.84686  0.62590  Biso   1.000  C
  C1637    1.0000 0.32614  0.32614  0.12653  Biso   1.000  C
  C1638    1.0000 0.34686  0.34686  0.12590  Biso   1.000  C
  C1639    1.0000 0.32614  0.92386  0.12347  Biso   1.000  C
  C1640    1.0000 0.34686  0.90314  0.12410  Biso   1.000  C
  C1641    1.0000 0.82614  0.92386  0.62347  Biso   1.000  C
  C1642    1.0000 0.84686  0.90314  0.62410  Biso   1.000  C
  C1643    1.0000 0.92386  0.42386  0.62653  Biso   1.000  C
  C1644    1.0000 0.90314  0.40314  0.62590  Biso   1.000  C
  C1645    1.0000 0.92386  0.92386  0.12653  Biso   1.000  C
  C1646    1.0000 0.90314  0.90314  0.12590  Biso   1.000  C
  C1647    1.0000 0.82614  0.12653  0.82614  Biso   1.000  C
  C1648    1.0000 0.84686  0.12590  0.84686  Biso   1.000  C
  C1649    1.0000 0.82614  0.62653  0.32614  Biso   1.000  C
  C1650    1.0000 0.84686  0.62590  0.34686  Biso   1.000  C
  C1651    1.0000 0.32614  0.12653  0.32614  Biso   1.000  C
  C1652    1.0000 0.34686  0.12590  0.34686  Biso   1.000  C
  C1653    1.0000 0.32614  0.62653  0.82614  Biso   1.000  C
  C1654    1.0000 0.34686  0.62590  0.84686  Biso   1.000  C
  C1655    1.0000 0.32614  0.62347  0.42386  Biso   1.000  C
  C1656    1.0000 0.34686  0.62410  0.40314  Biso   1.000  C
  C1657    1.0000 0.82614  0.62347  0.92386  Biso   1.000  C
  C1658    1.0000 0.84686  0.62410  0.90314  Biso   1.000  C
  C1659    1.0000 0.42386  0.62653  0.92386  Biso   1.000  C
  C1660    1.0000 0.40314  0.62590  0.90314  Biso   1.000  C
  C1661    1.0000 0.42386  0.12653  0.42386  Biso   1.000  C
  C1662    1.0000 0.40314  0.12590  0.40314  Biso   1.000  C
  C1663    1.0000 0.92386  0.12653  0.92386  Biso   1.000  C
  C1664    1.0000 0.90314  0.12590  0.90314  Biso   1.000  C
  C1665    1.0000 0.92386  0.12347  0.32614  Biso   1.000  C
  C1666    1.0000 0.90314  0.12410  0.34686  Biso   1.000  C
  C1667    1.0000 0.92386  0.62347  0.82614  Biso   1.000  C
  C1668    1.0000 0.90314  0.62410  0.84686  Biso   1.000  C
  C1669    1.0000 0.32614  0.12347  0.92386  Biso   1.000  C
  C1670    1.0000 0.34686  0.12410  0.90314  Biso   1.000  C
  C1671    1.0000 0.82614  0.12347  0.42386  Biso   1.000  C
  C1672    1.0000 0.84686  0.12410  0.40314  Biso   1.000  C
  C1673    1.0000 0.92386  0.62653  0.42386  Biso   1.000  C
  C1674    1.0000 0.90314  0.62590  0.40314  Biso   1.000  C
  C1675    1.0000 0.42386  0.62347  0.32614  Biso   1.000  C
  C1676    1.0000 0.40314  0.62410  0.34686  Biso   1.000  C
  C1677    1.0000 0.42386  0.12347  0.82614  Biso   1.000  C
  C1678    1.0000 0.40314  0.12410  0.84686  Biso   1.000  C
  C1679    1.0000 0.92386  0.32614  0.12347  Biso   1.000  C
  C1680    1.0000 0.90314  0.34686  0.12410  Biso   1.000  C
  C1681    1.0000 0.92386  0.82614  0.62347  Biso   1.000  C
  C1682    1.0000 0.90314  0.84686  0.62410  Biso   1.000  C
  C1683    1.0000 0.42386  0.92386  0.62653  Biso   1.000  C
  C1684    1.0000 0.40314  0.90314  0.62590  Biso   1.000  C
  C1685    1.0000 0.42386  0.42386  0.12653  Biso   1.000  C
  C1686    1.0000 0.40314  0.40314  0.12590  Biso   1.000  C
  C1687    1.0000 0.32614  0.42386  0.62347  Biso   1.000  C
  C1688    1.0000 0.34686  0.40314  0.62410  Biso   1.000  C
  C1689    1.0000 0.82614  0.42386  0.12347  Biso   1.000  C
  C1690    1.0000 0.84686  0.40314  0.12410  Biso   1.000  C
  C1691    1.0000 0.12347  0.92386  0.32614  Biso   1.000  C
  C1692    1.0000 0.12410  0.90314  0.34686  Biso   1.000  C
  C1693    1.0000 0.12347  0.42386  0.82614  Biso   1.000  C
  C1694    1.0000 0.12410  0.40314  0.84686  Biso   1.000  C
  C1695    1.0000 0.62653  0.42386  0.92386  Biso   1.000  C
  C1696    1.0000 0.62590  0.40314  0.90314  Biso   1.000  C
  C1697    1.0000 0.12653  0.42386  0.42386  Biso   1.000  C
  C1698    1.0000 0.12590  0.40314  0.40314  Biso   1.000  C
  C1699    1.0000 0.62347  0.32614  0.42386  Biso   1.000  C
  C1700    1.0000 0.62410  0.34686  0.40314  Biso   1.000  C
  C1701    1.0000 0.62347  0.82614  0.92386  Biso   1.000  C
  C1702    1.0000 0.62410  0.84686  0.90314  Biso   1.000  C
  C1703    1.0000 0.37347  0.07614  0.57614  Biso   1.000  C
  C1704    1.0000 0.37410  0.09686  0.59686  Biso   1.000  C
  C1705    1.0000 0.87347  0.07614  0.07614  Biso   1.000  C
  C1706    1.0000 0.87410  0.09686  0.09686  Biso   1.000  C
  C1707    1.0000 0.87653  0.67386  0.07614  Biso   1.000  C
  C1708    1.0000 0.87590  0.65314  0.09686  Biso   1.000  C
  C1709    1.0000 0.87653  0.17386  0.57614  Biso   1.000  C
  C1710    1.0000 0.87590  0.15314  0.59686  Biso   1.000  C
  C1711    1.0000 0.37653  0.57614  0.67386  Biso   1.000  C
  C1712    1.0000 0.37590  0.59686  0.65314  Biso   1.000  C
  C1713    1.0000 0.57614  0.67386  0.37653  Biso   1.000  C
  C1714    1.0000 0.59686  0.65314  0.37590  Biso   1.000  C
  C1715    1.0000 0.57614  0.17386  0.87653  Biso   1.000  C
  C1716    1.0000 0.59686  0.15314  0.87590  Biso   1.000  C
  C1717    1.0000 0.67386  0.07614  0.87653  Biso   1.000  C
  C1718    1.0000 0.65314  0.09686  0.87590  Biso   1.000  C
  C1719    1.0000 0.07614  0.57614  0.37347  Biso   1.000  C
  C1720    1.0000 0.09686  0.59686  0.37410  Biso   1.000  C
  C1721    1.0000 0.07614  0.07614  0.87347  Biso   1.000  C
  C1722    1.0000 0.09686  0.09686  0.87410  Biso   1.000  C
  C1723    1.0000 0.67386  0.37653  0.57614  Biso   1.000  C
  C1724    1.0000 0.65314  0.37590  0.59686  Biso   1.000  C
  C1725    1.0000 0.57614  0.37347  0.07614  Biso   1.000  C
  C1726    1.0000 0.59686  0.37410  0.09686  Biso   1.000  C
  C1727    1.0000 0.07614  0.87653  0.67386  Biso   1.000  C
  C1728    1.0000 0.09686  0.87590  0.65314  Biso   1.000  C
