data_image0
_cell_length_a       36.079
_cell_length_b       14.978
_cell_length_c       30.734
_cell_angle_alpha    90
_cell_angle_beta     102.47
_cell_angle_gamma    90

_symmetry_space_group_name_H-M    "P 1"
_symmetry_int_tables_number       1

loop_
  _symmetry_equiv_pos_as_xyz
  'x, y, z'

loop_
  _atom_site_label
  _atom_site_occupancy
  _atom_site_fract_x
  _atom_site_fract_y
  _atom_site_fract_z
  _atom_site_thermal_displace_type
  _atom_site_B_iso_or_equiv
  _atom_site_type_symbol
  Zn1      1.0000 0.37701  0.09068  0.43463  Biso   1.000  Zn
  Zn2      1.0000 0.58560  0.37260  0.58770  Biso   1.000  Zn
  Zn3      1.0000 0.57100  0.61000  0.09570  Biso   1.000  Zn
  Zn4      1.0000 0.17284  0.36472  0.27398  Biso   1.000  Zn
  I1       1.0000 0.39401  0.23340  0.39859  Biso   1.000  I
  I2       1.0000 0.36370  0.07140  0.51580  Biso   1.000  I
  I3       1.0000 0.35825  0.09320  0.50830  Biso   1.000  I
  I4       1.0000 0.62128  0.26093  0.54738  Biso   1.000  I
  I5       1.0000 0.60430  0.73570  0.06008  Biso   1.000  I
  I6       1.0000 0.53297  0.33708  0.62608  Biso   1.000  I
  I7       1.0000 0.51680  0.62870  0.13485  Biso   1.000  I
  I8       1.0000 0.12649  0.33549  0.19874  Biso   1.000  I
  I9       1.0000 0.63410  0.82180  0.21190  Biso   1.000  I
  I10      1.0000 0.23210  0.27310  0.29830  Biso   1.000  I
  I11      1.0000 0.74130  0.79170  0.31350  Biso   1.000  I
  N1       1.0000 0.57440  0.72570  0.43530  Biso   1.000  N
  N2       1.0000 0.52430  0.77180  0.46980  Biso   1.000  N
  N3       1.0000 0.53800  0.85520  0.40890  Biso   1.000  N
  C1       1.0000 0.55210  0.71520  0.46370  Biso   1.000  C
  C2       1.0000 0.51750  0.83820  0.43970  Biso   1.000  C
  C3       1.0000 0.56730  0.79900  0.40970  Biso   1.000  C
  N4       1.0000 0.56850  0.48070  0.54490  Biso   1.000  N
  C4       1.0000 0.59180  0.50040  0.51860  Biso   1.000  C
  H1       1.0000 0.61200  0.46050  0.51730  Biso   1.000  H
  C5       1.0000 0.58790  0.57810  0.49260  Biso   1.000  C
  H2       1.0000 0.60610  0.59240  0.47540  Biso   1.000  H
  C6       1.0000 0.55740  0.63330  0.49220  Biso   1.000  C
  C7       1.0000 0.53200  0.61040  0.51860  Biso   1.000  C
  H3       1.0000 0.51030  0.64600  0.51860  Biso   1.000  H
  C8       1.0000 0.53930  0.53390  0.54520  Biso   1.000  C
  H4       1.0000 0.52260  0.51960  0.56410  Biso   1.000  H
  N5       1.0000 0.42150  0.00500  0.43770  Biso   1.000  N
  C9       1.0000 0.43580  0.99390  0.40330  Biso   1.000  C
  H5       1.0000 0.42330  0.02300  0.37670  Biso   1.000  H
  C10      1.0000 0.46770  0.94330  0.40110  Biso   1.000  C
  H6       1.0000 0.47750  0.94050  0.37480  Biso   1.000  H
  C11      1.0000 0.48480  0.89650  0.44000  Biso   1.000  C
  C12      1.0000 0.46920  0.90400  0.47620  Biso   1.000  C
  H7       1.0000 0.47950  0.87180  0.50270  Biso   1.000  H
  C13      1.0000 0.43800  0.95930  0.47420  Biso   1.000  C
  H8       1.0000 0.42780  0.96500  0.50010  Biso   1.000  H
  N6       1.0000 0.64090  0.84940  0.32190  Biso   1.000  N
  C14      1.0000 0.65060  0.79160  0.35550  Biso   1.000  C
  H9       1.0000 0.67450  0.76250  0.35980  Biso   1.000  H
  C15      1.0000 0.62690  0.77270  0.38410  Biso   1.000  C
  H10      1.0000 0.63420  0.72940  0.40690  Biso   1.000  H
  C16      1.0000 0.59280  0.81680  0.37960  Biso   1.000  C
  C17      1.0000 0.58390  0.87870  0.34540  Biso   1.000  C
  H11      1.0000 0.56090  0.91190  0.34160  Biso   1.000  H
  C18      1.0000 0.60810  0.89260  0.31670  Biso   1.000  C
  H12      1.0000 0.60120  0.93390  0.29290  Biso   1.000  H
  N7       1.0000 0.22070  0.95320  0.26960  Biso   1.000  N
  N8       1.0000 0.23600  0.81460  0.30710  Biso   1.000  N
  N9       1.0000 0.18270  0.82720  0.24560  Biso   1.000  N
  C19      1.0000 0.19260  0.91260  0.24420  Biso   1.000  C
  C20      1.0000 0.24100  0.90270  0.30230  Biso   1.000  C
  C21      1.0000 0.20630  0.78000  0.27790  Biso   1.000  C
  N10      1.0000 0.12210  0.05860  0.13820  Biso   1.000  N
  C22      1.0000 0.11590  0.97390  0.14620  Biso   1.000  C
  H13      1.0000 0.09410  0.94550  0.12890  Biso   1.000  H
  C23      1.0000 0.13970  0.92550  0.17840  Biso   1.000  C
  H14      1.0000 0.13580  0.86310  0.18070  Biso   1.000  H
  C24      1.0000 0.16840  0.96530  0.20660  Biso   1.000  C
  C25      1.0000 0.17470  0.05300  0.19930  Biso   1.000  C
  H15      1.0000 0.19490  0.08390  0.21840  Biso   1.000  H
  C26      1.0000 0.15140  0.09710  0.16380  Biso   1.000  C
  H16      1.0000 0.15700  0.15730  0.15790  Biso   1.000  H
  N11      1.0000 0.33390  0.03010  0.39060  Biso   1.000  N
  C27      1.0000 0.30920  0.07510  0.36050  Biso   1.000  C
  H17      1.0000 0.31280  0.13770  0.35860  Biso   1.000  H
  C28      1.0000 0.27860  0.03750  0.33170  Biso   1.000  C
  H18      1.0000 0.26170  0.07390  0.31110  Biso   1.000  H
  C29      1.0000 0.27270  0.94600  0.33300  Biso   1.000  C
  C30      1.0000 0.29810  0.89730  0.36450  Biso   1.000  C
  H19      1.0000 0.29520  0.83470  0.36750  Biso   1.000  H
  C31      1.0000 0.32830  0.94390  0.39210  Biso   1.000  C
  H20      1.0000 0.34590  0.91020  0.41320  Biso   1.000  H
  N12      1.0000 0.18510  0.50020  0.27630  Biso   1.000  N
  C32      1.0000 0.21580  0.53560  0.30240  Biso   1.000  C
  H21      1.0000 0.23330  0.49650  0.32060  Biso   1.000  H
  C33      1.0000 0.22370  0.62540  0.30480  Biso   1.000  C
  H22      1.0000 0.24590  0.64710  0.32450  Biso   1.000  H
  C34      1.0000 0.19940  0.68280  0.27870  Biso   1.000  C
  C35      1.0000 0.16750  0.64660  0.24880  Biso   1.000  C
  H23      1.0000 0.15050  0.68390  0.22880  Biso   1.000  H
  C36      1.0000 0.16200  0.55700  0.24940  Biso   1.000  C
  H24      1.0000 0.14030  0.53300  0.22960  Biso   1.000  H
  Zn5      1.0000 0.87701  0.59068  0.43463  Biso   1.000  Zn
  Zn6      1.0000 0.08560  0.87260  0.58770  Biso   1.000  Zn
  Zn7      1.0000 0.07100  0.11000  0.09570  Biso   1.000  Zn
  Zn8      1.0000 0.67284  0.86472  0.27398  Biso   1.000  Zn
  I12      1.0000 0.89401  0.73340  0.39859  Biso   1.000  I
  I13      1.0000 0.86370  0.57140  0.51580  Biso   1.000  I
  I14      1.0000 0.85825  0.59320  0.50830  Biso   1.000  I
  I15      1.0000 0.12128  0.76093  0.54738  Biso   1.000  I
  I16      1.0000 0.10430  0.23570  0.06008  Biso   1.000  I
  I17      1.0000 0.03297  0.83708  0.62608  Biso   1.000  I
  I18      1.0000 0.01680  0.12870  0.13485  Biso   1.000  I
  I19      1.0000 0.62649  0.83549  0.19874  Biso   1.000  I
  I20      1.0000 0.13410  0.32180  0.21190  Biso   1.000  I
  I21      1.0000 0.73210  0.77310  0.29830  Biso   1.000  I
  I22      1.0000 0.24130  0.29170  0.31350  Biso   1.000  I
  N13      1.0000 0.07440  0.22570  0.43530  Biso   1.000  N
  N14      1.0000 0.02430  0.27180  0.46980  Biso   1.000  N
  N15      1.0000 0.03800  0.35520  0.40890  Biso   1.000  N
  C37      1.0000 0.05210  0.21520  0.46370  Biso   1.000  C
  C38      1.0000 0.01750  0.33820  0.43970  Biso   1.000  C
  C39      1.0000 0.06730  0.29900  0.40970  Biso   1.000  C
  N16      1.0000 0.06850  0.98070  0.54490  Biso   1.000  N
  C40      1.0000 0.09180  0.00040  0.51860  Biso   1.000  C
  H25      1.0000 0.11200  0.96050  0.51730  Biso   1.000  H
  C41      1.0000 0.08790  0.07810  0.49260  Biso   1.000  C
  H26      1.0000 0.10610  0.09240  0.47540  Biso   1.000  H
  C42      1.0000 0.05740  0.13330  0.49220  Biso   1.000  C
  C43      1.0000 0.03200  0.11040  0.51860  Biso   1.000  C
  H27      1.0000 0.01030  0.14600  0.51860  Biso   1.000  H
  C44      1.0000 0.03930  0.03390  0.54520  Biso   1.000  C
  H28      1.0000 0.02260  0.01960  0.56410  Biso   1.000  H
  N17      1.0000 0.92150  0.50500  0.43770  Biso   1.000  N
  C45      1.0000 0.93580  0.49390  0.40330  Biso   1.000  C
  H29      1.0000 0.92330  0.52300  0.37670  Biso   1.000  H
  C46      1.0000 0.96770  0.44330  0.40110  Biso   1.000  C
  H30      1.0000 0.97750  0.44050  0.37480  Biso   1.000  H
  C47      1.0000 0.98480  0.39650  0.44000  Biso   1.000  C
  C48      1.0000 0.96920  0.40400  0.47620  Biso   1.000  C
  H31      1.0000 0.97950  0.37180  0.50270  Biso   1.000  H
  C49      1.0000 0.93800  0.45930  0.47420  Biso   1.000  C
  H32      1.0000 0.92780  0.46500  0.50010  Biso   1.000  H
  N18      1.0000 0.14090  0.34940  0.32190  Biso   1.000  N
  C50      1.0000 0.15060  0.29160  0.35550  Biso   1.000  C
  H33      1.0000 0.17450  0.26250  0.35980  Biso   1.000  H
  C51      1.0000 0.12690  0.27270  0.38410  Biso   1.000  C
  H34      1.0000 0.13420  0.22940  0.40690  Biso   1.000  H
  C52      1.0000 0.09280  0.31680  0.37960  Biso   1.000  C
  C53      1.0000 0.08390  0.37870  0.34540  Biso   1.000  C
  H35      1.0000 0.06090  0.41190  0.34160  Biso   1.000  H
  C54      1.0000 0.10810  0.39260  0.31670  Biso   1.000  C
  H36      1.0000 0.10120  0.43390  0.29290  Biso   1.000  H
  N19      1.0000 0.72070  0.45320  0.26960  Biso   1.000  N
  N20      1.0000 0.73600  0.31460  0.30710  Biso   1.000  N
  N21      1.0000 0.68270  0.32720  0.24560  Biso   1.000  N
  C55      1.0000 0.69260  0.41260  0.24420  Biso   1.000  C
  C56      1.0000 0.74100  0.40270  0.30230  Biso   1.000  C
  C57      1.0000 0.70630  0.28000  0.27790  Biso   1.000  C
  N22      1.0000 0.62210  0.55860  0.13820  Biso   1.000  N
  C58      1.0000 0.61590  0.47390  0.14620  Biso   1.000  C
  H37      1.0000 0.59410  0.44550  0.12890  Biso   1.000  H
  C59      1.0000 0.63970  0.42550  0.17840  Biso   1.000  C
  H38      1.0000 0.63580  0.36310  0.18070  Biso   1.000  H
  C60      1.0000 0.66840  0.46530  0.20660  Biso   1.000  C
  C61      1.0000 0.67470  0.55300  0.19930  Biso   1.000  C
  H39      1.0000 0.69490  0.58390  0.21840  Biso   1.000  H
  C62      1.0000 0.65140  0.59710  0.16380  Biso   1.000  C
  H40      1.0000 0.65700  0.65730  0.15790  Biso   1.000  H
  N23      1.0000 0.83390  0.53010  0.39060  Biso   1.000  N
  C63      1.0000 0.80920  0.57510  0.36050  Biso   1.000  C
  H41      1.0000 0.81280  0.63770  0.35860  Biso   1.000  H
  C64      1.0000 0.77860  0.53750  0.33170  Biso   1.000  C
  H42      1.0000 0.76170  0.57390  0.31110  Biso   1.000  H
  C65      1.0000 0.77270  0.44600  0.33300  Biso   1.000  C
  C66      1.0000 0.79810  0.39730  0.36450  Biso   1.000  C
  H43      1.0000 0.79520  0.33470  0.36750  Biso   1.000  H
  C67      1.0000 0.82830  0.44390  0.39210  Biso   1.000  C
  H44      1.0000 0.84590  0.41020  0.41320  Biso   1.000  H
  N24      1.0000 0.68510  0.00020  0.27630  Biso   1.000  N
  C68      1.0000 0.71580  0.03560  0.30240  Biso   1.000  C
  H45      1.0000 0.73330  0.99650  0.32060  Biso   1.000  H
  C69      1.0000 0.72370  0.12540  0.30480  Biso   1.000  C
  H46      1.0000 0.74590  0.14710  0.32450  Biso   1.000  H
  C70      1.0000 0.69940  0.18280  0.27870  Biso   1.000  C
  C71      1.0000 0.66750  0.14660  0.24880  Biso   1.000  C
  H47      1.0000 0.65050  0.18390  0.22880  Biso   1.000  H
  C72      1.0000 0.66200  0.05700  0.24940  Biso   1.000  C
  H48      1.0000 0.64030  0.03300  0.22960  Biso   1.000  H
  Zn9      1.0000 0.37701  0.90932  0.93463  Biso   1.000  Zn
  Zn10     1.0000 0.58560  0.62740  0.08770  Biso   1.000  Zn
  Zn11     1.0000 0.57100  0.39000  0.59570  Biso   1.000  Zn
  Zn12     1.0000 0.17284  0.63528  0.77398  Biso   1.000  Zn
  I23      1.0000 0.39401  0.76660  0.89859  Biso   1.000  I
  I24      1.0000 0.36370  0.92860  0.01580  Biso   1.000  I
  I25      1.0000 0.35825  0.90680  0.00830  Biso   1.000  I
  I26      1.0000 0.62128  0.73907  0.04738  Biso   1.000  I
  I27      1.0000 0.60430  0.26430  0.56008  Biso   1.000  I
  I28      1.0000 0.53297  0.66292  0.12608  Biso   1.000  I
  I29      1.0000 0.51680  0.37130  0.63485  Biso   1.000  I
  I30      1.0000 0.12649  0.66451  0.69874  Biso   1.000  I
  I31      1.0000 0.63410  0.17820  0.71190  Biso   1.000  I
  I32      1.0000 0.23210  0.72690  0.79830  Biso   1.000  I
  I33      1.0000 0.74130  0.20830  0.81350  Biso   1.000  I
  N25      1.0000 0.57440  0.27430  0.93530  Biso   1.000  N
  N26      1.0000 0.52430  0.22820  0.96980  Biso   1.000  N
  N27      1.0000 0.53800  0.14480  0.90890  Biso   1.000  N
  C73      1.0000 0.55210  0.28480  0.96370  Biso   1.000  C
  C74      1.0000 0.51750  0.16180  0.93970  Biso   1.000  C
  C75      1.0000 0.56730  0.20100  0.90970  Biso   1.000  C
  N28      1.0000 0.56850  0.51930  0.04490  Biso   1.000  N
  C76      1.0000 0.59180  0.49960  0.01860  Biso   1.000  C
  H49      1.0000 0.61200  0.53950  0.01730  Biso   1.000  H
  C77      1.0000 0.58790  0.42190  0.99260  Biso   1.000  C
  H50      1.0000 0.60610  0.40760  0.97540  Biso   1.000  H
  C78      1.0000 0.55740  0.36670  0.99220  Biso   1.000  C
  C79      1.0000 0.53200  0.38960  0.01860  Biso   1.000  C
  H51      1.0000 0.51030  0.35400  0.01860  Biso   1.000  H
  C80      1.0000 0.53930  0.46610  0.04520  Biso   1.000  C
  H52      1.0000 0.52260  0.48040  0.06410  Biso   1.000  H
  N29      1.0000 0.42150  0.99500  0.93770  Biso   1.000  N
  C81      1.0000 0.43580  0.00610  0.90330  Biso   1.000  C
  H53      1.0000 0.42330  0.97700  0.87670  Biso   1.000  H
  C82      1.0000 0.46770  0.05670  0.90110  Biso   1.000  C
  H54      1.0000 0.47750  0.05950  0.87480  Biso   1.000  H
  C83      1.0000 0.48480  0.10350  0.94000  Biso   1.000  C
  C84      1.0000 0.46920  0.09600  0.97620  Biso   1.000  C
  H55      1.0000 0.47950  0.12820  0.00270  Biso   1.000  H
  C85      1.0000 0.43800  0.04070  0.97420  Biso   1.000  C
  H56      1.0000 0.42780  0.03500  0.00010  Biso   1.000  H
  N30      1.0000 0.64090  0.15060  0.82190  Biso   1.000  N
  C86      1.0000 0.65060  0.20840  0.85550  Biso   1.000  C
  H57      1.0000 0.67450  0.23750  0.85980  Biso   1.000  H
  C87      1.0000 0.62690  0.22730  0.88410  Biso   1.000  C
  H58      1.0000 0.63420  0.27060  0.90690  Biso   1.000  H
  C88      1.0000 0.59280  0.18320  0.87960  Biso   1.000  C
  C89      1.0000 0.58390  0.12130  0.84540  Biso   1.000  C
  H59      1.0000 0.56090  0.08810  0.84160  Biso   1.000  H
  C90      1.0000 0.60810  0.10740  0.81670  Biso   1.000  C
  H60      1.0000 0.60120  0.06610  0.79290  Biso   1.000  H
  N31      1.0000 0.22070  0.04680  0.76960  Biso   1.000  N
  N32      1.0000 0.23600  0.18540  0.80710  Biso   1.000  N
  N33      1.0000 0.18270  0.17280  0.74560  Biso   1.000  N
  C91      1.0000 0.19260  0.08740  0.74420  Biso   1.000  C
  C92      1.0000 0.24100  0.09730  0.80230  Biso   1.000  C
  C93      1.0000 0.20630  0.22000  0.77790  Biso   1.000  C
  N34      1.0000 0.12210  0.94140  0.63820  Biso   1.000  N
  C94      1.0000 0.11590  0.02610  0.64620  Biso   1.000  C
  H61      1.0000 0.09410  0.05450  0.62890  Biso   1.000  H
  C95      1.0000 0.13970  0.07450  0.67840  Biso   1.000  C
  H62      1.0000 0.13580  0.13690  0.68070  Biso   1.000  H
  C96      1.0000 0.16840  0.03470  0.70660  Biso   1.000  C
  C97      1.0000 0.17470  0.94700  0.69930  Biso   1.000  C
  H63      1.0000 0.19490  0.91610  0.71840  Biso   1.000  H
  C98      1.0000 0.15140  0.90290  0.66380  Biso   1.000  C
  H64      1.0000 0.15700  0.84270  0.65790  Biso   1.000  H
  N35      1.0000 0.33390  0.96990  0.89060  Biso   1.000  N
  C99      1.0000 0.30920  0.92490  0.86050  Biso   1.000  C
  H65      1.0000 0.31280  0.86230  0.85860  Biso   1.000  H
  C100     1.0000 0.27860  0.96250  0.83170  Biso   1.000  C
  H66      1.0000 0.26170  0.92610  0.81110  Biso   1.000  H
  C101     1.0000 0.27270  0.05400  0.83300  Biso   1.000  C
  C102     1.0000 0.29810  0.10270  0.86450  Biso   1.000  C
  H67      1.0000 0.29520  0.16530  0.86750  Biso   1.000  H
  C103     1.0000 0.32830  0.05610  0.89210  Biso   1.000  C
  H68      1.0000 0.34590  0.08980  0.91320  Biso   1.000  H
  N36      1.0000 0.18510  0.49980  0.77630  Biso   1.000  N
  C104     1.0000 0.21580  0.46440  0.80240  Biso   1.000  C
  H69      1.0000 0.23330  0.50350  0.82060  Biso   1.000  H
  C105     1.0000 0.22370  0.37460  0.80480  Biso   1.000  C
  H70      1.0000 0.24590  0.35290  0.82450  Biso   1.000  H
  C106     1.0000 0.19940  0.31720  0.77870  Biso   1.000  C
  C107     1.0000 0.16750  0.35340  0.74880  Biso   1.000  C
  H71      1.0000 0.15050  0.31610  0.72880  Biso   1.000  H
  C108     1.0000 0.16200  0.44300  0.74940  Biso   1.000  C
  H72      1.0000 0.14030  0.46700  0.72960  Biso   1.000  H
  Zn13     1.0000 0.87701  0.40932  0.93463  Biso   1.000  Zn
  Zn14     1.0000 0.08560  0.12740  0.08770  Biso   1.000  Zn
  Zn15     1.0000 0.07100  0.89000  0.59570  Biso   1.000  Zn
  Zn16     1.0000 0.67284  0.13528  0.77398  Biso   1.000  Zn
  I34      1.0000 0.89401  0.26660  0.89859  Biso   1.000  I
  I35      1.0000 0.86370  0.42860  0.01580  Biso   1.000  I
  I36      1.0000 0.85825  0.40680  0.00830  Biso   1.000  I
  I37      1.0000 0.12128  0.23907  0.04738  Biso   1.000  I
  I38      1.0000 0.10430  0.76430  0.56008  Biso   1.000  I
  I39      1.0000 0.03297  0.16292  0.12608  Biso   1.000  I
  I40      1.0000 0.01680  0.87130  0.63485  Biso   1.000  I
  I41      1.0000 0.62649  0.16451  0.69874  Biso   1.000  I
  I42      1.0000 0.13410  0.67820  0.71190  Biso   1.000  I
  I43      1.0000 0.73210  0.22690  0.79830  Biso   1.000  I
  I44      1.0000 0.24130  0.70830  0.81350  Biso   1.000  I
  N37      1.0000 0.07440  0.77430  0.93530  Biso   1.000  N
  N38      1.0000 0.02430  0.72820  0.96980  Biso   1.000  N
  N39      1.0000 0.03800  0.64480  0.90890  Biso   1.000  N
  C109     1.0000 0.05210  0.78480  0.96370  Biso   1.000  C
  C110     1.0000 0.01750  0.66180  0.93970  Biso   1.000  C
  C111     1.0000 0.06730  0.70100  0.90970  Biso   1.000  C
  N40      1.0000 0.06850  0.01930  0.04490  Biso   1.000  N
  C112     1.0000 0.09180  0.99960  0.01860  Biso   1.000  C
  H73      1.0000 0.11200  0.03950  0.01730  Biso   1.000  H
  C113     1.0000 0.08790  0.92190  0.99260  Biso   1.000  C
  H74      1.0000 0.10610  0.90760  0.97540  Biso   1.000  H
  C114     1.0000 0.05740  0.86670  0.99220  Biso   1.000  C
  C115     1.0000 0.03200  0.88960  0.01860  Biso   1.000  C
  H75      1.0000 0.01030  0.85400  0.01860  Biso   1.000  H
  C116     1.0000 0.03930  0.96610  0.04520  Biso   1.000  C
  H76      1.0000 0.02260  0.98040  0.06410  Biso   1.000  H
  N41      1.0000 0.92150  0.49500  0.93770  Biso   1.000  N
  C117     1.0000 0.93580  0.50610  0.90330  Biso   1.000  C
  H77      1.0000 0.92330  0.47700  0.87670  Biso   1.000  H
  C118     1.0000 0.96770  0.55670  0.90110  Biso   1.000  C
  H78      1.0000 0.97750  0.55950  0.87480  Biso   1.000  H
  C119     1.0000 0.98480  0.60350  0.94000  Biso   1.000  C
  C120     1.0000 0.96920  0.59600  0.97620  Biso   1.000  C
  H79      1.0000 0.97950  0.62820  0.00270  Biso   1.000  H
  C121     1.0000 0.93800  0.54070  0.97420  Biso   1.000  C
  H80      1.0000 0.92780  0.53500  0.00010  Biso   1.000  H
  N42      1.0000 0.14090  0.65060  0.82190  Biso   1.000  N
  C122     1.0000 0.15060  0.70840  0.85550  Biso   1.000  C
  H81      1.0000 0.17450  0.73750  0.85980  Biso   1.000  H
  C123     1.0000 0.12690  0.72730  0.88410  Biso   1.000  C
  H82      1.0000 0.13420  0.77060  0.90690  Biso   1.000  H
  C124     1.0000 0.09280  0.68320  0.87960  Biso   1.000  C
  C125     1.0000 0.08390  0.62130  0.84540  Biso   1.000  C
  H83      1.0000 0.06090  0.58810  0.84160  Biso   1.000  H
  C126     1.0000 0.10810  0.60740  0.81670  Biso   1.000  C
  H84      1.0000 0.10120  0.56610  0.79290  Biso   1.000  H
  N43      1.0000 0.72070  0.54680  0.76960  Biso   1.000  N
  N44      1.0000 0.73600  0.68540  0.80710  Biso   1.000  N
  N45      1.0000 0.68270  0.67280  0.74560  Biso   1.000  N
  C127     1.0000 0.69260  0.58740  0.74420  Biso   1.000  C
  C128     1.0000 0.74100  0.59730  0.80230  Biso   1.000  C
  C129     1.0000 0.70630  0.72000  0.77790  Biso   1.000  C
  N46      1.0000 0.62210  0.44140  0.63820  Biso   1.000  N
  C130     1.0000 0.61590  0.52610  0.64620  Biso   1.000  C
  H85      1.0000 0.59410  0.55450  0.62890  Biso   1.000  H
  C131     1.0000 0.63970  0.57450  0.67840  Biso   1.000  C
  H86      1.0000 0.63580  0.63690  0.68070  Biso   1.000  H
  C132     1.0000 0.66840  0.53470  0.70660  Biso   1.000  C
  C133     1.0000 0.67470  0.44700  0.69930  Biso   1.000  C
  H87      1.0000 0.69490  0.41610  0.71840  Biso   1.000  H
  C134     1.0000 0.65140  0.40290  0.66380  Biso   1.000  C
  H88      1.0000 0.65700  0.34270  0.65790  Biso   1.000  H
  N47      1.0000 0.83390  0.46990  0.89060  Biso   1.000  N
  C135     1.0000 0.80920  0.42490  0.86050  Biso   1.000  C
  H89      1.0000 0.81280  0.36230  0.85860  Biso   1.000  H
  C136     1.0000 0.77860  0.46250  0.83170  Biso   1.000  C
  H90      1.0000 0.76170  0.42610  0.81110  Biso   1.000  H
  C137     1.0000 0.77270  0.55400  0.83300  Biso   1.000  C
  C138     1.0000 0.79810  0.60270  0.86450  Biso   1.000  C
  H91      1.0000 0.79520  0.66530  0.86750  Biso   1.000  H
  C139     1.0000 0.82830  0.55610  0.89210  Biso   1.000  C
  H92      1.0000 0.84590  0.58980  0.91320  Biso   1.000  H
  N48      1.0000 0.68510  0.99980  0.77630  Biso   1.000  N
  C140     1.0000 0.71580  0.96440  0.80240  Biso   1.000  C
  H93      1.0000 0.73330  0.00350  0.82060  Biso   1.000  H
  C141     1.0000 0.72370  0.87460  0.80480  Biso   1.000  C
  H94      1.0000 0.74590  0.85290  0.82450  Biso   1.000  H
  C142     1.0000 0.69940  0.81720  0.77870  Biso   1.000  C
  C143     1.0000 0.66750  0.85340  0.74880  Biso   1.000  C
  H95      1.0000 0.65050  0.81610  0.72880  Biso   1.000  H
  C144     1.0000 0.66200  0.94300  0.74940  Biso   1.000  C
  H96      1.0000 0.64030  0.96700  0.72960  Biso   1.000  H
  Zn17     1.0000 0.62299  0.09068  0.06537  Biso   1.000  Zn
  Zn18     1.0000 0.41440  0.37260  0.91230  Biso   1.000  Zn
  Zn19     1.0000 0.42900  0.61000  0.40430  Biso   1.000  Zn
  Zn20     1.0000 0.82716  0.36472  0.22602  Biso   1.000  Zn
  I45      1.0000 0.60599  0.23340  0.10141  Biso   1.000  I
  I46      1.0000 0.63630  0.07140  0.98420  Biso   1.000  I
  I47      1.0000 0.64175  0.09320  0.99170  Biso   1.000  I
  I48      1.0000 0.37872  0.26093  0.95262  Biso   1.000  I
  I49      1.0000 0.39570  0.73570  0.43992  Biso   1.000  I
  I50      1.0000 0.46703  0.33708  0.87392  Biso   1.000  I
  I51      1.0000 0.48320  0.62870  0.36515  Biso   1.000  I
  I52      1.0000 0.87351  0.33549  0.30126  Biso   1.000  I
  I53      1.0000 0.36590  0.82180  0.28810  Biso   1.000  I
  I54      1.0000 0.76790  0.27310  0.20170  Biso   1.000  I
  I55      1.0000 0.25870  0.79170  0.18650  Biso   1.000  I
  N49      1.0000 0.42560  0.72570  0.06470  Biso   1.000  N
  N50      1.0000 0.47570  0.77180  0.03020  Biso   1.000  N
  N51      1.0000 0.46200  0.85520  0.09110  Biso   1.000  N
  C145     1.0000 0.44790  0.71520  0.03630  Biso   1.000  C
  C146     1.0000 0.48250  0.83820  0.06030  Biso   1.000  C
  C147     1.0000 0.43270  0.79900  0.09030  Biso   1.000  C
  N52      1.0000 0.43150  0.48070  0.95510  Biso   1.000  N
  C148     1.0000 0.40820  0.50040  0.98140  Biso   1.000  C
  H97      1.0000 0.38800  0.46050  0.98270  Biso   1.000  H
  C149     1.0000 0.41210  0.57810  0.00740  Biso   1.000  C
  H98      1.0000 0.39390  0.59240  0.02460  Biso   1.000  H
  C150     1.0000 0.44260  0.63330  0.00780  Biso   1.000  C
  C151     1.0000 0.46800  0.61040  0.98140  Biso   1.000  C
  H99      1.0000 0.48970  0.64600  0.98140  Biso   1.000  H
  C152     1.0000 0.46070  0.53390  0.95480  Biso   1.000  C
  H100     1.0000 0.47740  0.51960  0.93590  Biso   1.000  H
  N53      1.0000 0.57850  0.00500  0.06230  Biso   1.000  N
  C153     1.0000 0.56420  0.99390  0.09670  Biso   1.000  C
  H101     1.0000 0.57670  0.02300  0.12330  Biso   1.000  H
  C154     1.0000 0.53230  0.94330  0.09890  Biso   1.000  C
  H102     1.0000 0.52250  0.94050  0.12520  Biso   1.000  H
  C155     1.0000 0.51520  0.89650  0.06000  Biso   1.000  C
  C156     1.0000 0.53080  0.90400  0.02380  Biso   1.000  C
  H103     1.0000 0.52050  0.87180  0.99730  Biso   1.000  H
  C157     1.0000 0.56200  0.95930  0.02580  Biso   1.000  C
  H104     1.0000 0.57220  0.96500  0.99990  Biso   1.000  H
  N54      1.0000 0.35910  0.84940  0.17810  Biso   1.000  N
  C158     1.0000 0.34940  0.79160  0.14450  Biso   1.000  C
  H105     1.0000 0.32550  0.76250  0.14020  Biso   1.000  H
  C159     1.0000 0.37310  0.77270  0.11590  Biso   1.000  C
  H106     1.0000 0.36580  0.72940  0.09310  Biso   1.000  H
  C160     1.0000 0.40720  0.81680  0.12040  Biso   1.000  C
  C161     1.0000 0.41610  0.87870  0.15460  Biso   1.000  C
  H107     1.0000 0.43910  0.91190  0.15840  Biso   1.000  H
  C162     1.0000 0.39190  0.89260  0.18330  Biso   1.000  C
  H108     1.0000 0.39880  0.93390  0.20710  Biso   1.000  H
  N55      1.0000 0.77930  0.95320  0.23040  Biso   1.000  N
  N56      1.0000 0.76400  0.81460  0.19290  Biso   1.000  N
  N57      1.0000 0.81730  0.82720  0.25440  Biso   1.000  N
  C163     1.0000 0.80740  0.91260  0.25580  Biso   1.000  C
  C164     1.0000 0.75900  0.90270  0.19770  Biso   1.000  C
  C165     1.0000 0.79370  0.78000  0.22210  Biso   1.000  C
  N58      1.0000 0.87790  0.05860  0.36180  Biso   1.000  N
  C166     1.0000 0.88410  0.97390  0.35380  Biso   1.000  C
  H109     1.0000 0.90590  0.94550  0.37110  Biso   1.000  H
  C167     1.0000 0.86030  0.92550  0.32160  Biso   1.000  C
  H110     1.0000 0.86420  0.86310  0.31930  Biso   1.000  H
  C168     1.0000 0.83160  0.96530  0.29340  Biso   1.000  C
  C169     1.0000 0.82530  0.05300  0.30070  Biso   1.000  C
  H111     1.0000 0.80510  0.08390  0.28160  Biso   1.000  H
  C170     1.0000 0.84860  0.09710  0.33620  Biso   1.000  C
  H112     1.0000 0.84300  0.15730  0.34210  Biso   1.000  H
  N59      1.0000 0.66610  0.03010  0.10940  Biso   1.000  N
  C171     1.0000 0.69080  0.07510  0.13950  Biso   1.000  C
  H113     1.0000 0.68720  0.13770  0.14140  Biso   1.000  H
  C172     1.0000 0.72140  0.03750  0.16830  Biso   1.000  C
  H114     1.0000 0.73830  0.07390  0.18890  Biso   1.000  H
  C173     1.0000 0.72730  0.94600  0.16700  Biso   1.000  C
  C174     1.0000 0.70190  0.89730  0.13550  Biso   1.000  C
  H115     1.0000 0.70480  0.83470  0.13250  Biso   1.000  H
  C175     1.0000 0.67170  0.94390  0.10790  Biso   1.000  C
  H116     1.0000 0.65410  0.91020  0.08680  Biso   1.000  H
  N60      1.0000 0.81490  0.50020  0.22370  Biso   1.000  N
  C176     1.0000 0.78420  0.53560  0.19760  Biso   1.000  C
  H117     1.0000 0.76670  0.49650  0.17940  Biso   1.000  H
  C177     1.0000 0.77630  0.62540  0.19520  Biso   1.000  C
  H118     1.0000 0.75410  0.64710  0.17550  Biso   1.000  H
  C178     1.0000 0.80060  0.68280  0.22130  Biso   1.000  C
  C179     1.0000 0.83250  0.64660  0.25120  Biso   1.000  C
  H119     1.0000 0.84950  0.68390  0.27120  Biso   1.000  H
  C180     1.0000 0.83800  0.55700  0.25060  Biso   1.000  C
  H120     1.0000 0.85970  0.53300  0.27040  Biso   1.000  H
  Zn21     1.0000 0.12299  0.59068  0.06537  Biso   1.000  Zn
  Zn22     1.0000 0.91440  0.87260  0.91230  Biso   1.000  Zn
  Zn23     1.0000 0.92900  0.11000  0.40430  Biso   1.000  Zn
  Zn24     1.0000 0.32716  0.86472  0.22602  Biso   1.000  Zn
  I56      1.0000 0.10599  0.73340  0.10141  Biso   1.000  I
  I57      1.0000 0.13630  0.57140  0.98420  Biso   1.000  I
  I58      1.0000 0.14175  0.59320  0.99170  Biso   1.000  I
  I59      1.0000 0.87872  0.76093  0.95262  Biso   1.000  I
  I60      1.0000 0.89570  0.23570  0.43992  Biso   1.000  I
  I61      1.0000 0.96703  0.83708  0.87392  Biso   1.000  I
  I62      1.0000 0.98320  0.12870  0.36515  Biso   1.000  I
  I63      1.0000 0.37351  0.83549  0.30126  Biso   1.000  I
  I64      1.0000 0.86590  0.32180  0.28810  Biso   1.000  I
  I65      1.0000 0.26790  0.77310  0.20170  Biso   1.000  I
  I66      1.0000 0.75870  0.29170  0.18650  Biso   1.000  I
  N61      1.0000 0.92560  0.22570  0.06470  Biso   1.000  N
  N62      1.0000 0.97570  0.27180  0.03020  Biso   1.000  N
  N63      1.0000 0.96200  0.35520  0.09110  Biso   1.000  N
  C181     1.0000 0.94790  0.21520  0.03630  Biso   1.000  C
  C182     1.0000 0.98250  0.33820  0.06030  Biso   1.000  C
  C183     1.0000 0.93270  0.29900  0.09030  Biso   1.000  C
  N64      1.0000 0.93150  0.98070  0.95510  Biso   1.000  N
  C184     1.0000 0.90820  0.00040  0.98140  Biso   1.000  C
  H121     1.0000 0.88800  0.96050  0.98270  Biso   1.000  H
  C185     1.0000 0.91210  0.07810  0.00740  Biso   1.000  C
  H122     1.0000 0.89390  0.09240  0.02460  Biso   1.000  H
  C186     1.0000 0.94260  0.13330  0.00780  Biso   1.000  C
  C187     1.0000 0.96800  0.11040  0.98140  Biso   1.000  C
  H123     1.0000 0.98970  0.14600  0.98140  Biso   1.000  H
  C188     1.0000 0.96070  0.03390  0.95480  Biso   1.000  C
  H124     1.0000 0.97740  0.01960  0.93590  Biso   1.000  H
  N65      1.0000 0.07850  0.50500  0.06230  Biso   1.000  N
  C189     1.0000 0.06420  0.49390  0.09670  Biso   1.000  C
  H125     1.0000 0.07670  0.52300  0.12330  Biso   1.000  H
  C190     1.0000 0.03230  0.44330  0.09890  Biso   1.000  C
  H126     1.0000 0.02250  0.44050  0.12520  Biso   1.000  H
  C191     1.0000 0.01520  0.39650  0.06000  Biso   1.000  C
  C192     1.0000 0.03080  0.40400  0.02380  Biso   1.000  C
  H127     1.0000 0.02050  0.37180  0.99730  Biso   1.000  H
  C193     1.0000 0.06200  0.45930  0.02580  Biso   1.000  C
  H128     1.0000 0.07220  0.46500  0.99990  Biso   1.000  H
  N66      1.0000 0.85910  0.34940  0.17810  Biso   1.000  N
  C194     1.0000 0.84940  0.29160  0.14450  Biso   1.000  C
  H129     1.0000 0.82550  0.26250  0.14020  Biso   1.000  H
  C195     1.0000 0.87310  0.27270  0.11590  Biso   1.000  C
  H130     1.0000 0.86580  0.22940  0.09310  Biso   1.000  H
  C196     1.0000 0.90720  0.31680  0.12040  Biso   1.000  C
  C197     1.0000 0.91610  0.37870  0.15460  Biso   1.000  C
  H131     1.0000 0.93910  0.41190  0.15840  Biso   1.000  H
  C198     1.0000 0.89190  0.39260  0.18330  Biso   1.000  C
  H132     1.0000 0.89880  0.43390  0.20710  Biso   1.000  H
  N67      1.0000 0.27930  0.45320  0.23040  Biso   1.000  N
  N68      1.0000 0.26400  0.31460  0.19290  Biso   1.000  N
  N69      1.0000 0.31730  0.32720  0.25440  Biso   1.000  N
  C199     1.0000 0.30740  0.41260  0.25580  Biso   1.000  C
  C200     1.0000 0.25900  0.40270  0.19770  Biso   1.000  C
  C201     1.0000 0.29370  0.28000  0.22210  Biso   1.000  C
  N70      1.0000 0.37790  0.55860  0.36180  Biso   1.000  N
  C202     1.0000 0.38410  0.47390  0.35380  Biso   1.000  C
  H133     1.0000 0.40590  0.44550  0.37110  Biso   1.000  H
  C203     1.0000 0.36030  0.42550  0.32160  Biso   1.000  C
  H134     1.0000 0.36420  0.36310  0.31930  Biso   1.000  H
  C204     1.0000 0.33160  0.46530  0.29340  Biso   1.000  C
  C205     1.0000 0.32530  0.55300  0.30070  Biso   1.000  C
  H135     1.0000 0.30510  0.58390  0.28160  Biso   1.000  H
  C206     1.0000 0.34860  0.59710  0.33620  Biso   1.000  C
  H136     1.0000 0.34300  0.65730  0.34210  Biso   1.000  H
  N71      1.0000 0.16610  0.53010  0.10940  Biso   1.000  N
  C207     1.0000 0.19080  0.57510  0.13950  Biso   1.000  C
  H137     1.0000 0.18720  0.63770  0.14140  Biso   1.000  H
  C208     1.0000 0.22140  0.53750  0.16830  Biso   1.000  C
  H138     1.0000 0.23830  0.57390  0.18890  Biso   1.000  H
  C209     1.0000 0.22730  0.44600  0.16700  Biso   1.000  C
  C210     1.0000 0.20190  0.39730  0.13550  Biso   1.000  C
  H139     1.0000 0.20480  0.33470  0.13250  Biso   1.000  H
  C211     1.0000 0.17170  0.44390  0.10790  Biso   1.000  C
  H140     1.0000 0.15410  0.41020  0.08680  Biso   1.000  H
  N72      1.0000 0.31490  0.00020  0.22370  Biso   1.000  N
  C212     1.0000 0.28420  0.03560  0.19760  Biso   1.000  C
  H141     1.0000 0.26670  0.99650  0.17940  Biso   1.000  H
  C213     1.0000 0.27630  0.12540  0.19520  Biso   1.000  C
  H142     1.0000 0.25410  0.14710  0.17550  Biso   1.000  H
  C214     1.0000 0.30060  0.18280  0.22130  Biso   1.000  C
  C215     1.0000 0.33250  0.14660  0.25120  Biso   1.000  C
  H143     1.0000 0.34950  0.18390  0.27120  Biso   1.000  H
  C216     1.0000 0.33800  0.05700  0.25060  Biso   1.000  C
  H144     1.0000 0.35970  0.03300  0.27040  Biso   1.000  H
  Zn25     1.0000 0.62299  0.90932  0.56537  Biso   1.000  Zn
  Zn26     1.0000 0.41440  0.62740  0.41230  Biso   1.000  Zn
  Zn27     1.0000 0.42900  0.39000  0.90430  Biso   1.000  Zn
  Zn28     1.0000 0.82716  0.63528  0.72602  Biso   1.000  Zn
  I67      1.0000 0.60599  0.76660  0.60141  Biso   1.000  I
  I68      1.0000 0.63630  0.92860  0.48420  Biso   1.000  I
  I69      1.0000 0.64175  0.90680  0.49170  Biso   1.000  I
  I70      1.0000 0.37872  0.73907  0.45262  Biso   1.000  I
  I71      1.0000 0.39570  0.26430  0.93992  Biso   1.000  I
  I72      1.0000 0.46703  0.66292  0.37392  Biso   1.000  I
  I73      1.0000 0.48320  0.37130  0.86515  Biso   1.000  I
  I74      1.0000 0.87351  0.66451  0.80126  Biso   1.000  I
  I75      1.0000 0.36590  0.17820  0.78810  Biso   1.000  I
  I76      1.0000 0.76790  0.72690  0.70170  Biso   1.000  I
  I77      1.0000 0.25870  0.20830  0.68650  Biso   1.000  I
  N73      1.0000 0.42560  0.27430  0.56470  Biso   1.000  N
  N74      1.0000 0.47570  0.22820  0.53020  Biso   1.000  N
  N75      1.0000 0.46200  0.14480  0.59110  Biso   1.000  N
  C217     1.0000 0.44790  0.28480  0.53630  Biso   1.000  C
  C218     1.0000 0.48250  0.16180  0.56030  Biso   1.000  C
  C219     1.0000 0.43270  0.20100  0.59030  Biso   1.000  C
  N76      1.0000 0.43150  0.51930  0.45510  Biso   1.000  N
  C220     1.0000 0.40820  0.49960  0.48140  Biso   1.000  C
  H145     1.0000 0.38800  0.53950  0.48270  Biso   1.000  H
  C221     1.0000 0.41210  0.42190  0.50740  Biso   1.000  C
  H146     1.0000 0.39390  0.40760  0.52460  Biso   1.000  H
  C222     1.0000 0.44260  0.36670  0.50780  Biso   1.000  C
  C223     1.0000 0.46800  0.38960  0.48140  Biso   1.000  C
  H147     1.0000 0.48970  0.35400  0.48140  Biso   1.000  H
  C224     1.0000 0.46070  0.46610  0.45480  Biso   1.000  C
  H148     1.0000 0.47740  0.48040  0.43590  Biso   1.000  H
  N77      1.0000 0.57850  0.99500  0.56230  Biso   1.000  N
  C225     1.0000 0.56420  0.00610  0.59670  Biso   1.000  C
  H149     1.0000 0.57670  0.97700  0.62330  Biso   1.000  H
  C226     1.0000 0.53230  0.05670  0.59890  Biso   1.000  C
  H150     1.0000 0.52250  0.05950  0.62520  Biso   1.000  H
  C227     1.0000 0.51520  0.10350  0.56000  Biso   1.000  C
  C228     1.0000 0.53080  0.09600  0.52380  Biso   1.000  C
  H151     1.0000 0.52050  0.12820  0.49730  Biso   1.000  H
  C229     1.0000 0.56200  0.04070  0.52580  Biso   1.000  C
  H152     1.0000 0.57220  0.03500  0.49990  Biso   1.000  H
  N78      1.0000 0.35910  0.15060  0.67810  Biso   1.000  N
  C230     1.0000 0.34940  0.20840  0.64450  Biso   1.000  C
  H153     1.0000 0.32550  0.23750  0.64020  Biso   1.000  H
  C231     1.0000 0.37310  0.22730  0.61590  Biso   1.000  C
  H154     1.0000 0.36580  0.27060  0.59310  Biso   1.000  H
  C232     1.0000 0.40720  0.18320  0.62040  Biso   1.000  C
  C233     1.0000 0.41610  0.12130  0.65460  Biso   1.000  C
  H155     1.0000 0.43910  0.08810  0.65840  Biso   1.000  H
  C234     1.0000 0.39190  0.10740  0.68330  Biso   1.000  C
  H156     1.0000 0.39880  0.06610  0.70710  Biso   1.000  H
  N79      1.0000 0.77930  0.04680  0.73040  Biso   1.000  N
  N80      1.0000 0.76400  0.18540  0.69290  Biso   1.000  N
  N81      1.0000 0.81730  0.17280  0.75440  Biso   1.000  N
  C235     1.0000 0.80740  0.08740  0.75580  Biso   1.000  C
  C236     1.0000 0.75900  0.09730  0.69770  Biso   1.000  C
  C237     1.0000 0.79370  0.22000  0.72210  Biso   1.000  C
  N82      1.0000 0.87790  0.94140  0.86180  Biso   1.000  N
  C238     1.0000 0.88410  0.02610  0.85380  Biso   1.000  C
  H157     1.0000 0.90590  0.05450  0.87110  Biso   1.000  H
  C239     1.0000 0.86030  0.07450  0.82160  Biso   1.000  C
  H158     1.0000 0.86420  0.13690  0.81930  Biso   1.000  H
  C240     1.0000 0.83160  0.03470  0.79340  Biso   1.000  C
  C241     1.0000 0.82530  0.94700  0.80070  Biso   1.000  C
  H159     1.0000 0.80510  0.91610  0.78160  Biso   1.000  H
  C242     1.0000 0.84860  0.90290  0.83620  Biso   1.000  C
  H160     1.0000 0.84300  0.84270  0.84210  Biso   1.000  H
  N83      1.0000 0.66610  0.96990  0.60940  Biso   1.000  N
  C243     1.0000 0.69080  0.92490  0.63950  Biso   1.000  C
  H161     1.0000 0.68720  0.86230  0.64140  Biso   1.000  H
  C244     1.0000 0.72140  0.96250  0.66830  Biso   1.000  C
  H162     1.0000 0.73830  0.92610  0.68890  Biso   1.000  H
  C245     1.0000 0.72730  0.05400  0.66700  Biso   1.000  C
  C246     1.0000 0.70190  0.10270  0.63550  Biso   1.000  C
  H163     1.0000 0.70480  0.16530  0.63250  Biso   1.000  H
  C247     1.0000 0.67170  0.05610  0.60790  Biso   1.000  C
  H164     1.0000 0.65410  0.08980  0.58680  Biso   1.000  H
  N84      1.0000 0.81490  0.49980  0.72370  Biso   1.000  N
  C248     1.0000 0.78420  0.46440  0.69760  Biso   1.000  C
  H165     1.0000 0.76670  0.50350  0.67940  Biso   1.000  H
  C249     1.0000 0.77630  0.37460  0.69520  Biso   1.000  C
  H166     1.0000 0.75410  0.35290  0.67550  Biso   1.000  H
  C250     1.0000 0.80060  0.31720  0.72130  Biso   1.000  C
  C251     1.0000 0.83250  0.35340  0.75120  Biso   1.000  C
  H167     1.0000 0.84950  0.31610  0.77120  Biso   1.000  H
  C252     1.0000 0.83800  0.44300  0.75060  Biso   1.000  C
  H168     1.0000 0.85970  0.46700  0.77040  Biso   1.000  H
  Zn29     1.0000 0.12299  0.40932  0.56537  Biso   1.000  Zn
  Zn30     1.0000 0.91440  0.12740  0.41230  Biso   1.000  Zn
  Zn31     1.0000 0.92900  0.89000  0.90430  Biso   1.000  Zn
  Zn32     1.0000 0.32716  0.13528  0.72602  Biso   1.000  Zn
  I78      1.0000 0.10599  0.26660  0.60141  Biso   1.000  I
  I79      1.0000 0.13630  0.42860  0.48420  Biso   1.000  I
  I80      1.0000 0.14175  0.40680  0.49170  Biso   1.000  I
  I81      1.0000 0.87872  0.23907  0.45262  Biso   1.000  I
  I82      1.0000 0.89570  0.76430  0.93992  Biso   1.000  I
  I83      1.0000 0.96703  0.16292  0.37392  Biso   1.000  I
  I84      1.0000 0.98320  0.87130  0.86515  Biso   1.000  I
  I85      1.0000 0.37351  0.16451  0.80126  Biso   1.000  I
  I86      1.0000 0.86590  0.67820  0.78810  Biso   1.000  I
  I87      1.0000 0.26790  0.22690  0.70170  Biso   1.000  I
  I88      1.0000 0.75870  0.70830  0.68650  Biso   1.000  I
  N85      1.0000 0.92560  0.77430  0.56470  Biso   1.000  N
  N86      1.0000 0.97570  0.72820  0.53020  Biso   1.000  N
  N87      1.0000 0.96200  0.64480  0.59110  Biso   1.000  N
  C253     1.0000 0.94790  0.78480  0.53630  Biso   1.000  C
  C254     1.0000 0.98250  0.66180  0.56030  Biso   1.000  C
  C255     1.0000 0.93270  0.70100  0.59030  Biso   1.000  C
  N88      1.0000 0.93150  0.01930  0.45510  Biso   1.000  N
  C256     1.0000 0.90820  0.99960  0.48140  Biso   1.000  C
  H169     1.0000 0.88800  0.03950  0.48270  Biso   1.000  H
  C257     1.0000 0.91210  0.92190  0.50740  Biso   1.000  C
  H170     1.0000 0.89390  0.90760  0.52460  Biso   1.000  H
  C258     1.0000 0.94260  0.86670  0.50780  Biso   1.000  C
  C259     1.0000 0.96800  0.88960  0.48140  Biso   1.000  C
  H171     1.0000 0.98970  0.85400  0.48140  Biso   1.000  H
  C260     1.0000 0.96070  0.96610  0.45480  Biso   1.000  C
  H172     1.0000 0.97740  0.98040  0.43590  Biso   1.000  H
  N89      1.0000 0.07850  0.49500  0.56230  Biso   1.000  N
  C261     1.0000 0.06420  0.50610  0.59670  Biso   1.000  C
  H173     1.0000 0.07670  0.47700  0.62330  Biso   1.000  H
  C262     1.0000 0.03230  0.55670  0.59890  Biso   1.000  C
  H174     1.0000 0.02250  0.55950  0.62520  Biso   1.000  H
  C263     1.0000 0.01520  0.60350  0.56000  Biso   1.000  C
  C264     1.0000 0.03080  0.59600  0.52380  Biso   1.000  C
  H175     1.0000 0.02050  0.62820  0.49730  Biso   1.000  H
  C265     1.0000 0.06200  0.54070  0.52580  Biso   1.000  C
  H176     1.0000 0.07220  0.53500  0.49990  Biso   1.000  H
  N90      1.0000 0.85910  0.65060  0.67810  Biso   1.000  N
  C266     1.0000 0.84940  0.70840  0.64450  Biso   1.000  C
  H177     1.0000 0.82550  0.73750  0.64020  Biso   1.000  H
  C267     1.0000 0.87310  0.72730  0.61590  Biso   1.000  C
  H178     1.0000 0.86580  0.77060  0.59310  Biso   1.000  H
  C268     1.0000 0.90720  0.68320  0.62040  Biso   1.000  C
  C269     1.0000 0.91610  0.62130  0.65460  Biso   1.000  C
  H179     1.0000 0.93910  0.58810  0.65840  Biso   1.000  H
  C270     1.0000 0.89190  0.60740  0.68330  Biso   1.000  C
  H180     1.0000 0.89880  0.56610  0.70710  Biso   1.000  H
  N91      1.0000 0.27930  0.54680  0.73040  Biso   1.000  N
  N92      1.0000 0.26400  0.68540  0.69290  Biso   1.000  N
  N93      1.0000 0.31730  0.67280  0.75440  Biso   1.000  N
  C271     1.0000 0.30740  0.58740  0.75580  Biso   1.000  C
  C272     1.0000 0.25900  0.59730  0.69770  Biso   1.000  C
  C273     1.0000 0.29370  0.72000  0.72210  Biso   1.000  C
  N94      1.0000 0.37790  0.44140  0.86180  Biso   1.000  N
  C274     1.0000 0.38410  0.52610  0.85380  Biso   1.000  C
  H181     1.0000 0.40590  0.55450  0.87110  Biso   1.000  H
  C275     1.0000 0.36030  0.57450  0.82160  Biso   1.000  C
  H182     1.0000 0.36420  0.63690  0.81930  Biso   1.000  H
  C276     1.0000 0.33160  0.53470  0.79340  Biso   1.000  C
  C277     1.0000 0.32530  0.44700  0.80070  Biso   1.000  C
  H183     1.0000 0.30510  0.41610  0.78160  Biso   1.000  H
  C278     1.0000 0.34860  0.40290  0.83620  Biso   1.000  C
  H184     1.0000 0.34300  0.34270  0.84210  Biso   1.000  H
  N95      1.0000 0.16610  0.46990  0.60940  Biso   1.000  N
  C279     1.0000 0.19080  0.42490  0.63950  Biso   1.000  C
  H185     1.0000 0.18720  0.36230  0.64140  Biso   1.000  H
  C280     1.0000 0.22140  0.46250  0.66830  Biso   1.000  C
  H186     1.0000 0.23830  0.42610  0.68890  Biso   1.000  H
  C281     1.0000 0.22730  0.55400  0.66700  Biso   1.000  C
  C282     1.0000 0.20190  0.60270  0.63550  Biso   1.000  C
  H187     1.0000 0.20480  0.66530  0.63250  Biso   1.000  H
  C283     1.0000 0.17170  0.55610  0.60790  Biso   1.000  C
  H188     1.0000 0.15410  0.58980  0.58680  Biso   1.000  H
  N96      1.0000 0.31490  0.99980  0.72370  Biso   1.000  N
  C284     1.0000 0.28420  0.96440  0.69760  Biso   1.000  C
  H189     1.0000 0.26670  0.00350  0.67940  Biso   1.000  H
  C285     1.0000 0.27630  0.87460  0.69520  Biso   1.000  C
  H190     1.0000 0.25410  0.85290  0.67550  Biso   1.000  H
  C286     1.0000 0.30060  0.81720  0.72130  Biso   1.000  C
  C287     1.0000 0.33250  0.85340  0.75120  Biso   1.000  C
  H191     1.0000 0.34950  0.81610  0.77120  Biso   1.000  H
  C288     1.0000 0.33800  0.94300  0.75060  Biso   1.000  C
  H192     1.0000 0.35970  0.96700  0.77040  Biso   1.000  H
