data_image0
_cell_length_a       35.316
_cell_length_b       14.7247
_cell_length_c       31.766
_cell_angle_alpha    90
_cell_angle_beta     101.906
_cell_angle_gamma    90

_symmetry_space_group_name_H-M    "P 1"
_symmetry_int_tables_number       1

loop_
  _symmetry_equiv_pos_as_xyz
  'x, y, z'

loop_
  _atom_site_label
  _atom_site_occupancy
  _atom_site_fract_x
  _atom_site_fract_y
  _atom_site_fract_z
  _atom_site_thermal_displace_type
  _atom_site_B_iso_or_equiv
  _atom_site_type_symbol
  Zn1      1.0000 0.37555  0.09258  0.43489  Biso   1.000  Zn
  Zn2      1.0000 0.58601  0.37980  0.59489  Biso   1.000  Zn
  Zn3      1.0000 0.67242  0.84858  0.27190  Biso   1.000  Zn
  I1       1.0000 0.35492  0.08869  0.50682  Biso   1.000  I
  I2       1.0000 0.39256  0.23665  0.39840  Biso   1.000  I
  I3       1.0000 0.62456  0.26466  0.56265  Biso   1.000  I
  I4       1.0000 0.52541  0.35057  0.62470  Biso   1.000  I
  I5       1.0000 0.62825  0.83335  0.19774  Biso   1.000  I
  I6       1.0000 0.73423  0.75683  0.29336  Biso   1.000  I
  N1       1.0000 0.57850  0.72360  0.43848  Biso   1.000  N
  N2       1.0000 0.52751  0.77270  0.47087  Biso   1.000  N
  N3       1.0000 0.54096  0.85110  0.41077  Biso   1.000  N
  C1       1.0000 0.55592  0.71630  0.46780  Biso   1.000  C
  C2       1.0000 0.52080  0.83700  0.44100  Biso   1.000  C
  C3       1.0000 0.57035  0.79400  0.41160  Biso   1.000  C
  N4       1.0000 0.57445  0.48690  0.55104  Biso   1.000  N
  C4       1.0000 0.60080  0.51260  0.52930  Biso   1.000  C
  H1       1.0000 0.62390  0.47790  0.53240  Biso   1.000  H
  C5       1.0000 0.59660  0.58720  0.50230  Biso   1.000  C
  H2       1.0000 0.61660  0.60440  0.48800  Biso   1.000  H
  C6       1.0000 0.56255  0.63620  0.49660  Biso   1.000  C
  C7       1.0000 0.53440  0.60960  0.51920  Biso   1.000  C
  H3       1.0000 0.51090  0.64270  0.51650  Biso   1.000  H
  C8       1.0000 0.54130  0.53490  0.54540  Biso   1.000  C
  H4       1.0000 0.52190  0.51610  0.56030  Biso   1.000  H
  N5       1.0000 0.42202  0.00670  0.43839  Biso   1.000  N
  C9       1.0000 0.43880  0.99750  0.40470  Biso   1.000  C
  H5       1.0000 0.42730  0.02800  0.37880  Biso   1.000  H
  C10      1.0000 0.47150  0.94710  0.40470  Biso   1.000  C
  H6       1.0000 0.48330  0.94650  0.38040  Biso   1.000  H
  C11      1.0000 0.48670  0.89750  0.44090  Biso   1.000  C
  C12      1.0000 0.46940  0.90360  0.47530  Biso   1.000  C
  H7       1.0000 0.47910  0.87010  0.50070  Biso   1.000  H
  C13      1.0000 0.43770  0.95840  0.47280  Biso   1.000  C
  H8       1.0000 0.42630  0.96200  0.49730  Biso   1.000  H
  N6       1.0000 0.64059  0.83000  0.31857  Biso   1.000  N
  C14      1.0000 0.65290  0.78350  0.35490  Biso   1.000  C
  H9       1.0000 0.67800  0.75750  0.35960  Biso   1.000  H
  C15      1.0000 0.63170  0.77100  0.38550  Biso   1.000  C
  H10      1.0000 0.64220  0.73800  0.41090  Biso   1.000  H
  C16      1.0000 0.59460  0.80690  0.37950  Biso   1.000  C
  C17      1.0000 0.58150  0.85510  0.34200  Biso   1.000  C
  H11      1.0000 0.55650  0.88180  0.33660  Biso   1.000  H
  C18      1.0000 0.60490  0.86410  0.31270  Biso   1.000  C
  H12      1.0000 0.59520  0.89640  0.28680  Biso   1.000  H
  N7       1.0000 0.22085  0.94710  0.27377  Biso   1.000  N
  N8       1.0000 0.23431  0.80720  0.31170  Biso   1.000  N
  N9       1.0000 0.18096  0.81940  0.25253  Biso   1.000  N
  C19      1.0000 0.19111  0.90620  0.24870  Biso   1.000  C
  C20      1.0000 0.24063  0.89520  0.30580  Biso   1.000  C
  C21      1.0000 0.20419  0.77240  0.28380  Biso   1.000  C
  N10      1.0000 0.12291  0.05260  0.14435  Biso   1.000  N
  C22      1.0000 0.11400  0.96840  0.15350  Biso   1.000  C
  H13      1.0000 0.09190  0.94080  0.13610  Biso   1.000  H
  C23      1.0000 0.13500  0.91930  0.18670  Biso   1.000  C
  H14      1.0000 0.12760  0.85900  0.19200  Biso   1.000  H
  C24      1.0000 0.16750  0.95900  0.21290  Biso   1.000  C
  C25      1.0000 0.17610  0.04750  0.20440  Biso   1.000  C
  H15      1.0000 0.19720  0.07780  0.22230  Biso   1.000  H
  C26      1.0000 0.15370  0.09220  0.16940  Biso   1.000  C
  H16      1.0000 0.16030  0.15240  0.16300  Biso   1.000  H
  N11      1.0000 0.33301  0.02750  0.39121  Biso   1.000  N
  C27      1.0000 0.31560  0.06590  0.35350  Biso   1.000  C
  H17      1.0000 0.32430  0.12380  0.34630  Biso   1.000  H
  C28      1.0000 0.28600  0.02490  0.32530  Biso   1.000  C
  H18      1.0000 0.27430  0.05430  0.29930  Biso   1.000  H
  C29      1.0000 0.27344  0.94040  0.33510  Biso   1.000  C
  C30      1.0000 0.29120  0.89940  0.37360  Biso   1.000  C
  H19      1.0000 0.28360  0.84060  0.38090  Biso   1.000  H
  C31      1.0000 0.32020  0.94600  0.40080  Biso   1.000  C
  H20      1.0000 0.33150  0.91910  0.42760  Biso   1.000  H
  N12      1.0000 0.18407  0.48710  0.27957  Biso   1.000  N
  C32      1.0000 0.21530  0.52180  0.30540  Biso   1.000  C
  H21      1.0000 0.23340  0.48150  0.32220  Biso   1.000  H
  C33      1.0000 0.22240  0.61300  0.30870  Biso   1.000  C
  H22      1.0000 0.24480  0.63500  0.32780  Biso   1.000  H
  C34      1.0000 0.19700  0.67330  0.28430  Biso   1.000  C
  C35      1.0000 0.16420  0.63700  0.25770  Biso   1.000  C
  H23      1.0000 0.14580  0.67570  0.24020  Biso   1.000  H
  C36      1.0000 0.15850  0.54460  0.25690  Biso   1.000  C
  H24      1.0000 0.13550  0.52070  0.23950  Biso   1.000  H
  I7       1.0000 0.52640  0.64980  0.11840  Biso   1.000  I
  Zn4      1.0000 0.87555  0.59258  0.43489  Biso   1.000  Zn
  Zn5      1.0000 0.08601  0.87980  0.59489  Biso   1.000  Zn
  Zn6      1.0000 0.17242  0.34858  0.27190  Biso   1.000  Zn
  I8       1.0000 0.85492  0.58869  0.50682  Biso   1.000  I
  I9       1.0000 0.89256  0.73665  0.39840  Biso   1.000  I
  I10      1.0000 0.12456  0.76466  0.56265  Biso   1.000  I
  I11      1.0000 0.02541  0.85057  0.62470  Biso   1.000  I
  I12      1.0000 0.12825  0.33335  0.19774  Biso   1.000  I
  I13      1.0000 0.23423  0.25683  0.29336  Biso   1.000  I
  N13      1.0000 0.07850  0.22360  0.43848  Biso   1.000  N
  N14      1.0000 0.02751  0.27270  0.47087  Biso   1.000  N
  N15      1.0000 0.04096  0.35110  0.41077  Biso   1.000  N
  C37      1.0000 0.05592  0.21630  0.46780  Biso   1.000  C
  C38      1.0000 0.02080  0.33700  0.44100  Biso   1.000  C
  C39      1.0000 0.07035  0.29400  0.41160  Biso   1.000  C
  N16      1.0000 0.07445  0.98690  0.55104  Biso   1.000  N
  C40      1.0000 0.10080  0.01260  0.52930  Biso   1.000  C
  H25      1.0000 0.12390  0.97790  0.53240  Biso   1.000  H
  C41      1.0000 0.09660  0.08720  0.50230  Biso   1.000  C
  H26      1.0000 0.11660  0.10440  0.48800  Biso   1.000  H
  C42      1.0000 0.06255  0.13620  0.49660  Biso   1.000  C
  C43      1.0000 0.03440  0.10960  0.51920  Biso   1.000  C
  H27      1.0000 0.01090  0.14270  0.51650  Biso   1.000  H
  C44      1.0000 0.04130  0.03490  0.54540  Biso   1.000  C
  H28      1.0000 0.02190  0.01610  0.56030  Biso   1.000  H
  N17      1.0000 0.92202  0.50670  0.43839  Biso   1.000  N
  C45      1.0000 0.93880  0.49750  0.40470  Biso   1.000  C
  H29      1.0000 0.92730  0.52800  0.37880  Biso   1.000  H
  C46      1.0000 0.97150  0.44710  0.40470  Biso   1.000  C
  H30      1.0000 0.98330  0.44650  0.38040  Biso   1.000  H
  C47      1.0000 0.98670  0.39750  0.44090  Biso   1.000  C
  C48      1.0000 0.96940  0.40360  0.47530  Biso   1.000  C
  H31      1.0000 0.97910  0.37010  0.50070  Biso   1.000  H
  C49      1.0000 0.93770  0.45840  0.47280  Biso   1.000  C
  H32      1.0000 0.92630  0.46200  0.49730  Biso   1.000  H
  N18      1.0000 0.14059  0.33000  0.31857  Biso   1.000  N
  C50      1.0000 0.15290  0.28350  0.35490  Biso   1.000  C
  H33      1.0000 0.17800  0.25750  0.35960  Biso   1.000  H
  C51      1.0000 0.13170  0.27100  0.38550  Biso   1.000  C
  H34      1.0000 0.14220  0.23800  0.41090  Biso   1.000  H
  C52      1.0000 0.09460  0.30690  0.37950  Biso   1.000  C
  C53      1.0000 0.08150  0.35510  0.34200  Biso   1.000  C
  H35      1.0000 0.05650  0.38180  0.33660  Biso   1.000  H
  C54      1.0000 0.10490  0.36410  0.31270  Biso   1.000  C
  H36      1.0000 0.09520  0.39640  0.28680  Biso   1.000  H
  N19      1.0000 0.72085  0.44710  0.27377  Biso   1.000  N
  N20      1.0000 0.73431  0.30720  0.31170  Biso   1.000  N
  N21      1.0000 0.68096  0.31940  0.25253  Biso   1.000  N
  C55      1.0000 0.69111  0.40620  0.24870  Biso   1.000  C
  C56      1.0000 0.74063  0.39520  0.30580  Biso   1.000  C
  C57      1.0000 0.70419  0.27240  0.28380  Biso   1.000  C
  N22      1.0000 0.62291  0.55260  0.14435  Biso   1.000  N
  C58      1.0000 0.61400  0.46840  0.15350  Biso   1.000  C
  H37      1.0000 0.59190  0.44080  0.13610  Biso   1.000  H
  C59      1.0000 0.63500  0.41930  0.18670  Biso   1.000  C
  H38      1.0000 0.62760  0.35900  0.19200  Biso   1.000  H
  C60      1.0000 0.66750  0.45900  0.21290  Biso   1.000  C
  C61      1.0000 0.67610  0.54750  0.20440  Biso   1.000  C
  H39      1.0000 0.69720  0.57780  0.22230  Biso   1.000  H
  C62      1.0000 0.65370  0.59220  0.16940  Biso   1.000  C
  H40      1.0000 0.66030  0.65240  0.16300  Biso   1.000  H
  N23      1.0000 0.83301  0.52750  0.39121  Biso   1.000  N
  C63      1.0000 0.81560  0.56590  0.35350  Biso   1.000  C
  H41      1.0000 0.82430  0.62380  0.34630  Biso   1.000  H
  C64      1.0000 0.78600  0.52490  0.32530  Biso   1.000  C
  H42      1.0000 0.77430  0.55430  0.29930  Biso   1.000  H
  C65      1.0000 0.77344  0.44040  0.33510  Biso   1.000  C
  C66      1.0000 0.79120  0.39940  0.37360  Biso   1.000  C
  H43      1.0000 0.78360  0.34060  0.38090  Biso   1.000  H
  C67      1.0000 0.82020  0.44600  0.40080  Biso   1.000  C
  H44      1.0000 0.83150  0.41910  0.42760  Biso   1.000  H
  N24      1.0000 0.68407  0.98710  0.27957  Biso   1.000  N
  C68      1.0000 0.71530  0.02180  0.30540  Biso   1.000  C
  H45      1.0000 0.73340  0.98150  0.32220  Biso   1.000  H
  C69      1.0000 0.72240  0.11300  0.30870  Biso   1.000  C
  H46      1.0000 0.74480  0.13500  0.32780  Biso   1.000  H
  C70      1.0000 0.69700  0.17330  0.28430  Biso   1.000  C
  C71      1.0000 0.66420  0.13700  0.25770  Biso   1.000  C
  H47      1.0000 0.64580  0.17570  0.24020  Biso   1.000  H
  C72      1.0000 0.65850  0.04460  0.25690  Biso   1.000  C
  H48      1.0000 0.63550  0.02070  0.23950  Biso   1.000  H
  I14      1.0000 0.02640  0.14980  0.11840  Biso   1.000  I
  Zn7      1.0000 0.37555  0.90742  0.93489  Biso   1.000  Zn
  Zn8      1.0000 0.58601  0.62020  0.09489  Biso   1.000  Zn
  Zn9      1.0000 0.67242  0.15142  0.77190  Biso   1.000  Zn
  I15      1.0000 0.35492  0.91131  0.00682  Biso   1.000  I
  I16      1.0000 0.39256  0.76335  0.89840  Biso   1.000  I
  I17      1.0000 0.62456  0.73534  0.06265  Biso   1.000  I
  I18      1.0000 0.52541  0.64943  0.12470  Biso   1.000  I
  I19      1.0000 0.62825  0.16665  0.69774  Biso   1.000  I
  I20      1.0000 0.73423  0.24317  0.79335  Biso   1.000  I
  N25      1.0000 0.57850  0.27640  0.93848  Biso   1.000  N
  N26      1.0000 0.52751  0.22730  0.97087  Biso   1.000  N
  N27      1.0000 0.54096  0.14890  0.91077  Biso   1.000  N
  C73      1.0000 0.55592  0.28370  0.96780  Biso   1.000  C
  C74      1.0000 0.52080  0.16300  0.94100  Biso   1.000  C
  C75      1.0000 0.57035  0.20600  0.91160  Biso   1.000  C
  N28      1.0000 0.57445  0.51310  0.05104  Biso   1.000  N
  C76      1.0000 0.60080  0.48740  0.02930  Biso   1.000  C
  H49      1.0000 0.62390  0.52210  0.03240  Biso   1.000  H
  C77      1.0000 0.59660  0.41280  0.00230  Biso   1.000  C
  H50      1.0000 0.61660  0.39560  0.98800  Biso   1.000  H
  C78      1.0000 0.56255  0.36380  0.99660  Biso   1.000  C
  C79      1.0000 0.53440  0.39040  0.01920  Biso   1.000  C
  H51      1.0000 0.51090  0.35730  0.01650  Biso   1.000  H
  C80      1.0000 0.54130  0.46510  0.04540  Biso   1.000  C
  H52      1.0000 0.52190  0.48390  0.06030  Biso   1.000  H
  N29      1.0000 0.42202  0.99330  0.93839  Biso   1.000  N
  C81      1.0000 0.43880  0.00250  0.90470  Biso   1.000  C
  H53      1.0000 0.42730  0.97200  0.87880  Biso   1.000  H
  C82      1.0000 0.47150  0.05290  0.90470  Biso   1.000  C
  H54      1.0000 0.48330  0.05350  0.88040  Biso   1.000  H
  C83      1.0000 0.48670  0.10250  0.94090  Biso   1.000  C
  C84      1.0000 0.46940  0.09640  0.97530  Biso   1.000  C
  H55      1.0000 0.47910  0.12990  0.00070  Biso   1.000  H
  C85      1.0000 0.43770  0.04160  0.97280  Biso   1.000  C
  H56      1.0000 0.42630  0.03800  0.99730  Biso   1.000  H
  N30      1.0000 0.64059  0.17000  0.81857  Biso   1.000  N
  C86      1.0000 0.65290  0.21650  0.85490  Biso   1.000  C
  H57      1.0000 0.67800  0.24250  0.85960  Biso   1.000  H
  C87      1.0000 0.63170  0.22900  0.88550  Biso   1.000  C
  H58      1.0000 0.64220  0.26200  0.91090  Biso   1.000  H
  C88      1.0000 0.59460  0.19310  0.87950  Biso   1.000  C
  C89      1.0000 0.58150  0.14490  0.84200  Biso   1.000  C
  H59      1.0000 0.55650  0.11820  0.83660  Biso   1.000  H
  C90      1.0000 0.60490  0.13590  0.81270  Biso   1.000  C
  H60      1.0000 0.59520  0.10360  0.78680  Biso   1.000  H
  N31      1.0000 0.22085  0.05290  0.77377  Biso   1.000  N
  N32      1.0000 0.23431  0.19280  0.81170  Biso   1.000  N
  N33      1.0000 0.18096  0.18060  0.75253  Biso   1.000  N
  C91      1.0000 0.19111  0.09380  0.74870  Biso   1.000  C
  C92      1.0000 0.24063  0.10480  0.80580  Biso   1.000  C
  C93      1.0000 0.20419  0.22760  0.78380  Biso   1.000  C
  N34      1.0000 0.12291  0.94740  0.64435  Biso   1.000  N
  C94      1.0000 0.11400  0.03160  0.65350  Biso   1.000  C
  H61      1.0000 0.09190  0.05920  0.63610  Biso   1.000  H
  C95      1.0000 0.13500  0.08070  0.68670  Biso   1.000  C
  H62      1.0000 0.12760  0.14100  0.69200  Biso   1.000  H
  C96      1.0000 0.16750  0.04100  0.71290  Biso   1.000  C
  C97      1.0000 0.17610  0.95250  0.70440  Biso   1.000  C
  H63      1.0000 0.19720  0.92220  0.72230  Biso   1.000  H
  C98      1.0000 0.15370  0.90780  0.66940  Biso   1.000  C
  H64      1.0000 0.16030  0.84760  0.66300  Biso   1.000  H
  N35      1.0000 0.33301  0.97250  0.89121  Biso   1.000  N
  C99      1.0000 0.31560  0.93410  0.85350  Biso   1.000  C
  H65      1.0000 0.32430  0.87620  0.84630  Biso   1.000  H
  C100     1.0000 0.28600  0.97510  0.82530  Biso   1.000  C
  H66      1.0000 0.27430  0.94570  0.79930  Biso   1.000  H
  C101     1.0000 0.27344  0.05960  0.83510  Biso   1.000  C
  C102     1.0000 0.29120  0.10060  0.87360  Biso   1.000  C
  H67      1.0000 0.28360  0.15940  0.88090  Biso   1.000  H
  C103     1.0000 0.32020  0.05400  0.90080  Biso   1.000  C
  H68      1.0000 0.33150  0.08090  0.92760  Biso   1.000  H
  N36      1.0000 0.18407  0.51290  0.77957  Biso   1.000  N
  C104     1.0000 0.21530  0.47820  0.80540  Biso   1.000  C
  H69      1.0000 0.23340  0.51850  0.82220  Biso   1.000  H
  C105     1.0000 0.22240  0.38700  0.80870  Biso   1.000  C
  H70      1.0000 0.24480  0.36500  0.82780  Biso   1.000  H
  C106     1.0000 0.19700  0.32670  0.78430  Biso   1.000  C
  C107     1.0000 0.16420  0.36300  0.75770  Biso   1.000  C
  H71      1.0000 0.14580  0.32430  0.74020  Biso   1.000  H
  C108     1.0000 0.15850  0.45540  0.75690  Biso   1.000  C
  H72      1.0000 0.13550  0.47930  0.73950  Biso   1.000  H
  I21      1.0000 0.52640  0.35020  0.61840  Biso   1.000  I
  Zn10     1.0000 0.87555  0.40742  0.93489  Biso   1.000  Zn
  Zn11     1.0000 0.08601  0.12020  0.09489  Biso   1.000  Zn
  Zn12     1.0000 0.17242  0.65142  0.77190  Biso   1.000  Zn
  I22      1.0000 0.85492  0.41131  0.00682  Biso   1.000  I
  I23      1.0000 0.89256  0.26335  0.89840  Biso   1.000  I
  I24      1.0000 0.12456  0.23534  0.06265  Biso   1.000  I
  I25      1.0000 0.02541  0.14943  0.12470  Biso   1.000  I
  I26      1.0000 0.12825  0.66665  0.69774  Biso   1.000  I
  I27      1.0000 0.23423  0.74317  0.79336  Biso   1.000  I
  N37      1.0000 0.07850  0.77640  0.93848  Biso   1.000  N
  N38      1.0000 0.02751  0.72730  0.97087  Biso   1.000  N
  N39      1.0000 0.04096  0.64890  0.91077  Biso   1.000  N
  C109     1.0000 0.05592  0.78370  0.96780  Biso   1.000  C
  C110     1.0000 0.02080  0.66300  0.94100  Biso   1.000  C
  C111     1.0000 0.07035  0.70600  0.91160  Biso   1.000  C
  N40      1.0000 0.07445  0.01310  0.05104  Biso   1.000  N
  C112     1.0000 0.10080  0.98740  0.02930  Biso   1.000  C
  H73      1.0000 0.12390  0.02210  0.03240  Biso   1.000  H
  C113     1.0000 0.09660  0.91280  0.00230  Biso   1.000  C
  H74      1.0000 0.11660  0.89560  0.98800  Biso   1.000  H
  C114     1.0000 0.06255  0.86380  0.99660  Biso   1.000  C
  C115     1.0000 0.03440  0.89040  0.01920  Biso   1.000  C
  H75      1.0000 0.01090  0.85730  0.01650  Biso   1.000  H
  C116     1.0000 0.04130  0.96510  0.04540  Biso   1.000  C
  H76      1.0000 0.02190  0.98390  0.06030  Biso   1.000  H
  N41      1.0000 0.92202  0.49330  0.93839  Biso   1.000  N
  C117     1.0000 0.93880  0.50250  0.90470  Biso   1.000  C
  H77      1.0000 0.92730  0.47200  0.87880  Biso   1.000  H
  C118     1.0000 0.97150  0.55290  0.90470  Biso   1.000  C
  H78      1.0000 0.98330  0.55350  0.88040  Biso   1.000  H
  C119     1.0000 0.98670  0.60250  0.94090  Biso   1.000  C
  C120     1.0000 0.96940  0.59640  0.97530  Biso   1.000  C
  H79      1.0000 0.97910  0.62990  0.00070  Biso   1.000  H
  C121     1.0000 0.93770  0.54160  0.97280  Biso   1.000  C
  H80      1.0000 0.92630  0.53800  0.99730  Biso   1.000  H
  N42      1.0000 0.14059  0.67000  0.81857  Biso   1.000  N
  C122     1.0000 0.15290  0.71650  0.85490  Biso   1.000  C
  H81      1.0000 0.17800  0.74250  0.85960  Biso   1.000  H
  C123     1.0000 0.13170  0.72900  0.88550  Biso   1.000  C
  H82      1.0000 0.14220  0.76200  0.91090  Biso   1.000  H
  C124     1.0000 0.09460  0.69310  0.87950  Biso   1.000  C
  C125     1.0000 0.08150  0.64490  0.84200  Biso   1.000  C
  H83      1.0000 0.05650  0.61820  0.83660  Biso   1.000  H
  C126     1.0000 0.10490  0.63590  0.81270  Biso   1.000  C
  H84      1.0000 0.09520  0.60360  0.78680  Biso   1.000  H
  N43      1.0000 0.72085  0.55290  0.77377  Biso   1.000  N
  N44      1.0000 0.73431  0.69280  0.81170  Biso   1.000  N
  N45      1.0000 0.68096  0.68060  0.75253  Biso   1.000  N
  C127     1.0000 0.69111  0.59380  0.74870  Biso   1.000  C
  C128     1.0000 0.74063  0.60480  0.80580  Biso   1.000  C
  C129     1.0000 0.70419  0.72760  0.78380  Biso   1.000  C
  N46      1.0000 0.62291  0.44740  0.64435  Biso   1.000  N
  C130     1.0000 0.61400  0.53160  0.65350  Biso   1.000  C
  H85      1.0000 0.59190  0.55920  0.63610  Biso   1.000  H
  C131     1.0000 0.63500  0.58070  0.68670  Biso   1.000  C
  H86      1.0000 0.62760  0.64100  0.69200  Biso   1.000  H
  C132     1.0000 0.66750  0.54100  0.71290  Biso   1.000  C
  C133     1.0000 0.67610  0.45250  0.70440  Biso   1.000  C
  H87      1.0000 0.69720  0.42220  0.72230  Biso   1.000  H
  C134     1.0000 0.65370  0.40780  0.66940  Biso   1.000  C
  H88      1.0000 0.66030  0.34760  0.66300  Biso   1.000  H
  N47      1.0000 0.83301  0.47250  0.89121  Biso   1.000  N
  C135     1.0000 0.81560  0.43410  0.85350  Biso   1.000  C
  H89      1.0000 0.82430  0.37620  0.84630  Biso   1.000  H
  C136     1.0000 0.78600  0.47510  0.82530  Biso   1.000  C
  H90      1.0000 0.77430  0.44570  0.79930  Biso   1.000  H
  C137     1.0000 0.77344  0.55960  0.83510  Biso   1.000  C
  C138     1.0000 0.79120  0.60060  0.87360  Biso   1.000  C
  H91      1.0000 0.78360  0.65940  0.88090  Biso   1.000  H
  C139     1.0000 0.82020  0.55400  0.90080  Biso   1.000  C
  H92      1.0000 0.83150  0.58090  0.92760  Biso   1.000  H
  N48      1.0000 0.68407  0.01290  0.77957  Biso   1.000  N
  C140     1.0000 0.71530  0.97820  0.80540  Biso   1.000  C
  H93      1.0000 0.73340  0.01850  0.82220  Biso   1.000  H
  C141     1.0000 0.72240  0.88700  0.80870  Biso   1.000  C
  H94      1.0000 0.74480  0.86500  0.82780  Biso   1.000  H
  C142     1.0000 0.69700  0.82670  0.78430  Biso   1.000  C
  C143     1.0000 0.66420  0.86300  0.75770  Biso   1.000  C
  H95      1.0000 0.64580  0.82430  0.74020  Biso   1.000  H
  C144     1.0000 0.65850  0.95540  0.75690  Biso   1.000  C
  H96      1.0000 0.63550  0.97930  0.73950  Biso   1.000  H
  I28      1.0000 0.02640  0.85020  0.61840  Biso   1.000  I
  Zn13     1.0000 0.62445  0.09258  0.06511  Biso   1.000  Zn
  Zn14     1.0000 0.41399  0.37980  0.90511  Biso   1.000  Zn
  Zn15     1.0000 0.32758  0.84858  0.22810  Biso   1.000  Zn
  I29      1.0000 0.64508  0.08869  0.99318  Biso   1.000  I
  I30      1.0000 0.60744  0.23665  0.10160  Biso   1.000  I
  I31      1.0000 0.37544  0.26466  0.93735  Biso   1.000  I
  I32      1.0000 0.47459  0.35057  0.87530  Biso   1.000  I
  I33      1.0000 0.37175  0.83335  0.30226  Biso   1.000  I
  I34      1.0000 0.26577  0.75683  0.20665  Biso   1.000  I
  N49      1.0000 0.42150  0.72360  0.06152  Biso   1.000  N
  N50      1.0000 0.47249  0.77270  0.02913  Biso   1.000  N
  N51      1.0000 0.45904  0.85110  0.08923  Biso   1.000  N
  C145     1.0000 0.44408  0.71630  0.03220  Biso   1.000  C
  C146     1.0000 0.47920  0.83700  0.05900  Biso   1.000  C
  C147     1.0000 0.42965  0.79400  0.08840  Biso   1.000  C
  N52      1.0000 0.42555  0.48690  0.94896  Biso   1.000  N
  C148     1.0000 0.39920  0.51260  0.97070  Biso   1.000  C
  H97      1.0000 0.37610  0.47790  0.96760  Biso   1.000  H
  C149     1.0000 0.40340  0.58720  0.99770  Biso   1.000  C
  H98      1.0000 0.38340  0.60440  0.01200  Biso   1.000  H
  C150     1.0000 0.43745  0.63620  0.00340  Biso   1.000  C
  C151     1.0000 0.46560  0.60960  0.98080  Biso   1.000  C
  H99      1.0000 0.48910  0.64270  0.98350  Biso   1.000  H
  C152     1.0000 0.45870  0.53490  0.95460  Biso   1.000  C
  H100     1.0000 0.47810  0.51610  0.93970  Biso   1.000  H
  N53      1.0000 0.57798  0.00670  0.06161  Biso   1.000  N
  C153     1.0000 0.56120  0.99750  0.09530  Biso   1.000  C
  H101     1.0000 0.57270  0.02800  0.12120  Biso   1.000  H
  C154     1.0000 0.52850  0.94710  0.09530  Biso   1.000  C
  H102     1.0000 0.51670  0.94650  0.11960  Biso   1.000  H
  C155     1.0000 0.51330  0.89750  0.05910  Biso   1.000  C
  C156     1.0000 0.53060  0.90360  0.02470  Biso   1.000  C
  H103     1.0000 0.52090  0.87010  0.99930  Biso   1.000  H
  C157     1.0000 0.56230  0.95840  0.02720  Biso   1.000  C
  H104     1.0000 0.57370  0.96200  0.00270  Biso   1.000  H
  N54      1.0000 0.35941  0.83000  0.18143  Biso   1.000  N
  C158     1.0000 0.34710  0.78350  0.14510  Biso   1.000  C
  H105     1.0000 0.32200  0.75750  0.14040  Biso   1.000  H
  C159     1.0000 0.36830  0.77100  0.11450  Biso   1.000  C
  H106     1.0000 0.35780  0.73800  0.08910  Biso   1.000  H
  C160     1.0000 0.40540  0.80690  0.12050  Biso   1.000  C
  C161     1.0000 0.41850  0.85510  0.15800  Biso   1.000  C
  H107     1.0000 0.44350  0.88180  0.16340  Biso   1.000  H
  C162     1.0000 0.39510  0.86410  0.18730  Biso   1.000  C
  H108     1.0000 0.40480  0.89640  0.21320  Biso   1.000  H
  N55      1.0000 0.77915  0.94710  0.22623  Biso   1.000  N
  N56      1.0000 0.76569  0.80720  0.18830  Biso   1.000  N
  N57      1.0000 0.81904  0.81940  0.24747  Biso   1.000  N
  C163     1.0000 0.80889  0.90620  0.25130  Biso   1.000  C
  C164     1.0000 0.75937  0.89520  0.19420  Biso   1.000  C
  C165     1.0000 0.79581  0.77240  0.21620  Biso   1.000  C
  N58      1.0000 0.87709  0.05260  0.35565  Biso   1.000  N
  C166     1.0000 0.88600  0.96840  0.34650  Biso   1.000  C
  H109     1.0000 0.90810  0.94080  0.36390  Biso   1.000  H
  C167     1.0000 0.86500  0.91930  0.31330  Biso   1.000  C
  H110     1.0000 0.87240  0.85900  0.30800  Biso   1.000  H
  C168     1.0000 0.83250  0.95900  0.28710  Biso   1.000  C
  C169     1.0000 0.82390  0.04750  0.29560  Biso   1.000  C
  H111     1.0000 0.80280  0.07780  0.27770  Biso   1.000  H
  C170     1.0000 0.84630  0.09220  0.33060  Biso   1.000  C
  H112     1.0000 0.83970  0.15240  0.33700  Biso   1.000  H
  N59      1.0000 0.66699  0.02750  0.10879  Biso   1.000  N
  C171     1.0000 0.68440  0.06590  0.14650  Biso   1.000  C
  H113     1.0000 0.67570  0.12380  0.15370  Biso   1.000  H
  C172     1.0000 0.71400  0.02490  0.17470  Biso   1.000  C
  H114     1.0000 0.72570  0.05430  0.20070  Biso   1.000  H
  C173     1.0000 0.72656  0.94040  0.16490  Biso   1.000  C
  C174     1.0000 0.70880  0.89940  0.12640  Biso   1.000  C
  H115     1.0000 0.71640  0.84060  0.11910  Biso   1.000  H
  C175     1.0000 0.67980  0.94600  0.09920  Biso   1.000  C
  H116     1.0000 0.66850  0.91910  0.07240  Biso   1.000  H
  N60      1.0000 0.81593  0.48710  0.22043  Biso   1.000  N
  C176     1.0000 0.78470  0.52180  0.19460  Biso   1.000  C
  H117     1.0000 0.76660  0.48150  0.17780  Biso   1.000  H
  C177     1.0000 0.77760  0.61300  0.19130  Biso   1.000  C
  H118     1.0000 0.75520  0.63500  0.17220  Biso   1.000  H
  C178     1.0000 0.80300  0.67330  0.21570  Biso   1.000  C
  C179     1.0000 0.83580  0.63700  0.24230  Biso   1.000  C
  H119     1.0000 0.85420  0.67570  0.25980  Biso   1.000  H
  C180     1.0000 0.84150  0.54460  0.24310  Biso   1.000  C
  H120     1.0000 0.86450  0.52070  0.26050  Biso   1.000  H
  I35      1.0000 0.47360  0.64980  0.38160  Biso   1.000  I
  Zn16     1.0000 0.12445  0.59258  0.06511  Biso   1.000  Zn
  Zn17     1.0000 0.91399  0.87980  0.90511  Biso   1.000  Zn
  Zn18     1.0000 0.82758  0.34858  0.22810  Biso   1.000  Zn
  I36      1.0000 0.14508  0.58869  0.99318  Biso   1.000  I
  I37      1.0000 0.10744  0.73665  0.10160  Biso   1.000  I
  I38      1.0000 0.87544  0.76466  0.93735  Biso   1.000  I
  I39      1.0000 0.97459  0.85057  0.87530  Biso   1.000  I
  I40      1.0000 0.87175  0.33335  0.30226  Biso   1.000  I
  I41      1.0000 0.76577  0.25683  0.20664  Biso   1.000  I
  N61      1.0000 0.92150  0.22360  0.06152  Biso   1.000  N
  N62      1.0000 0.97249  0.27270  0.02913  Biso   1.000  N
  N63      1.0000 0.95904  0.35110  0.08923  Biso   1.000  N
  C181     1.0000 0.94408  0.21630  0.03220  Biso   1.000  C
  C182     1.0000 0.97920  0.33700  0.05900  Biso   1.000  C
  C183     1.0000 0.92965  0.29400  0.08840  Biso   1.000  C
  N64      1.0000 0.92555  0.98690  0.94896  Biso   1.000  N
  C184     1.0000 0.89920  0.01260  0.97070  Biso   1.000  C
  H121     1.0000 0.87610  0.97790  0.96760  Biso   1.000  H
  C185     1.0000 0.90340  0.08720  0.99770  Biso   1.000  C
  H122     1.0000 0.88340  0.10440  0.01200  Biso   1.000  H
  C186     1.0000 0.93745  0.13620  0.00340  Biso   1.000  C
  C187     1.0000 0.96560  0.10960  0.98080  Biso   1.000  C
  H123     1.0000 0.98910  0.14270  0.98350  Biso   1.000  H
  C188     1.0000 0.95870  0.03490  0.95460  Biso   1.000  C
  H124     1.0000 0.97810  0.01610  0.93970  Biso   1.000  H
  N65      1.0000 0.07798  0.50670  0.06161  Biso   1.000  N
  C189     1.0000 0.06120  0.49750  0.09530  Biso   1.000  C
  H125     1.0000 0.07270  0.52800  0.12120  Biso   1.000  H
  C190     1.0000 0.02850  0.44710  0.09530  Biso   1.000  C
  H126     1.0000 0.01670  0.44650  0.11960  Biso   1.000  H
  C191     1.0000 0.01330  0.39750  0.05910  Biso   1.000  C
  C192     1.0000 0.03060  0.40360  0.02470  Biso   1.000  C
  H127     1.0000 0.02090  0.37010  0.99930  Biso   1.000  H
  C193     1.0000 0.06230  0.45840  0.02720  Biso   1.000  C
  H128     1.0000 0.07370  0.46200  0.00270  Biso   1.000  H
  N66      1.0000 0.85941  0.33000  0.18143  Biso   1.000  N
  C194     1.0000 0.84710  0.28350  0.14510  Biso   1.000  C
  H129     1.0000 0.82200  0.25750  0.14040  Biso   1.000  H
  C195     1.0000 0.86830  0.27100  0.11450  Biso   1.000  C
  H130     1.0000 0.85780  0.23800  0.08910  Biso   1.000  H
  C196     1.0000 0.90540  0.30690  0.12050  Biso   1.000  C
  C197     1.0000 0.91850  0.35510  0.15800  Biso   1.000  C
  H131     1.0000 0.94350  0.38180  0.16340  Biso   1.000  H
  C198     1.0000 0.89510  0.36410  0.18730  Biso   1.000  C
  H132     1.0000 0.90480  0.39640  0.21320  Biso   1.000  H
  N67      1.0000 0.27915  0.44710  0.22623  Biso   1.000  N
  N68      1.0000 0.26569  0.30720  0.18830  Biso   1.000  N
  N69      1.0000 0.31904  0.31940  0.24747  Biso   1.000  N
  C199     1.0000 0.30889  0.40620  0.25130  Biso   1.000  C
  C200     1.0000 0.25937  0.39520  0.19420  Biso   1.000  C
  C201     1.0000 0.29581  0.27240  0.21620  Biso   1.000  C
  N70      1.0000 0.37709  0.55260  0.35565  Biso   1.000  N
  C202     1.0000 0.38600  0.46840  0.34650  Biso   1.000  C
  H133     1.0000 0.40810  0.44080  0.36390  Biso   1.000  H
  C203     1.0000 0.36500  0.41930  0.31330  Biso   1.000  C
  H134     1.0000 0.37240  0.35900  0.30800  Biso   1.000  H
  C204     1.0000 0.33250  0.45900  0.28710  Biso   1.000  C
  C205     1.0000 0.32390  0.54750  0.29560  Biso   1.000  C
  H135     1.0000 0.30280  0.57780  0.27770  Biso   1.000  H
  C206     1.0000 0.34630  0.59220  0.33060  Biso   1.000  C
  H136     1.0000 0.33970  0.65240  0.33700  Biso   1.000  H
  N71      1.0000 0.16699  0.52750  0.10879  Biso   1.000  N
  C207     1.0000 0.18440  0.56590  0.14650  Biso   1.000  C
  H137     1.0000 0.17570  0.62380  0.15370  Biso   1.000  H
  C208     1.0000 0.21400  0.52490  0.17470  Biso   1.000  C
  H138     1.0000 0.22570  0.55430  0.20070  Biso   1.000  H
  C209     1.0000 0.22656  0.44040  0.16490  Biso   1.000  C
  C210     1.0000 0.20880  0.39940  0.12640  Biso   1.000  C
  H139     1.0000 0.21640  0.34060  0.11910  Biso   1.000  H
  C211     1.0000 0.17980  0.44600  0.09920  Biso   1.000  C
  H140     1.0000 0.16850  0.41910  0.07240  Biso   1.000  H
  N72      1.0000 0.31593  0.98710  0.22043  Biso   1.000  N
  C212     1.0000 0.28470  0.02180  0.19460  Biso   1.000  C
  H141     1.0000 0.26660  0.98150  0.17780  Biso   1.000  H
  C213     1.0000 0.27760  0.11300  0.19130  Biso   1.000  C
  H142     1.0000 0.25520  0.13500  0.17220  Biso   1.000  H
  C214     1.0000 0.30300  0.17330  0.21570  Biso   1.000  C
  C215     1.0000 0.33580  0.13700  0.24230  Biso   1.000  C
  H143     1.0000 0.35420  0.17570  0.25980  Biso   1.000  H
  C216     1.0000 0.34150  0.04460  0.24310  Biso   1.000  C
  H144     1.0000 0.36450  0.02070  0.26050  Biso   1.000  H
  I42      1.0000 0.97360  0.14980  0.38160  Biso   1.000  I
  Zn19     1.0000 0.62445  0.90742  0.56511  Biso   1.000  Zn
  Zn20     1.0000 0.41399  0.62020  0.40511  Biso   1.000  Zn
  Zn21     1.0000 0.32758  0.15142  0.72810  Biso   1.000  Zn
  I43      1.0000 0.64508  0.91131  0.49318  Biso   1.000  I
  I44      1.0000 0.60744  0.76335  0.60160  Biso   1.000  I
  I45      1.0000 0.37544  0.73534  0.43735  Biso   1.000  I
  I46      1.0000 0.47459  0.64943  0.37530  Biso   1.000  I
  I47      1.0000 0.37175  0.16665  0.80226  Biso   1.000  I
  I48      1.0000 0.26577  0.24317  0.70664  Biso   1.000  I
  N73      1.0000 0.42150  0.27640  0.56152  Biso   1.000  N
  N74      1.0000 0.47249  0.22730  0.52913  Biso   1.000  N
  N75      1.0000 0.45904  0.14890  0.58923  Biso   1.000  N
  C217     1.0000 0.44408  0.28370  0.53220  Biso   1.000  C
  C218     1.0000 0.47920  0.16300  0.55900  Biso   1.000  C
  C219     1.0000 0.42965  0.20600  0.58840  Biso   1.000  C
  N76      1.0000 0.42555  0.51310  0.44896  Biso   1.000  N
  C220     1.0000 0.39920  0.48740  0.47070  Biso   1.000  C
  H145     1.0000 0.37610  0.52210  0.46760  Biso   1.000  H
  C221     1.0000 0.40340  0.41280  0.49770  Biso   1.000  C
  H146     1.0000 0.38340  0.39560  0.51200  Biso   1.000  H
  C222     1.0000 0.43745  0.36380  0.50340  Biso   1.000  C
  C223     1.0000 0.46560  0.39040  0.48080  Biso   1.000  C
  H147     1.0000 0.48910  0.35730  0.48350  Biso   1.000  H
  C224     1.0000 0.45870  0.46510  0.45460  Biso   1.000  C
  H148     1.0000 0.47810  0.48390  0.43970  Biso   1.000  H
  N77      1.0000 0.57798  0.99330  0.56161  Biso   1.000  N
  C225     1.0000 0.56120  0.00250  0.59530  Biso   1.000  C
  H149     1.0000 0.57270  0.97200  0.62120  Biso   1.000  H
  C226     1.0000 0.52850  0.05290  0.59530  Biso   1.000  C
  H150     1.0000 0.51670  0.05350  0.61960  Biso   1.000  H
  C227     1.0000 0.51330  0.10250  0.55910  Biso   1.000  C
  C228     1.0000 0.53060  0.09640  0.52470  Biso   1.000  C
  H151     1.0000 0.52090  0.12990  0.49930  Biso   1.000  H
  C229     1.0000 0.56230  0.04160  0.52720  Biso   1.000  C
  H152     1.0000 0.57370  0.03800  0.50270  Biso   1.000  H
  N78      1.0000 0.35941  0.17000  0.68143  Biso   1.000  N
  C230     1.0000 0.34710  0.21650  0.64510  Biso   1.000  C
  H153     1.0000 0.32200  0.24250  0.64040  Biso   1.000  H
  C231     1.0000 0.36830  0.22900  0.61450  Biso   1.000  C
  H154     1.0000 0.35780  0.26200  0.58910  Biso   1.000  H
  C232     1.0000 0.40540  0.19310  0.62050  Biso   1.000  C
  C233     1.0000 0.41850  0.14490  0.65800  Biso   1.000  C
  H155     1.0000 0.44350  0.11820  0.66340  Biso   1.000  H
  C234     1.0000 0.39510  0.13590  0.68730  Biso   1.000  C
  H156     1.0000 0.40480  0.10360  0.71320  Biso   1.000  H
  N79      1.0000 0.77915  0.05290  0.72623  Biso   1.000  N
  N80      1.0000 0.76569  0.19280  0.68830  Biso   1.000  N
  N81      1.0000 0.81904  0.18060  0.74747  Biso   1.000  N
  C235     1.0000 0.80889  0.09380  0.75130  Biso   1.000  C
  C236     1.0000 0.75937  0.10480  0.69420  Biso   1.000  C
  C237     1.0000 0.79581  0.22760  0.71620  Biso   1.000  C
  N82      1.0000 0.87709  0.94740  0.85565  Biso   1.000  N
  C238     1.0000 0.88600  0.03160  0.84650  Biso   1.000  C
  H157     1.0000 0.90810  0.05920  0.86390  Biso   1.000  H
  C239     1.0000 0.86500  0.08070  0.81330  Biso   1.000  C
  H158     1.0000 0.87240  0.14100  0.80800  Biso   1.000  H
  C240     1.0000 0.83250  0.04100  0.78710  Biso   1.000  C
  C241     1.0000 0.82390  0.95250  0.79560  Biso   1.000  C
  H159     1.0000 0.80280  0.92220  0.77770  Biso   1.000  H
  C242     1.0000 0.84630  0.90780  0.83060  Biso   1.000  C
  H160     1.0000 0.83970  0.84760  0.83700  Biso   1.000  H
  N83      1.0000 0.66699  0.97250  0.60879  Biso   1.000  N
  C243     1.0000 0.68440  0.93410  0.64650  Biso   1.000  C
  H161     1.0000 0.67570  0.87620  0.65370  Biso   1.000  H
  C244     1.0000 0.71400  0.97510  0.67470  Biso   1.000  C
  H162     1.0000 0.72570  0.94570  0.70070  Biso   1.000  H
  C245     1.0000 0.72656  0.05960  0.66490  Biso   1.000  C
  C246     1.0000 0.70880  0.10060  0.62640  Biso   1.000  C
  H163     1.0000 0.71640  0.15940  0.61910  Biso   1.000  H
  C247     1.0000 0.67980  0.05400  0.59920  Biso   1.000  C
  H164     1.0000 0.66850  0.08090  0.57240  Biso   1.000  H
  N84      1.0000 0.81593  0.51290  0.72043  Biso   1.000  N
  C248     1.0000 0.78470  0.47820  0.69460  Biso   1.000  C
  H165     1.0000 0.76660  0.51850  0.67780  Biso   1.000  H
  C249     1.0000 0.77760  0.38700  0.69130  Biso   1.000  C
  H166     1.0000 0.75520  0.36500  0.67220  Biso   1.000  H
  C250     1.0000 0.80300  0.32670  0.71570  Biso   1.000  C
  C251     1.0000 0.83580  0.36300  0.74230  Biso   1.000  C
  H167     1.0000 0.85420  0.32430  0.75980  Biso   1.000  H
  C252     1.0000 0.84150  0.45540  0.74310  Biso   1.000  C
  H168     1.0000 0.86450  0.47930  0.76050  Biso   1.000  H
  I49      1.0000 0.47360  0.35020  0.88160  Biso   1.000  I
  Zn22     1.0000 0.12445  0.40742  0.56511  Biso   1.000  Zn
  Zn23     1.0000 0.91399  0.12020  0.40511  Biso   1.000  Zn
  Zn24     1.0000 0.82758  0.65142  0.72810  Biso   1.000  Zn
  I50      1.0000 0.14508  0.41131  0.49318  Biso   1.000  I
  I51      1.0000 0.10744  0.26335  0.60160  Biso   1.000  I
  I52      1.0000 0.87544  0.23534  0.43735  Biso   1.000  I
  I53      1.0000 0.97459  0.14943  0.37530  Biso   1.000  I
  I54      1.0000 0.87175  0.66665  0.80226  Biso   1.000  I
  I55      1.0000 0.76577  0.74317  0.70664  Biso   1.000  I
  N85      1.0000 0.92150  0.77640  0.56152  Biso   1.000  N
  N86      1.0000 0.97249  0.72730  0.52913  Biso   1.000  N
  N87      1.0000 0.95904  0.64890  0.58923  Biso   1.000  N
  C253     1.0000 0.94408  0.78370  0.53220  Biso   1.000  C
  C254     1.0000 0.97920  0.66300  0.55900  Biso   1.000  C
  C255     1.0000 0.92965  0.70600  0.58840  Biso   1.000  C
  N88      1.0000 0.92555  0.01310  0.44896  Biso   1.000  N
  C256     1.0000 0.89920  0.98740  0.47070  Biso   1.000  C
  H169     1.0000 0.87610  0.02210  0.46760  Biso   1.000  H
  C257     1.0000 0.90340  0.91280  0.49770  Biso   1.000  C
  H170     1.0000 0.88340  0.89560  0.51200  Biso   1.000  H
  C258     1.0000 0.93745  0.86380  0.50340  Biso   1.000  C
  C259     1.0000 0.96560  0.89040  0.48080  Biso   1.000  C
  H171     1.0000 0.98910  0.85730  0.48350  Biso   1.000  H
  C260     1.0000 0.95870  0.96510  0.45460  Biso   1.000  C
  H172     1.0000 0.97810  0.98390  0.43970  Biso   1.000  H
  N89      1.0000 0.07798  0.49330  0.56161  Biso   1.000  N
  C261     1.0000 0.06120  0.50250  0.59530  Biso   1.000  C
  H173     1.0000 0.07270  0.47200  0.62120  Biso   1.000  H
  C262     1.0000 0.02850  0.55290  0.59530  Biso   1.000  C
  H174     1.0000 0.01670  0.55350  0.61960  Biso   1.000  H
  C263     1.0000 0.01330  0.60250  0.55910  Biso   1.000  C
  C264     1.0000 0.03060  0.59640  0.52470  Biso   1.000  C
  H175     1.0000 0.02090  0.62990  0.49930  Biso   1.000  H
  C265     1.0000 0.06230  0.54160  0.52720  Biso   1.000  C
  H176     1.0000 0.07370  0.53800  0.50270  Biso   1.000  H
  N90      1.0000 0.85941  0.67000  0.68143  Biso   1.000  N
  C266     1.0000 0.84710  0.71650  0.64510  Biso   1.000  C
  H177     1.0000 0.82200  0.74250  0.64040  Biso   1.000  H
  C267     1.0000 0.86830  0.72900  0.61450  Biso   1.000  C
  H178     1.0000 0.85780  0.76200  0.58910  Biso   1.000  H
  C268     1.0000 0.90540  0.69310  0.62050  Biso   1.000  C
  C269     1.0000 0.91850  0.64490  0.65800  Biso   1.000  C
  H179     1.0000 0.94350  0.61820  0.66340  Biso   1.000  H
  C270     1.0000 0.89510  0.63590  0.68730  Biso   1.000  C
  H180     1.0000 0.90480  0.60360  0.71320  Biso   1.000  H
  N91      1.0000 0.27915  0.55290  0.72623  Biso   1.000  N
  N92      1.0000 0.26569  0.69280  0.68830  Biso   1.000  N
  N93      1.0000 0.31904  0.68060  0.74747  Biso   1.000  N
  C271     1.0000 0.30889  0.59380  0.75130  Biso   1.000  C
  C272     1.0000 0.25937  0.60480  0.69420  Biso   1.000  C
  C273     1.0000 0.29581  0.72760  0.71620  Biso   1.000  C
  N94      1.0000 0.37709  0.44740  0.85565  Biso   1.000  N
  C274     1.0000 0.38600  0.53160  0.84650  Biso   1.000  C
  H181     1.0000 0.40810  0.55920  0.86390  Biso   1.000  H
  C275     1.0000 0.36500  0.58070  0.81330  Biso   1.000  C
  H182     1.0000 0.37240  0.64100  0.80800  Biso   1.000  H
  C276     1.0000 0.33250  0.54100  0.78710  Biso   1.000  C
  C277     1.0000 0.32390  0.45250  0.79560  Biso   1.000  C
  H183     1.0000 0.30280  0.42220  0.77770  Biso   1.000  H
  C278     1.0000 0.34630  0.40780  0.83060  Biso   1.000  C
  H184     1.0000 0.33970  0.34760  0.83700  Biso   1.000  H
  N95      1.0000 0.16699  0.47250  0.60879  Biso   1.000  N
  C279     1.0000 0.18440  0.43410  0.64650  Biso   1.000  C
  H185     1.0000 0.17570  0.37620  0.65370  Biso   1.000  H
  C280     1.0000 0.21400  0.47510  0.67470  Biso   1.000  C
  H186     1.0000 0.22570  0.44570  0.70070  Biso   1.000  H
  C281     1.0000 0.22656  0.55960  0.66490  Biso   1.000  C
  C282     1.0000 0.20880  0.60060  0.62640  Biso   1.000  C
  H187     1.0000 0.21640  0.65940  0.61910  Biso   1.000  H
  C283     1.0000 0.17980  0.55400  0.59920  Biso   1.000  C
  H188     1.0000 0.16850  0.58090  0.57240  Biso   1.000  H
  N96      1.0000 0.31593  0.01290  0.72043  Biso   1.000  N
  C284     1.0000 0.28470  0.97820  0.69460  Biso   1.000  C
  H189     1.0000 0.26660  0.01850  0.67780  Biso   1.000  H
  C285     1.0000 0.27760  0.88700  0.69130  Biso   1.000  C
  H190     1.0000 0.25520  0.86500  0.67220  Biso   1.000  H
  C286     1.0000 0.30300  0.82670  0.71570  Biso   1.000  C
  C287     1.0000 0.33580  0.86300  0.74230  Biso   1.000  C
  H191     1.0000 0.35420  0.82430  0.75980  Biso   1.000  H
  C288     1.0000 0.34150  0.95540  0.74310  Biso   1.000  C
  H192     1.0000 0.36450  0.97930  0.76050  Biso   1.000  H
  I56      1.0000 0.97360  0.85020  0.88160  Biso   1.000  I
