data_image0
_cell_length_a       35.487
_cell_length_b       15.08
_cell_length_c       31.542
_cell_angle_alpha    90
_cell_angle_beta     102.107
_cell_angle_gamma    90

_symmetry_space_group_name_H-M    "P 1"
_symmetry_int_tables_number       1

loop_
  _symmetry_equiv_pos_as_xyz
  'x, y, z'

loop_
  _atom_site_label
  _atom_site_occupancy
  _atom_site_fract_x
  _atom_site_fract_y
  _atom_site_fract_z
  _atom_site_thermal_displace_type
  _atom_site_B_iso_or_equiv
  _atom_site_type_symbol
  I1       1.0000 0.73742  0.26839  0.80593  Biso   1.000  I
  I2       1.0000 0.62990  0.32370  0.70390  Biso   1.000  I
  I3       1.0000 0.52756  0.14493  0.63252  Biso   1.000  I
  I4       1.0000 0.61775  0.23406  0.56141  Biso   1.000  I
  I5       1.0000 0.39474  0.72529  0.90161  Biso   1.000  I
  I6       1.0000 0.35576  0.58162  0.00794  Biso   1.000  I
  Zn1      1.0000 0.67582  0.35569  0.77908  Biso   1.000  Zn
  Zn2      1.0000 0.58287  0.11525  0.59441  Biso   1.000  Zn
  Zn3      1.0000 0.37454  0.58414  0.93464  Biso   1.000  Zn
  N1       1.0000 0.52256  0.26430  0.96890  Biso   1.000  N
  N2       1.0000 0.57575  0.22020  0.93830  Biso   1.000  N
  N3       1.0000 0.53740  0.34420  0.90940  Biso   1.000  N
  C1       1.0000 0.51640  0.32770  0.93920  Biso   1.000  C
  C2       1.0000 0.55210  0.21070  0.96580  Biso   1.000  C
  C3       1.0000 0.56780  0.29060  0.91180  Biso   1.000  C
  N4       1.0000 0.41916  0.49620  0.93680  Biso   1.000  N
  C4       1.0000 0.43760  0.45820  0.97280  Biso   1.000  C
  H1       1.0000 0.42870  0.46970  0.99870  Biso   1.000  H
  C5       1.0000 0.46890  0.40310  0.97550  Biso   1.000  C
  H2       1.0000 0.48120  0.37770  0.00250  Biso   1.000  H
  C6       1.0000 0.48180  0.38570  0.93830  Biso   1.000  C
  C7       1.0000 0.46210  0.42150  0.89960  Biso   1.000  C
  H3       1.0000 0.47000  0.40960  0.87330  Biso   1.000  H
  C8       1.0000 0.43090  0.47430  0.90010  Biso   1.000  C
  H4       1.0000 0.41680  0.49670  0.87330  Biso   1.000  H
  N5       1.0000 0.56910  0.98580  0.04900  Biso   1.000  N
  C9       1.0000 0.59500  0.00530  0.02480  Biso   1.000  C
  H5       1.0000 0.61720  0.96900  0.02660  Biso   1.000  H
  C10      1.0000 0.58970  0.07770  0.99740  Biso   1.000  C
  H6       1.0000 0.60810  0.09030  0.98030  Biso   1.000  H
  C11      1.0000 0.55830  0.13150  0.99440  Biso   1.000  C
  C12      1.0000 0.53130  0.10890  0.01930  Biso   1.000  C
  H7       1.0000 0.50890  0.14400  0.01790  Biso   1.000  H
  C13      1.0000 0.53770  0.03550  0.04580  Biso   1.000  C
  H8       1.0000 0.51910  0.02000  0.06230  Biso   1.000  H
  N6       1.0000 0.64220  0.34040  0.82510  Biso   1.000  N
  C14      1.0000 0.60730  0.37640  0.81900  Biso   1.000  C
  H9       1.0000 0.59930  0.41390  0.79450  Biso   1.000  H
  C15      1.0000 0.58230  0.36260  0.84590  Biso   1.000  C
  H10      1.0000 0.55760  0.38990  0.84000  Biso   1.000  H
  C16      1.0000 0.59310  0.30910  0.88160  Biso   1.000  C
  C17      1.0000 0.63020  0.27100  0.88910  Biso   1.000  C
  H11      1.0000 0.63920  0.23420  0.91360  Biso   1.000  H
  C18      1.0000 0.65340  0.28880  0.85960  Biso   1.000  C
  H12      1.0000 0.67830  0.26300  0.86440  Biso   1.000  H
  C19      1.0000 0.74150  0.89140  0.80080  Biso   1.000  C
  C20      1.0000 0.69160  0.89980  0.74430  Biso   1.000  C
  C21      1.0000 0.70730  0.76980  0.77730  Biso   1.000  C
  N7       1.0000 0.72075  0.94210  0.77090  Biso   1.000  N
  N8       1.0000 0.68304  0.81480  0.74720  Biso   1.000  N
  N9       1.0000 0.73686  0.80450  0.80580  Biso   1.000  N
  N10      1.0000 0.62210  0.04560  0.64030  Biso   1.000  N
  C22      1.0000 0.61680  0.95990  0.64620  Biso   1.000  C
  H13      1.0000 0.59630  0.93080  0.62700  Biso   1.000  H
  C23      1.0000 0.63940  0.91040  0.67900  Biso   1.000  C
  H14      1.0000 0.63540  0.84840  0.68100  Biso   1.000  H
  C24      1.0000 0.66770  0.95240  0.70820  Biso   1.000  C
  C25      1.0000 0.67320  0.04110  0.70250  Biso   1.000  C
  H15      1.0000 0.69250  0.07230  0.72230  Biso   1.000  H
  C26      1.0000 0.65070  0.08540  0.66780  Biso   1.000  C
  H16      1.0000 0.65580  0.14620  0.66340  Biso   1.000  H
  N11      1.0000 0.68720  0.49050  0.77900  Biso   1.000  N
  C27      1.0000 0.66210  0.54460  0.75570  Biso   1.000  C
  H17      1.0000 0.63910  0.52010  0.73880  Biso   1.000  H
  C28      1.0000 0.66740  0.63560  0.75430  Biso   1.000  C
  H18      1.0000 0.64870  0.67180  0.73650  Biso   1.000  H
  C29      1.0000 0.70030  0.67310  0.77920  Biso   1.000  C
  C30      1.0000 0.72670  0.61650  0.80430  Biso   1.000  C
  H19      1.0000 0.74960  0.63940  0.82200  Biso   1.000  H
  C31      1.0000 0.71940  0.52650  0.80330  Biso   1.000  C
  H20      1.0000 0.73790  0.48830  0.82030  Biso   1.000  H
  N12      1.0000 0.83149  0.02290  0.88970  Biso   1.000  N
  C32      1.0000 0.82460  0.93820  0.89490  Biso   1.000  C
  H21      1.0000 0.83970  0.90770  0.91890  Biso   1.000  H
  C33      1.0000 0.79580  0.89150  0.86660  Biso   1.000  C
  H22      1.0000 0.79160  0.83020  0.87080  Biso   1.000  H
  C34      1.0000 0.77350  0.93720  0.83240  Biso   1.000  C
  C35      1.0000 0.78120  0.02550  0.82660  Biso   1.000  C
  H23      1.0000 0.76660  0.05800  0.80300  Biso   1.000  H
  C36      1.0000 0.81030  0.06540  0.85560  Biso   1.000  C
  H24      1.0000 0.81580  0.12610  0.85140  Biso   1.000  H
  I7       1.0000 0.64120  0.31500  0.71090  Biso   1.000  I
  I8       1.0000 0.23742  0.76839  0.80593  Biso   1.000  I
  I9       1.0000 0.12990  0.82370  0.70390  Biso   1.000  I
  I10      1.0000 0.02756  0.64493  0.63252  Biso   1.000  I
  I11      1.0000 0.11775  0.73406  0.56141  Biso   1.000  I
  I12      1.0000 0.89474  0.22529  0.90161  Biso   1.000  I
  I13      1.0000 0.85576  0.08162  0.00794  Biso   1.000  I
  Zn4      1.0000 0.17582  0.85569  0.77908  Biso   1.000  Zn
  Zn5      1.0000 0.08287  0.61525  0.59441  Biso   1.000  Zn
  Zn6      1.0000 0.87454  0.08414  0.93464  Biso   1.000  Zn
  N13      1.0000 0.02256  0.76430  0.96890  Biso   1.000  N
  N14      1.0000 0.07575  0.72020  0.93830  Biso   1.000  N
  N15      1.0000 0.03740  0.84420  0.90940  Biso   1.000  N
  C37      1.0000 0.01640  0.82770  0.93920  Biso   1.000  C
  C38      1.0000 0.05210  0.71070  0.96580  Biso   1.000  C
  C39      1.0000 0.06780  0.79060  0.91180  Biso   1.000  C
  N16      1.0000 0.91916  0.99620  0.93680  Biso   1.000  N
  C40      1.0000 0.93760  0.95820  0.97280  Biso   1.000  C
  H25      1.0000 0.92870  0.96970  0.99870  Biso   1.000  H
  C41      1.0000 0.96890  0.90310  0.97550  Biso   1.000  C
  H26      1.0000 0.98120  0.87770  0.00250  Biso   1.000  H
  C42      1.0000 0.98180  0.88570  0.93830  Biso   1.000  C
  C43      1.0000 0.96210  0.92150  0.89960  Biso   1.000  C
  H27      1.0000 0.97000  0.90960  0.87330  Biso   1.000  H
  C44      1.0000 0.93090  0.97430  0.90010  Biso   1.000  C
  H28      1.0000 0.91680  0.99670  0.87330  Biso   1.000  H
  N17      1.0000 0.06910  0.48580  0.04900  Biso   1.000  N
  C45      1.0000 0.09500  0.50530  0.02480  Biso   1.000  C
  H29      1.0000 0.11720  0.46900  0.02660  Biso   1.000  H
  C46      1.0000 0.08970  0.57770  0.99740  Biso   1.000  C
  H30      1.0000 0.10810  0.59030  0.98030  Biso   1.000  H
  C47      1.0000 0.05830  0.63150  0.99440  Biso   1.000  C
  C48      1.0000 0.03130  0.60890  0.01930  Biso   1.000  C
  H31      1.0000 0.00890  0.64400  0.01790  Biso   1.000  H
  C49      1.0000 0.03770  0.53550  0.04580  Biso   1.000  C
  H32      1.0000 0.01910  0.52000  0.06230  Biso   1.000  H
  N18      1.0000 0.14220  0.84040  0.82510  Biso   1.000  N
  C50      1.0000 0.10730  0.87640  0.81900  Biso   1.000  C
  H33      1.0000 0.09930  0.91390  0.79450  Biso   1.000  H
  C51      1.0000 0.08230  0.86260  0.84590  Biso   1.000  C
  H34      1.0000 0.05760  0.88990  0.84000  Biso   1.000  H
  C52      1.0000 0.09310  0.80910  0.88160  Biso   1.000  C
  C53      1.0000 0.13020  0.77100  0.88910  Biso   1.000  C
  H35      1.0000 0.13920  0.73420  0.91360  Biso   1.000  H
  C54      1.0000 0.15340  0.78880  0.85960  Biso   1.000  C
  H36      1.0000 0.17830  0.76300  0.86440  Biso   1.000  H
  C55      1.0000 0.24150  0.39140  0.80080  Biso   1.000  C
  C56      1.0000 0.19160  0.39980  0.74430  Biso   1.000  C
  C57      1.0000 0.20730  0.26980  0.77730  Biso   1.000  C
  N19      1.0000 0.22075  0.44210  0.77090  Biso   1.000  N
  N20      1.0000 0.18304  0.31480  0.74720  Biso   1.000  N
  N21      1.0000 0.23686  0.30450  0.80580  Biso   1.000  N
  N22      1.0000 0.12210  0.54560  0.64030  Biso   1.000  N
  C58      1.0000 0.11680  0.45990  0.64620  Biso   1.000  C
  H37      1.0000 0.09630  0.43080  0.62700  Biso   1.000  H
  C59      1.0000 0.13940  0.41040  0.67900  Biso   1.000  C
  H38      1.0000 0.13540  0.34840  0.68100  Biso   1.000  H
  C60      1.0000 0.16770  0.45240  0.70820  Biso   1.000  C
  C61      1.0000 0.17320  0.54110  0.70250  Biso   1.000  C
  H39      1.0000 0.19250  0.57230  0.72230  Biso   1.000  H
  C62      1.0000 0.15070  0.58540  0.66780  Biso   1.000  C
  H40      1.0000 0.15580  0.64620  0.66340  Biso   1.000  H
  N23      1.0000 0.18720  0.99050  0.77900  Biso   1.000  N
  C63      1.0000 0.16210  0.04460  0.75570  Biso   1.000  C
  H41      1.0000 0.13910  0.02010  0.73880  Biso   1.000  H
  C64      1.0000 0.16740  0.13560  0.75430  Biso   1.000  C
  H42      1.0000 0.14870  0.17180  0.73650  Biso   1.000  H
  C65      1.0000 0.20030  0.17310  0.77920  Biso   1.000  C
  C66      1.0000 0.22670  0.11650  0.80430  Biso   1.000  C
  H43      1.0000 0.24960  0.13940  0.82200  Biso   1.000  H
  C67      1.0000 0.21940  0.02650  0.80330  Biso   1.000  C
  H44      1.0000 0.23790  0.98830  0.82030  Biso   1.000  H
  N24      1.0000 0.33149  0.52290  0.88970  Biso   1.000  N
  C68      1.0000 0.32460  0.43820  0.89490  Biso   1.000  C
  H45      1.0000 0.33970  0.40770  0.91890  Biso   1.000  H
  C69      1.0000 0.29580  0.39150  0.86660  Biso   1.000  C
  H46      1.0000 0.29160  0.33020  0.87080  Biso   1.000  H
  C70      1.0000 0.27350  0.43720  0.83240  Biso   1.000  C
  C71      1.0000 0.28120  0.52550  0.82660  Biso   1.000  C
  H47      1.0000 0.26660  0.55800  0.80300  Biso   1.000  H
  C72      1.0000 0.31030  0.56540  0.85560  Biso   1.000  C
  H48      1.0000 0.31580  0.62610  0.85140  Biso   1.000  H
  I14      1.0000 0.14120  0.81500  0.71090  Biso   1.000  I
  I15      1.0000 0.73742  0.73161  0.30593  Biso   1.000  I
  I16      1.0000 0.62990  0.67630  0.20390  Biso   1.000  I
  I17      1.0000 0.52756  0.85507  0.13252  Biso   1.000  I
  I18      1.0000 0.61775  0.76594  0.06141  Biso   1.000  I
  I19      1.0000 0.39474  0.27471  0.40161  Biso   1.000  I
  I20      1.0000 0.35576  0.41838  0.50794  Biso   1.000  I
  Zn7      1.0000 0.67582  0.64431  0.27908  Biso   1.000  Zn
  Zn8      1.0000 0.58287  0.88475  0.09441  Biso   1.000  Zn
  Zn9      1.0000 0.37454  0.41586  0.43464  Biso   1.000  Zn
  N25      1.0000 0.52256  0.73570  0.46890  Biso   1.000  N
  N26      1.0000 0.57575  0.77980  0.43830  Biso   1.000  N
  N27      1.0000 0.53740  0.65580  0.40940  Biso   1.000  N
  C73      1.0000 0.51640  0.67230  0.43920  Biso   1.000  C
  C74      1.0000 0.55210  0.78930  0.46580  Biso   1.000  C
  C75      1.0000 0.56780  0.70940  0.41180  Biso   1.000  C
  N28      1.0000 0.41916  0.50380  0.43680  Biso   1.000  N
  C76      1.0000 0.43760  0.54180  0.47280  Biso   1.000  C
  H49      1.0000 0.42870  0.53030  0.49870  Biso   1.000  H
  C77      1.0000 0.46890  0.59690  0.47550  Biso   1.000  C
  H50      1.0000 0.48120  0.62230  0.50250  Biso   1.000  H
  C78      1.0000 0.48180  0.61430  0.43830  Biso   1.000  C
  C79      1.0000 0.46210  0.57850  0.39960  Biso   1.000  C
  H51      1.0000 0.47000  0.59040  0.37330  Biso   1.000  H
  C80      1.0000 0.43090  0.52570  0.40010  Biso   1.000  C
  H52      1.0000 0.41680  0.50330  0.37330  Biso   1.000  H
  N29      1.0000 0.56910  0.01420  0.54900  Biso   1.000  N
  C81      1.0000 0.59500  0.99470  0.52480  Biso   1.000  C
  H53      1.0000 0.61720  0.03100  0.52660  Biso   1.000  H
  C82      1.0000 0.58970  0.92230  0.49740  Biso   1.000  C
  H54      1.0000 0.60810  0.90970  0.48030  Biso   1.000  H
  C83      1.0000 0.55830  0.86850  0.49440  Biso   1.000  C
  C84      1.0000 0.53130  0.89110  0.51930  Biso   1.000  C
  H55      1.0000 0.50890  0.85600  0.51790  Biso   1.000  H
  C85      1.0000 0.53770  0.96450  0.54580  Biso   1.000  C
  H56      1.0000 0.51910  0.98000  0.56230  Biso   1.000  H
  N30      1.0000 0.64220  0.65960  0.32510  Biso   1.000  N
  C86      1.0000 0.60730  0.62360  0.31900  Biso   1.000  C
  H57      1.0000 0.59930  0.58610  0.29450  Biso   1.000  H
  C87      1.0000 0.58230  0.63740  0.34590  Biso   1.000  C
  H58      1.0000 0.55760  0.61010  0.34000  Biso   1.000  H
  C88      1.0000 0.59310  0.69090  0.38160  Biso   1.000  C
  C89      1.0000 0.63020  0.72900  0.38910  Biso   1.000  C
  H59      1.0000 0.63920  0.76580  0.41360  Biso   1.000  H
  C90      1.0000 0.65340  0.71120  0.35960  Biso   1.000  C
  H60      1.0000 0.67830  0.73700  0.36440  Biso   1.000  H
  C91      1.0000 0.74150  0.10860  0.30080  Biso   1.000  C
  C92      1.0000 0.69160  0.10020  0.24430  Biso   1.000  C
  C93      1.0000 0.70730  0.23020  0.27730  Biso   1.000  C
  N31      1.0000 0.72075  0.05790  0.27090  Biso   1.000  N
  N32      1.0000 0.68304  0.18520  0.24720  Biso   1.000  N
  N33      1.0000 0.73686  0.19550  0.30580  Biso   1.000  N
  N34      1.0000 0.62210  0.95440  0.14030  Biso   1.000  N
  C94      1.0000 0.61680  0.04010  0.14620  Biso   1.000  C
  H61      1.0000 0.59630  0.06920  0.12700  Biso   1.000  H
  C95      1.0000 0.63940  0.08960  0.17900  Biso   1.000  C
  H62      1.0000 0.63540  0.15160  0.18100  Biso   1.000  H
  C96      1.0000 0.66770  0.04760  0.20820  Biso   1.000  C
  C97      1.0000 0.67320  0.95890  0.20250  Biso   1.000  C
  H63      1.0000 0.69250  0.92770  0.22230  Biso   1.000  H
  C98      1.0000 0.65070  0.91460  0.16780  Biso   1.000  C
  H64      1.0000 0.65580  0.85380  0.16340  Biso   1.000  H
  N35      1.0000 0.68720  0.50950  0.27900  Biso   1.000  N
  C99      1.0000 0.66210  0.45540  0.25570  Biso   1.000  C
  H65      1.0000 0.63910  0.47990  0.23880  Biso   1.000  H
  C100     1.0000 0.66740  0.36440  0.25430  Biso   1.000  C
  H66      1.0000 0.64870  0.32820  0.23650  Biso   1.000  H
  C101     1.0000 0.70030  0.32690  0.27920  Biso   1.000  C
  C102     1.0000 0.72670  0.38350  0.30430  Biso   1.000  C
  H67      1.0000 0.74960  0.36060  0.32200  Biso   1.000  H
  C103     1.0000 0.71940  0.47350  0.30330  Biso   1.000  C
  H68      1.0000 0.73790  0.51170  0.32030  Biso   1.000  H
  N36      1.0000 0.83149  0.97710  0.38970  Biso   1.000  N
  C104     1.0000 0.82460  0.06180  0.39490  Biso   1.000  C
  H69      1.0000 0.83970  0.09230  0.41890  Biso   1.000  H
  C105     1.0000 0.79580  0.10850  0.36660  Biso   1.000  C
  H70      1.0000 0.79160  0.16980  0.37080  Biso   1.000  H
  C106     1.0000 0.77350  0.06280  0.33240  Biso   1.000  C
  C107     1.0000 0.78120  0.97450  0.32660  Biso   1.000  C
  H71      1.0000 0.76660  0.94200  0.30300  Biso   1.000  H
  C108     1.0000 0.81030  0.93460  0.35560  Biso   1.000  C
  H72      1.0000 0.81580  0.87390  0.35140  Biso   1.000  H
  I21      1.0000 0.64120  0.68500  0.21090  Biso   1.000  I
  I22      1.0000 0.23742  0.23161  0.30593  Biso   1.000  I
  I23      1.0000 0.12990  0.17630  0.20390  Biso   1.000  I
  I24      1.0000 0.02756  0.35507  0.13252  Biso   1.000  I
  I25      1.0000 0.11775  0.26594  0.06141  Biso   1.000  I
  I26      1.0000 0.89474  0.77471  0.40161  Biso   1.000  I
  I27      1.0000 0.85576  0.91838  0.50794  Biso   1.000  I
  Zn10     1.0000 0.17582  0.14431  0.27908  Biso   1.000  Zn
  Zn11     1.0000 0.08287  0.38475  0.09441  Biso   1.000  Zn
  Zn12     1.0000 0.87454  0.91586  0.43464  Biso   1.000  Zn
  N37      1.0000 0.02256  0.23570  0.46890  Biso   1.000  N
  N38      1.0000 0.07575  0.27980  0.43830  Biso   1.000  N
  N39      1.0000 0.03740  0.15580  0.40940  Biso   1.000  N
  C109     1.0000 0.01640  0.17230  0.43920  Biso   1.000  C
  C110     1.0000 0.05210  0.28930  0.46580  Biso   1.000  C
  C111     1.0000 0.06780  0.20940  0.41180  Biso   1.000  C
  N40      1.0000 0.91916  0.00380  0.43680  Biso   1.000  N
  C112     1.0000 0.93760  0.04180  0.47280  Biso   1.000  C
  H73      1.0000 0.92870  0.03030  0.49870  Biso   1.000  H
  C113     1.0000 0.96890  0.09690  0.47550  Biso   1.000  C
  H74      1.0000 0.98120  0.12230  0.50250  Biso   1.000  H
  C114     1.0000 0.98180  0.11430  0.43830  Biso   1.000  C
  C115     1.0000 0.96210  0.07850  0.39960  Biso   1.000  C
  H75      1.0000 0.97000  0.09040  0.37330  Biso   1.000  H
  C116     1.0000 0.93090  0.02570  0.40010  Biso   1.000  C
  H76      1.0000 0.91680  0.00330  0.37330  Biso   1.000  H
  N41      1.0000 0.06910  0.51420  0.54900  Biso   1.000  N
  C117     1.0000 0.09500  0.49470  0.52480  Biso   1.000  C
  H77      1.0000 0.11720  0.53100  0.52660  Biso   1.000  H
  C118     1.0000 0.08970  0.42230  0.49740  Biso   1.000  C
  H78      1.0000 0.10810  0.40970  0.48030  Biso   1.000  H
  C119     1.0000 0.05830  0.36850  0.49440  Biso   1.000  C
  C120     1.0000 0.03130  0.39110  0.51930  Biso   1.000  C
  H79      1.0000 0.00890  0.35600  0.51790  Biso   1.000  H
  C121     1.0000 0.03770  0.46450  0.54580  Biso   1.000  C
  H80      1.0000 0.01910  0.48000  0.56230  Biso   1.000  H
  N42      1.0000 0.14220  0.15960  0.32510  Biso   1.000  N
  C122     1.0000 0.10730  0.12360  0.31900  Biso   1.000  C
  H81      1.0000 0.09930  0.08610  0.29450  Biso   1.000  H
  C123     1.0000 0.08230  0.13740  0.34590  Biso   1.000  C
  H82      1.0000 0.05760  0.11010  0.34000  Biso   1.000  H
  C124     1.0000 0.09310  0.19090  0.38160  Biso   1.000  C
  C125     1.0000 0.13020  0.22900  0.38910  Biso   1.000  C
  H83      1.0000 0.13920  0.26580  0.41360  Biso   1.000  H
  C126     1.0000 0.15340  0.21120  0.35960  Biso   1.000  C
  H84      1.0000 0.17830  0.23700  0.36440  Biso   1.000  H
  C127     1.0000 0.24150  0.60860  0.30080  Biso   1.000  C
  C128     1.0000 0.19160  0.60020  0.24430  Biso   1.000  C
  C129     1.0000 0.20730  0.73020  0.27730  Biso   1.000  C
  N43      1.0000 0.22075  0.55790  0.27090  Biso   1.000  N
  N44      1.0000 0.18304  0.68520  0.24720  Biso   1.000  N
  N45      1.0000 0.23686  0.69550  0.30580  Biso   1.000  N
  N46      1.0000 0.12210  0.45440  0.14030  Biso   1.000  N
  C130     1.0000 0.11680  0.54010  0.14620  Biso   1.000  C
  H85      1.0000 0.09630  0.56920  0.12700  Biso   1.000  H
  C131     1.0000 0.13940  0.58960  0.17900  Biso   1.000  C
  H86      1.0000 0.13540  0.65160  0.18100  Biso   1.000  H
  C132     1.0000 0.16770  0.54760  0.20820  Biso   1.000  C
  C133     1.0000 0.17320  0.45890  0.20250  Biso   1.000  C
  H87      1.0000 0.19250  0.42770  0.22230  Biso   1.000  H
  C134     1.0000 0.15070  0.41460  0.16780  Biso   1.000  C
  H88      1.0000 0.15580  0.35380  0.16340  Biso   1.000  H
  N47      1.0000 0.18720  0.00950  0.27900  Biso   1.000  N
  C135     1.0000 0.16210  0.95540  0.25570  Biso   1.000  C
  H89      1.0000 0.13910  0.97990  0.23880  Biso   1.000  H
  C136     1.0000 0.16740  0.86440  0.25430  Biso   1.000  C
  H90      1.0000 0.14870  0.82820  0.23650  Biso   1.000  H
  C137     1.0000 0.20030  0.82690  0.27920  Biso   1.000  C
  C138     1.0000 0.22670  0.88350  0.30430  Biso   1.000  C
  H91      1.0000 0.24960  0.86060  0.32200  Biso   1.000  H
  C139     1.0000 0.21940  0.97350  0.30330  Biso   1.000  C
  H92      1.0000 0.23790  0.01170  0.32030  Biso   1.000  H
  N48      1.0000 0.33149  0.47710  0.38970  Biso   1.000  N
  C140     1.0000 0.32460  0.56180  0.39490  Biso   1.000  C
  H93      1.0000 0.33970  0.59230  0.41890  Biso   1.000  H
  C141     1.0000 0.29580  0.60850  0.36660  Biso   1.000  C
  H94      1.0000 0.29160  0.66980  0.37080  Biso   1.000  H
  C142     1.0000 0.27350  0.56280  0.33240  Biso   1.000  C
  C143     1.0000 0.28120  0.47450  0.32660  Biso   1.000  C
  H95      1.0000 0.26660  0.44200  0.30300  Biso   1.000  H
  C144     1.0000 0.31030  0.43460  0.35560  Biso   1.000  C
  H96      1.0000 0.31580  0.37390  0.35140  Biso   1.000  H
  I28      1.0000 0.14120  0.18500  0.21090  Biso   1.000  I
  I29      1.0000 0.26258  0.26839  0.69407  Biso   1.000  I
  I30      1.0000 0.37010  0.32370  0.79610  Biso   1.000  I
  I31      1.0000 0.47244  0.14493  0.86748  Biso   1.000  I
  I32      1.0000 0.38225  0.23406  0.93859  Biso   1.000  I
  I33      1.0000 0.60526  0.72529  0.59839  Biso   1.000  I
  I34      1.0000 0.64424  0.58162  0.49206  Biso   1.000  I
  Zn13     1.0000 0.32418  0.35569  0.72092  Biso   1.000  Zn
  Zn14     1.0000 0.41713  0.11525  0.90559  Biso   1.000  Zn
  Zn15     1.0000 0.62546  0.58414  0.56536  Biso   1.000  Zn
  N49      1.0000 0.47744  0.26430  0.53110  Biso   1.000  N
  N50      1.0000 0.42425  0.22020  0.56170  Biso   1.000  N
  N51      1.0000 0.46260  0.34420  0.59060  Biso   1.000  N
  C145     1.0000 0.48360  0.32770  0.56080  Biso   1.000  C
  C146     1.0000 0.44790  0.21070  0.53420  Biso   1.000  C
  C147     1.0000 0.43220  0.29060  0.58820  Biso   1.000  C
  N52      1.0000 0.58084  0.49620  0.56320  Biso   1.000  N
  C148     1.0000 0.56240  0.45820  0.52720  Biso   1.000  C
  H97      1.0000 0.57130  0.46970  0.50130  Biso   1.000  H
  C149     1.0000 0.53110  0.40310  0.52450  Biso   1.000  C
  H98      1.0000 0.51880  0.37770  0.49750  Biso   1.000  H
  C150     1.0000 0.51820  0.38570  0.56170  Biso   1.000  C
  C151     1.0000 0.53790  0.42150  0.60040  Biso   1.000  C
  H99      1.0000 0.53000  0.40960  0.62670  Biso   1.000  H
  C152     1.0000 0.56910  0.47430  0.59990  Biso   1.000  C
  H100     1.0000 0.58320  0.49670  0.62670  Biso   1.000  H
  N53      1.0000 0.43090  0.98580  0.45100  Biso   1.000  N
  C153     1.0000 0.40500  0.00530  0.47520  Biso   1.000  C
  H101     1.0000 0.38280  0.96900  0.47340  Biso   1.000  H
  C154     1.0000 0.41030  0.07770  0.50260  Biso   1.000  C
  H102     1.0000 0.39190  0.09030  0.51970  Biso   1.000  H
  C155     1.0000 0.44170  0.13150  0.50560  Biso   1.000  C
  C156     1.0000 0.46870  0.10890  0.48070  Biso   1.000  C
  H103     1.0000 0.49110  0.14400  0.48210  Biso   1.000  H
  C157     1.0000 0.46230  0.03550  0.45420  Biso   1.000  C
  H104     1.0000 0.48090  0.02000  0.43770  Biso   1.000  H
  N54      1.0000 0.35780  0.34040  0.67490  Biso   1.000  N
  C158     1.0000 0.39270  0.37640  0.68100  Biso   1.000  C
  H105     1.0000 0.40070  0.41390  0.70550  Biso   1.000  H
  C159     1.0000 0.41770  0.36260  0.65410  Biso   1.000  C
  H106     1.0000 0.44240  0.38990  0.66000  Biso   1.000  H
  C160     1.0000 0.40690  0.30910  0.61840  Biso   1.000  C
  C161     1.0000 0.36980  0.27100  0.61090  Biso   1.000  C
  H107     1.0000 0.36080  0.23420  0.58640  Biso   1.000  H
  C162     1.0000 0.34660  0.28880  0.64040  Biso   1.000  C
  H108     1.0000 0.32170  0.26300  0.63560  Biso   1.000  H
  C163     1.0000 0.25850  0.89140  0.69920  Biso   1.000  C
  C164     1.0000 0.30840  0.89980  0.75570  Biso   1.000  C
  C165     1.0000 0.29270  0.76980  0.72270  Biso   1.000  C
  N55      1.0000 0.27925  0.94210  0.72910  Biso   1.000  N
  N56      1.0000 0.31696  0.81480  0.75280  Biso   1.000  N
  N57      1.0000 0.26314  0.80450  0.69420  Biso   1.000  N
  N58      1.0000 0.37790  0.04560  0.85970  Biso   1.000  N
  C166     1.0000 0.38320  0.95990  0.85380  Biso   1.000  C
  H109     1.0000 0.40370  0.93080  0.87300  Biso   1.000  H
  C167     1.0000 0.36060  0.91040  0.82100  Biso   1.000  C
  H110     1.0000 0.36460  0.84840  0.81900  Biso   1.000  H
  C168     1.0000 0.33230  0.95240  0.79180  Biso   1.000  C
  C169     1.0000 0.32680  0.04110  0.79750  Biso   1.000  C
  H111     1.0000 0.30750  0.07230  0.77770  Biso   1.000  H
  C170     1.0000 0.34930  0.08540  0.83220  Biso   1.000  C
  H112     1.0000 0.34420  0.14620  0.83660  Biso   1.000  H
  N59      1.0000 0.31280  0.49050  0.72100  Biso   1.000  N
  C171     1.0000 0.33790  0.54460  0.74430  Biso   1.000  C
  H113     1.0000 0.36090  0.52010  0.76120  Biso   1.000  H
  C172     1.0000 0.33260  0.63560  0.74570  Biso   1.000  C
  H114     1.0000 0.35130  0.67180  0.76350  Biso   1.000  H
  C173     1.0000 0.29970  0.67310  0.72080  Biso   1.000  C
  C174     1.0000 0.27330  0.61650  0.69570  Biso   1.000  C
  H115     1.0000 0.25040  0.63940  0.67800  Biso   1.000  H
  C175     1.0000 0.28060  0.52650  0.69670  Biso   1.000  C
  H116     1.0000 0.26210  0.48830  0.67970  Biso   1.000  H
  N60      1.0000 0.16851  0.02290  0.61030  Biso   1.000  N
  C176     1.0000 0.17540  0.93820  0.60510  Biso   1.000  C
  H117     1.0000 0.16030  0.90770  0.58110  Biso   1.000  H
  C177     1.0000 0.20420  0.89150  0.63340  Biso   1.000  C
  H118     1.0000 0.20840  0.83020  0.62920  Biso   1.000  H
  C178     1.0000 0.22650  0.93720  0.66760  Biso   1.000  C
  C179     1.0000 0.21880  0.02550  0.67340  Biso   1.000  C
  H119     1.0000 0.23340  0.05800  0.69700  Biso   1.000  H
  C180     1.0000 0.18970  0.06540  0.64440  Biso   1.000  C
  H120     1.0000 0.18420  0.12610  0.64860  Biso   1.000  H
  I35      1.0000 0.35880  0.31500  0.78910  Biso   1.000  I
  I36      1.0000 0.76258  0.76839  0.69407  Biso   1.000  I
  I37      1.0000 0.87010  0.82370  0.79610  Biso   1.000  I
  I38      1.0000 0.97244  0.64493  0.86748  Biso   1.000  I
  I39      1.0000 0.88225  0.73406  0.93859  Biso   1.000  I
  I40      1.0000 0.10526  0.22529  0.59839  Biso   1.000  I
  I41      1.0000 0.14424  0.08162  0.49206  Biso   1.000  I
  Zn16     1.0000 0.82418  0.85569  0.72092  Biso   1.000  Zn
  Zn17     1.0000 0.91713  0.61525  0.90559  Biso   1.000  Zn
  Zn18     1.0000 0.12546  0.08414  0.56536  Biso   1.000  Zn
  N61      1.0000 0.97744  0.76430  0.53110  Biso   1.000  N
  N62      1.0000 0.92425  0.72020  0.56170  Biso   1.000  N
  N63      1.0000 0.96260  0.84420  0.59060  Biso   1.000  N
  C181     1.0000 0.98360  0.82770  0.56080  Biso   1.000  C
  C182     1.0000 0.94790  0.71070  0.53420  Biso   1.000  C
  C183     1.0000 0.93220  0.79060  0.58820  Biso   1.000  C
  N64      1.0000 0.08084  0.99620  0.56320  Biso   1.000  N
  C184     1.0000 0.06240  0.95820  0.52720  Biso   1.000  C
  H121     1.0000 0.07130  0.96970  0.50130  Biso   1.000  H
  C185     1.0000 0.03110  0.90310  0.52450  Biso   1.000  C
  H122     1.0000 0.01880  0.87770  0.49750  Biso   1.000  H
  C186     1.0000 0.01820  0.88570  0.56170  Biso   1.000  C
  C187     1.0000 0.03790  0.92150  0.60040  Biso   1.000  C
  H123     1.0000 0.03000  0.90960  0.62670  Biso   1.000  H
  C188     1.0000 0.06910  0.97430  0.59990  Biso   1.000  C
  H124     1.0000 0.08320  0.99670  0.62670  Biso   1.000  H
  N65      1.0000 0.93090  0.48580  0.45100  Biso   1.000  N
  C189     1.0000 0.90500  0.50530  0.47520  Biso   1.000  C
  H125     1.0000 0.88280  0.46900  0.47340  Biso   1.000  H
  C190     1.0000 0.91030  0.57770  0.50260  Biso   1.000  C
  H126     1.0000 0.89190  0.59030  0.51970  Biso   1.000  H
  C191     1.0000 0.94170  0.63150  0.50560  Biso   1.000  C
  C192     1.0000 0.96870  0.60890  0.48070  Biso   1.000  C
  H127     1.0000 0.99110  0.64400  0.48210  Biso   1.000  H
  C193     1.0000 0.96230  0.53550  0.45420  Biso   1.000  C
  H128     1.0000 0.98090  0.52000  0.43770  Biso   1.000  H
  N66      1.0000 0.85780  0.84040  0.67490  Biso   1.000  N
  C194     1.0000 0.89270  0.87640  0.68100  Biso   1.000  C
  H129     1.0000 0.90070  0.91390  0.70550  Biso   1.000  H
  C195     1.0000 0.91770  0.86260  0.65410  Biso   1.000  C
  H130     1.0000 0.94240  0.88990  0.66000  Biso   1.000  H
  C196     1.0000 0.90690  0.80910  0.61840  Biso   1.000  C
  C197     1.0000 0.86980  0.77100  0.61090  Biso   1.000  C
  H131     1.0000 0.86080  0.73420  0.58640  Biso   1.000  H
  C198     1.0000 0.84660  0.78880  0.64040  Biso   1.000  C
  H132     1.0000 0.82170  0.76300  0.63560  Biso   1.000  H
  C199     1.0000 0.75850  0.39140  0.69920  Biso   1.000  C
  C200     1.0000 0.80840  0.39980  0.75570  Biso   1.000  C
  C201     1.0000 0.79270  0.26980  0.72270  Biso   1.000  C
  N67      1.0000 0.77925  0.44210  0.72910  Biso   1.000  N
  N68      1.0000 0.81696  0.31480  0.75280  Biso   1.000  N
  N69      1.0000 0.76314  0.30450  0.69420  Biso   1.000  N
  N70      1.0000 0.87790  0.54560  0.85970  Biso   1.000  N
  C202     1.0000 0.88320  0.45990  0.85380  Biso   1.000  C
  H133     1.0000 0.90370  0.43080  0.87300  Biso   1.000  H
  C203     1.0000 0.86060  0.41040  0.82100  Biso   1.000  C
  H134     1.0000 0.86460  0.34840  0.81900  Biso   1.000  H
  C204     1.0000 0.83230  0.45240  0.79180  Biso   1.000  C
  C205     1.0000 0.82680  0.54110  0.79750  Biso   1.000  C
  H135     1.0000 0.80750  0.57230  0.77770  Biso   1.000  H
  C206     1.0000 0.84930  0.58540  0.83220  Biso   1.000  C
  H136     1.0000 0.84420  0.64620  0.83660  Biso   1.000  H
  N71      1.0000 0.81280  0.99050  0.72100  Biso   1.000  N
  C207     1.0000 0.83790  0.04460  0.74430  Biso   1.000  C
  H137     1.0000 0.86090  0.02010  0.76120  Biso   1.000  H
  C208     1.0000 0.83260  0.13560  0.74570  Biso   1.000  C
  H138     1.0000 0.85130  0.17180  0.76350  Biso   1.000  H
  C209     1.0000 0.79970  0.17310  0.72080  Biso   1.000  C
  C210     1.0000 0.77330  0.11650  0.69570  Biso   1.000  C
  H139     1.0000 0.75040  0.13940  0.67800  Biso   1.000  H
  C211     1.0000 0.78060  0.02650  0.69670  Biso   1.000  C
  H140     1.0000 0.76210  0.98830  0.67970  Biso   1.000  H
  N72      1.0000 0.66851  0.52290  0.61030  Biso   1.000  N
  C212     1.0000 0.67540  0.43820  0.60510  Biso   1.000  C
  H141     1.0000 0.66030  0.40770  0.58110  Biso   1.000  H
  C213     1.0000 0.70420  0.39150  0.63340  Biso   1.000  C
  H142     1.0000 0.70840  0.33020  0.62920  Biso   1.000  H
  C214     1.0000 0.72650  0.43720  0.66760  Biso   1.000  C
  C215     1.0000 0.71880  0.52550  0.67340  Biso   1.000  C
  H143     1.0000 0.73340  0.55800  0.69700  Biso   1.000  H
  C216     1.0000 0.68970  0.56540  0.64440  Biso   1.000  C
  H144     1.0000 0.68420  0.62610  0.64860  Biso   1.000  H
  I42      1.0000 0.85880  0.81500  0.78910  Biso   1.000  I
  I43      1.0000 0.26258  0.73161  0.19407  Biso   1.000  I
  I44      1.0000 0.37010  0.67630  0.29610  Biso   1.000  I
  I45      1.0000 0.47244  0.85507  0.36748  Biso   1.000  I
  I46      1.0000 0.38225  0.76594  0.43859  Biso   1.000  I
  I47      1.0000 0.60526  0.27471  0.09839  Biso   1.000  I
  I48      1.0000 0.64424  0.41838  0.99206  Biso   1.000  I
  Zn19     1.0000 0.32418  0.64431  0.22092  Biso   1.000  Zn
  Zn20     1.0000 0.41713  0.88475  0.40559  Biso   1.000  Zn
  Zn21     1.0000 0.62546  0.41586  0.06536  Biso   1.000  Zn
  N73      1.0000 0.47744  0.73570  0.03110  Biso   1.000  N
  N74      1.0000 0.42425  0.77980  0.06170  Biso   1.000  N
  N75      1.0000 0.46260  0.65580  0.09060  Biso   1.000  N
  C217     1.0000 0.48360  0.67230  0.06080  Biso   1.000  C
  C218     1.0000 0.44790  0.78930  0.03420  Biso   1.000  C
  C219     1.0000 0.43220  0.70940  0.08820  Biso   1.000  C
  N76      1.0000 0.58084  0.50380  0.06320  Biso   1.000  N
  C220     1.0000 0.56240  0.54180  0.02720  Biso   1.000  C
  H145     1.0000 0.57130  0.53030  0.00130  Biso   1.000  H
  C221     1.0000 0.53110  0.59690  0.02450  Biso   1.000  C
  H146     1.0000 0.51880  0.62230  0.99750  Biso   1.000  H
  C222     1.0000 0.51820  0.61430  0.06170  Biso   1.000  C
  C223     1.0000 0.53790  0.57850  0.10040  Biso   1.000  C
  H147     1.0000 0.53000  0.59040  0.12670  Biso   1.000  H
  C224     1.0000 0.56910  0.52570  0.09990  Biso   1.000  C
  H148     1.0000 0.58320  0.50330  0.12670  Biso   1.000  H
  N77      1.0000 0.43090  0.01420  0.95100  Biso   1.000  N
  C225     1.0000 0.40500  0.99470  0.97520  Biso   1.000  C
  H149     1.0000 0.38280  0.03100  0.97340  Biso   1.000  H
  C226     1.0000 0.41030  0.92230  0.00260  Biso   1.000  C
  H150     1.0000 0.39190  0.90970  0.01970  Biso   1.000  H
  C227     1.0000 0.44170  0.86850  0.00560  Biso   1.000  C
  C228     1.0000 0.46870  0.89110  0.98070  Biso   1.000  C
  H151     1.0000 0.49110  0.85600  0.98210  Biso   1.000  H
  C229     1.0000 0.46230  0.96450  0.95420  Biso   1.000  C
  H152     1.0000 0.48090  0.98000  0.93770  Biso   1.000  H
  N78      1.0000 0.35780  0.65960  0.17490  Biso   1.000  N
  C230     1.0000 0.39270  0.62360  0.18100  Biso   1.000  C
  H153     1.0000 0.40070  0.58610  0.20550  Biso   1.000  H
  C231     1.0000 0.41770  0.63740  0.15410  Biso   1.000  C
  H154     1.0000 0.44240  0.61010  0.16000  Biso   1.000  H
  C232     1.0000 0.40690  0.69090  0.11840  Biso   1.000  C
  C233     1.0000 0.36980  0.72900  0.11090  Biso   1.000  C
  H155     1.0000 0.36080  0.76580  0.08640  Biso   1.000  H
  C234     1.0000 0.34660  0.71120  0.14040  Biso   1.000  C
  H156     1.0000 0.32170  0.73700  0.13560  Biso   1.000  H
  C235     1.0000 0.25850  0.10860  0.19920  Biso   1.000  C
  C236     1.0000 0.30840  0.10020  0.25570  Biso   1.000  C
  C237     1.0000 0.29270  0.23020  0.22270  Biso   1.000  C
  N79      1.0000 0.27925  0.05790  0.22910  Biso   1.000  N
  N80      1.0000 0.31696  0.18520  0.25280  Biso   1.000  N
  N81      1.0000 0.26314  0.19550  0.19420  Biso   1.000  N
  N82      1.0000 0.37790  0.95440  0.35970  Biso   1.000  N
  C238     1.0000 0.38320  0.04010  0.35380  Biso   1.000  C
  H157     1.0000 0.40370  0.06920  0.37300  Biso   1.000  H
  C239     1.0000 0.36060  0.08960  0.32100  Biso   1.000  C
  H158     1.0000 0.36460  0.15160  0.31900  Biso   1.000  H
  C240     1.0000 0.33230  0.04760  0.29180  Biso   1.000  C
  C241     1.0000 0.32680  0.95890  0.29750  Biso   1.000  C
  H159     1.0000 0.30750  0.92770  0.27770  Biso   1.000  H
  C242     1.0000 0.34930  0.91460  0.33220  Biso   1.000  C
  H160     1.0000 0.34420  0.85380  0.33660  Biso   1.000  H
  N83      1.0000 0.31280  0.50950  0.22100  Biso   1.000  N
  C243     1.0000 0.33790  0.45540  0.24430  Biso   1.000  C
  H161     1.0000 0.36090  0.47990  0.26120  Biso   1.000  H
  C244     1.0000 0.33260  0.36440  0.24570  Biso   1.000  C
  H162     1.0000 0.35130  0.32820  0.26350  Biso   1.000  H
  C245     1.0000 0.29970  0.32690  0.22080  Biso   1.000  C
  C246     1.0000 0.27330  0.38350  0.19570  Biso   1.000  C
  H163     1.0000 0.25040  0.36060  0.17800  Biso   1.000  H
  C247     1.0000 0.28060  0.47350  0.19670  Biso   1.000  C
  H164     1.0000 0.26210  0.51170  0.17970  Biso   1.000  H
  N84      1.0000 0.16851  0.97710  0.11030  Biso   1.000  N
  C248     1.0000 0.17540  0.06180  0.10510  Biso   1.000  C
  H165     1.0000 0.16030  0.09230  0.08110  Biso   1.000  H
  C249     1.0000 0.20420  0.10850  0.13340  Biso   1.000  C
  H166     1.0000 0.20840  0.16980  0.12920  Biso   1.000  H
  C250     1.0000 0.22650  0.06280  0.16760  Biso   1.000  C
  C251     1.0000 0.21880  0.97450  0.17340  Biso   1.000  C
  H167     1.0000 0.23340  0.94200  0.19700  Biso   1.000  H
  C252     1.0000 0.18970  0.93460  0.14440  Biso   1.000  C
  H168     1.0000 0.18420  0.87390  0.14860  Biso   1.000  H
  I49      1.0000 0.35880  0.68500  0.28910  Biso   1.000  I
  I50      1.0000 0.76258  0.23161  0.19407  Biso   1.000  I
  I51      1.0000 0.87010  0.17630  0.29610  Biso   1.000  I
  I52      1.0000 0.97244  0.35507  0.36748  Biso   1.000  I
  I53      1.0000 0.88225  0.26594  0.43859  Biso   1.000  I
  I54      1.0000 0.10526  0.77471  0.09839  Biso   1.000  I
  I55      1.0000 0.14424  0.91838  0.99206  Biso   1.000  I
  Zn22     1.0000 0.82418  0.14431  0.22092  Biso   1.000  Zn
  Zn23     1.0000 0.91713  0.38475  0.40559  Biso   1.000  Zn
  Zn24     1.0000 0.12546  0.91586  0.06536  Biso   1.000  Zn
  N85      1.0000 0.97744  0.23570  0.03110  Biso   1.000  N
  N86      1.0000 0.92425  0.27980  0.06170  Biso   1.000  N
  N87      1.0000 0.96260  0.15580  0.09060  Biso   1.000  N
  C253     1.0000 0.98360  0.17230  0.06080  Biso   1.000  C
  C254     1.0000 0.94790  0.28930  0.03420  Biso   1.000  C
  C255     1.0000 0.93220  0.20940  0.08820  Biso   1.000  C
  N88      1.0000 0.08084  0.00380  0.06320  Biso   1.000  N
  C256     1.0000 0.06240  0.04180  0.02720  Biso   1.000  C
  H169     1.0000 0.07130  0.03030  0.00130  Biso   1.000  H
  C257     1.0000 0.03110  0.09690  0.02450  Biso   1.000  C
  H170     1.0000 0.01880  0.12230  0.99750  Biso   1.000  H
  C258     1.0000 0.01820  0.11430  0.06170  Biso   1.000  C
  C259     1.0000 0.03790  0.07850  0.10040  Biso   1.000  C
  H171     1.0000 0.03000  0.09040  0.12670  Biso   1.000  H
  C260     1.0000 0.06910  0.02570  0.09990  Biso   1.000  C
  H172     1.0000 0.08320  0.00330  0.12670  Biso   1.000  H
  N89      1.0000 0.93090  0.51420  0.95100  Biso   1.000  N
  C261     1.0000 0.90500  0.49470  0.97520  Biso   1.000  C
  H173     1.0000 0.88280  0.53100  0.97340  Biso   1.000  H
  C262     1.0000 0.91030  0.42230  0.00260  Biso   1.000  C
  H174     1.0000 0.89190  0.40970  0.01970  Biso   1.000  H
  C263     1.0000 0.94170  0.36850  0.00560  Biso   1.000  C
  C264     1.0000 0.96870  0.39110  0.98070  Biso   1.000  C
  H175     1.0000 0.99110  0.35600  0.98210  Biso   1.000  H
  C265     1.0000 0.96230  0.46450  0.95420  Biso   1.000  C
  H176     1.0000 0.98090  0.48000  0.93770  Biso   1.000  H
  N90      1.0000 0.85780  0.15960  0.17490  Biso   1.000  N
  C266     1.0000 0.89270  0.12360  0.18100  Biso   1.000  C
  H177     1.0000 0.90070  0.08610  0.20550  Biso   1.000  H
  C267     1.0000 0.91770  0.13740  0.15410  Biso   1.000  C
  H178     1.0000 0.94240  0.11010  0.16000  Biso   1.000  H
  C268     1.0000 0.90690  0.19090  0.11840  Biso   1.000  C
  C269     1.0000 0.86980  0.22900  0.11090  Biso   1.000  C
  H179     1.0000 0.86080  0.26580  0.08640  Biso   1.000  H
  C270     1.0000 0.84660  0.21120  0.14040  Biso   1.000  C
  H180     1.0000 0.82170  0.23700  0.13560  Biso   1.000  H
  C271     1.0000 0.75850  0.60860  0.19920  Biso   1.000  C
  C272     1.0000 0.80840  0.60020  0.25570  Biso   1.000  C
  C273     1.0000 0.79270  0.73020  0.22270  Biso   1.000  C
  N91      1.0000 0.77925  0.55790  0.22910  Biso   1.000  N
  N92      1.0000 0.81696  0.68520  0.25280  Biso   1.000  N
  N93      1.0000 0.76314  0.69550  0.19420  Biso   1.000  N
  N94      1.0000 0.87790  0.45440  0.35970  Biso   1.000  N
  C274     1.0000 0.88320  0.54010  0.35380  Biso   1.000  C
  H181     1.0000 0.90370  0.56920  0.37300  Biso   1.000  H
  C275     1.0000 0.86060  0.58960  0.32100  Biso   1.000  C
  H182     1.0000 0.86460  0.65160  0.31900  Biso   1.000  H
  C276     1.0000 0.83230  0.54760  0.29180  Biso   1.000  C
  C277     1.0000 0.82680  0.45890  0.29750  Biso   1.000  C
  H183     1.0000 0.80750  0.42770  0.27770  Biso   1.000  H
  C278     1.0000 0.84930  0.41460  0.33220  Biso   1.000  C
  H184     1.0000 0.84420  0.35380  0.33660  Biso   1.000  H
  N95      1.0000 0.81280  0.00950  0.22100  Biso   1.000  N
  C279     1.0000 0.83790  0.95540  0.24430  Biso   1.000  C
  H185     1.0000 0.86090  0.97990  0.26120  Biso   1.000  H
  C280     1.0000 0.83260  0.86440  0.24570  Biso   1.000  C
  H186     1.0000 0.85130  0.82820  0.26350  Biso   1.000  H
  C281     1.0000 0.79970  0.82690  0.22080  Biso   1.000  C
  C282     1.0000 0.77330  0.88350  0.19570  Biso   1.000  C
  H187     1.0000 0.75040  0.86060  0.17800  Biso   1.000  H
  C283     1.0000 0.78060  0.97350  0.19670  Biso   1.000  C
  H188     1.0000 0.76210  0.01170  0.17970  Biso   1.000  H
  N96      1.0000 0.66851  0.47710  0.11030  Biso   1.000  N
  C284     1.0000 0.67540  0.56180  0.10510  Biso   1.000  C
  H189     1.0000 0.66030  0.59230  0.08110  Biso   1.000  H
  C285     1.0000 0.70420  0.60850  0.13340  Biso   1.000  C
  H190     1.0000 0.70840  0.66980  0.12920  Biso   1.000  H
  C286     1.0000 0.72650  0.56280  0.16760  Biso   1.000  C
  C287     1.0000 0.71880  0.47450  0.17340  Biso   1.000  C
  H191     1.0000 0.73340  0.44200  0.19700  Biso   1.000  H
  C288     1.0000 0.68970  0.43460  0.14440  Biso   1.000  C
  H192     1.0000 0.68420  0.37390  0.14860  Biso   1.000  H
  I56      1.0000 0.85880  0.18500  0.28910  Biso   1.000  I
