data_image0
_cell_length_a       33.1436
_cell_length_b       12.1866
_cell_length_c       18.7113
_cell_angle_alpha    90
_cell_angle_beta     90
_cell_angle_gamma    90

_symmetry_space_group_name_H-M    "P 1"
_symmetry_int_tables_number       1

loop_
  _symmetry_equiv_pos_as_xyz
  'x, y, z'

loop_
  _atom_site_label
  _atom_site_occupancy
  _atom_site_fract_x
  _atom_site_fract_y
  _atom_site_fract_z
  _atom_site_thermal_displace_type
  _atom_site_B_iso_or_equiv
  _atom_site_type_symbol
  N1       1.0000 0.32677  0.10720  0.81190  Biso   1.000  N
  N2       1.0000 0.28217  0.18210  0.68310  Biso   1.000  N
  N3       1.0000 0.87743  0.18350  0.31690  Biso   1.000  N
  O1       1.0000 0.07894  0.12160  0.51230  Biso   1.000  O
  S1       1.0000 0.31027  0.90710  0.87958  Biso   1.000  S
  C1       1.0000 0.31993  0.02440  0.84070  Biso   1.000  C
  C2       1.0000 0.28266  0.19090  0.61180  Biso   1.000  C
  H1       1.0000 0.30530  0.22190  0.59060  Biso   1.000  H
  C3       1.0000 0.25198  0.15720  0.56800  Biso   1.000  C
  H2       1.0000 0.25420  0.16370  0.51870  Biso   1.000  H
  C4       1.0000 0.21710  0.11260  0.59930  Biso   1.000  C
  C5       1.0000 0.21571  0.10530  0.67250  Biso   1.000  C
  H3       1.0000 0.19280  0.07800  0.69500  Biso   1.000  H
  C6       1.0000 0.24866  0.13860  0.71270  Biso   1.000  C
  H4       1.0000 0.24760  0.13070  0.76210  Biso   1.000  H
  C7       1.0000 0.18409  0.07360  0.55640  Biso   1.000  C
  C8       1.0000 0.15683  0.03490  0.52410  Biso   1.000  C
  C9       1.0000 0.12585  0.98240  0.48190  Biso   1.000  C
  C10      1.0000 0.13323  0.88320  0.44920  Biso   1.000  C
  H5       1.0000 0.15830  0.85030  0.45480  Biso   1.000  H
  C11      1.0000 0.10420  0.83140  0.40840  Biso   1.000  C
  H6       1.0000 0.10990  0.76540  0.38560  Biso   1.000  H
  C12      1.0000 0.06595  0.88080  0.40220  Biso   1.000  C
  H7       1.0000 0.04580  0.84500  0.37660  Biso   1.000  H
  C13      1.0000 0.05777  0.98080  0.43320  Biso   1.000  C
  C14      1.0000 0.08760  0.03180  0.47370  Biso   1.000  C
  C15      1.0000 0.01916  0.03160  0.42140  Biso   1.000  C
  C16      1.0000 0.98726  0.06700  0.40490  Biso   1.000  C
  C17      1.0000 0.94899  0.10790  0.37860  Biso   1.000  C
  C18      1.0000 0.92388  0.03710  0.34100  Biso   1.000  C
  H8       1.0000 0.93070  0.96360  0.33530  Biso   1.000  H
  C19      1.0000 0.88861  0.07830  0.31220  Biso   1.000  C
  H9       1.0000 0.87170  0.03010  0.28810  Biso   1.000  H
  C20      1.0000 0.90120  0.24920  0.35570  Biso   1.000  C
  H10      1.0000 0.89330  0.32170  0.36230  Biso   1.000  H
  C21      1.0000 0.93701  0.21490  0.38660  Biso   1.000  C
  H11      1.0000 0.95280  0.26390  0.41260  Biso   1.000  H
  C22      1.0000 0.08500  0.21810  0.48720  Biso   1.000  C
  H12      1.0000 0.11070  0.21790  0.46250  Biso   1.000  H
  H13      1.0000 0.06430  0.23300  0.45180  Biso   1.000  H
  C23      1.0000 0.08530  0.31280  0.54070  Biso   1.000  C
  H14      1.0000 0.09410  0.37900  0.51650  Biso   1.000  H
  H15      1.0000 0.10470  0.29670  0.57810  Biso   1.000  H
  C24      1.0000 0.04530  0.33360  0.57400  Biso   1.000  C
  F1       1.0000 0.03510  0.24290  0.61290  Biso   1.000  F
  F2       1.0000 0.01700  0.32770  0.51960  Biso   1.000  F
  C25      1.0000 0.04180  0.43460  0.61510  Biso   1.000  C
  F3       1.0000 0.04610  0.51850  0.56730  Biso   1.000  F
  F4       1.0000 0.07690  0.44520  0.65380  Biso   1.000  F
  C26      1.0000 0.01120  0.46990  0.66560  Biso   1.000  C
  F5       1.0000 0.02130  0.57500  0.69340  Biso   1.000  F
  F6       1.0000 0.01390  0.40700  0.72920  Biso   1.000  F
  C27      1.0000 0.96870  0.47000  0.64920  Biso   1.000  C
  F7       1.0000 0.95820  0.36120  0.64660  Biso   1.000  F
  F8       1.0000 0.96500  0.51490  0.58220  Biso   1.000  F
  C28      1.0000 0.94060  0.52650  0.69320  Biso   1.000  C
  F9       1.0000 0.94160  0.63870  0.67640  Biso   1.000  F
  F10      1.0000 0.95040  0.53500  0.76410  Biso   1.000  F
  C29      1.0000 0.89890  0.49030  0.68640  Biso   1.000  C
  F11      1.0000 0.89360  0.39440  0.71000  Biso   1.000  F
  F12      1.0000 0.87480  0.55500  0.71880  Biso   1.000  F
  F13      1.0000 0.88530  0.49300  0.62270  Biso   1.000  F
  C30      1.0000 0.79260  0.20030  0.92510  Biso   1.000  C
  H16      1.0000 0.80350  0.25800  0.95510  Biso   1.000  H
  H17      1.0000 0.76360  0.20950  0.92760  Biso   1.000  H
  C31      1.0000 0.80250  0.24200  0.84880  Biso   1.000  C
  H18      1.0000 0.78040  0.29210  0.84040  Biso   1.000  H
  H19      1.0000 0.82560  0.28840  0.85790  Biso   1.000  H
  O2       1.0000 0.79940  0.10160  0.96820  Biso   1.000  O
  H20      1.0000 0.78960  0.11040  0.00810  Biso   1.000  H
  O3       1.0000 0.81100  0.20400  0.77690  Biso   1.000  O
  H21      1.0000 0.81460  0.24240  0.74910  Biso   1.000  H
  C32      1.0000 0.73700  0.12000  0.03200  Biso   1.000  C
  H22      1.0000 0.72100  0.15870  0.99570  Biso   1.000  H
  H23      1.0000 0.72580  0.14520  0.07680  Biso   1.000  H
  C33      1.0000 0.71900  0.00400  0.02700  Biso   1.000  C
  H24      1.0000 0.72120  0.97980  0.07590  Biso   1.000  H
  H25      1.0000 0.69080  0.01930  0.01960  Biso   1.000  H
  O4       1.0000 0.77500  0.18100  0.02900  Biso   1.000  O
  H26      1.0000 0.79230  0.14150  0.01150  Biso   1.000  H
  O5       1.0000 0.72370  0.90100  0.98800  Biso   1.000  O
  H27      1.0000 0.70150  0.88000  0.97430  Biso   1.000  H
  C34      1.0000 0.58940  0.21730  0.52240  Biso   1.000  C
  C35      1.0000 0.54530  0.15600  0.47400  Biso   1.000  C
  C36      1.0000 0.69260  0.83800  0.92440  Biso   1.000  C
  C37      1.0000 0.57580  0.20900  0.04360  Biso   1.000  C
  C38      1.0000 0.51110  0.20500  0.42400  Biso   1.000  C
  C39      1.0000 0.72750  0.75900  0.91500  Biso   1.000  C
  C40      1.0000 0.53760  0.17730  0.08330  Biso   1.000  C
  C41      1.0000 0.53820  0.21900  0.11500  Biso   1.000  C
  C42      1.0000 0.52350  0.07050  0.11160  Biso   1.000  C
  C43      1.0000 0.52660  0.12800  0.16080  Biso   1.000  C
  C44      1.0000 0.48300  0.06280  0.14320  Biso   1.000  C
  C45      1.0000 0.49790  0.05130  0.13100  Biso   1.000  C
  C46      1.0000 0.46210  0.96890  0.17820  Biso   1.000  C
  C47      1.0000 0.47740  0.95780  0.16770  Biso   1.000  C
  C48      1.0000 0.41970  0.95040  0.18730  Biso   1.000  C
  C49      1.0000 0.44020  0.93580  0.20790  Biso   1.000  C
  C50      1.0000 0.40730  0.85800  0.23200  Biso   1.000  C
  C51      1.0000 0.43050  0.83100  0.24080  Biso   1.000  C
  F14      1.0000 0.40220  0.04600  0.21350  Biso   1.000  F
  F15      1.0000 0.40780  0.96600  0.16500  Biso   1.000  F
  F16      1.0000 0.41290  0.76730  0.20160  Biso   1.000  F
  F17      1.0000 0.42660  0.75530  0.19480  Biso   1.000  F
  F18      1.0000 0.41500  0.87100  0.29710  Biso   1.000  F
  F19      1.0000 0.45880  0.78500  0.27290  Biso   1.000  F
  F20      1.0000 0.36950  0.84800  0.23760  Biso   1.000  F
  F21      1.0000 0.39500  0.82300  0.26400  Biso   1.000  F
  F22      1.0000 0.50610  0.21070  0.03850  Biso   1.000  F
  F23      1.0000 0.56660  0.18100  0.06500  Biso   1.000  F
  F24      1.0000 0.53730  0.24910  0.14370  Biso   1.000  F
  F25      1.0000 0.56700  0.21800  0.34900  Biso   1.000  F
  F26      1.0000 0.54920  0.03960  0.16140  Biso   1.000  F
  F27      1.0000 0.50900  0.17100  0.22000  Biso   1.000  F
  F28      1.0000 0.52630  0.99510  0.05980  Biso   1.000  F
  F29      1.0000 0.56120  0.07500  0.17600  Biso   1.000  F
  F30      1.0000 0.45590  0.09450  0.08660  Biso   1.000  F
  F31      1.0000 0.46330  0.12160  0.11090  Biso   1.000  F
  F32      1.0000 0.48230  0.14630  0.19720  Biso   1.000  F
  F33      1.0000 0.51950  0.99400  0.07400  Biso   1.000  F
  F34      1.0000 0.47770  0.87960  0.14510  Biso   1.000  F
  F35      1.0000 0.47480  0.88330  0.11090  Biso   1.000  F
  F36      1.0000 0.47810  0.97100  0.24650  Biso   1.000  F
  F37      1.0000 0.50730  0.90740  0.20550  Biso   1.000  F
  F38      1.0000 0.40100  0.93600  0.12110  Biso   1.000  F
  F39      1.0000 0.43530  0.01900  0.25720  Biso   1.000  F
  H28      1.0000 0.61800  0.22240  0.53270  Biso   1.000  H
  H29      1.0000 0.57360  0.23040  0.56520  Biso   1.000  H
  H30      1.0000 0.54400  0.21170  0.51150  Biso   1.000  H
  H31      1.0000 0.52990  0.09560  0.49380  Biso   1.000  H
  H32      1.0000 0.70070  0.89670  0.89230  Biso   1.000  H
  H33      1.0000 0.67160  0.79950  0.89860  Biso   1.000  H
  H34      1.0000 0.64950  0.92870  0.95530  Biso   1.000  H
  H35      1.0000 0.58700  0.13770  0.03130  Biso   1.000  H
  H36      1.0000 0.59290  0.23590  0.08180  Biso   1.000  H
  H37      1.0000 0.49920  0.15010  0.39300  Biso   1.000  H
  H38      1.0000 0.49020  0.24330  0.45040  Biso   1.000  H
  H39      1.0000 0.74650  0.80930  0.89250  Biso   1.000  H
  H40      1.0000 0.73650  0.75640  0.96430  Biso   1.000  H
  H41      1.0000 0.73150  0.16700  0.61900  Biso   1.000  H
  O6       1.0000 0.66850  0.89900  0.97590  Biso   1.000  O
  O7       1.0000 0.74460  0.65800  0.89070  Biso   1.000  O
  N4       1.0000 0.17323  0.89280  0.81190  Biso   1.000  N
  N5       1.0000 0.21783  0.81790  0.68310  Biso   1.000  N
  N6       1.0000 0.62257  0.81650  0.31690  Biso   1.000  N
  O8       1.0000 0.42106  0.87840  0.51230  Biso   1.000  O
  S2       1.0000 0.18973  0.09290  0.87958  Biso   1.000  S
  C52      1.0000 0.18007  0.97560  0.84070  Biso   1.000  C
  C53      1.0000 0.21734  0.80910  0.61180  Biso   1.000  C
  H42      1.0000 0.19470  0.77810  0.59060  Biso   1.000  H
  C54      1.0000 0.24802  0.84280  0.56800  Biso   1.000  C
  H43      1.0000 0.24580  0.83630  0.51870  Biso   1.000  H
  C55      1.0000 0.28290  0.88740  0.59930  Biso   1.000  C
  C56      1.0000 0.28429  0.89470  0.67250  Biso   1.000  C
  H44      1.0000 0.30720  0.92200  0.69500  Biso   1.000  H
  C57      1.0000 0.25134  0.86140  0.71270  Biso   1.000  C
  H45      1.0000 0.25240  0.86930  0.76210  Biso   1.000  H
  C58      1.0000 0.31591  0.92640  0.55640  Biso   1.000  C
  C59      1.0000 0.34317  0.96510  0.52410  Biso   1.000  C
  C60      1.0000 0.37415  0.01760  0.48190  Biso   1.000  C
  C61      1.0000 0.36677  0.11680  0.44920  Biso   1.000  C
  H46      1.0000 0.34170  0.14970  0.45480  Biso   1.000  H
  C62      1.0000 0.39580  0.16860  0.40840  Biso   1.000  C
  H47      1.0000 0.39010  0.23460  0.38560  Biso   1.000  H
  C63      1.0000 0.43405  0.11920  0.40220  Biso   1.000  C
  H48      1.0000 0.45420  0.15500  0.37660  Biso   1.000  H
  C64      1.0000 0.44223  0.01920  0.43320  Biso   1.000  C
  C65      1.0000 0.41240  0.96820  0.47370  Biso   1.000  C
  C66      1.0000 0.48084  0.96840  0.42140  Biso   1.000  C
  C67      1.0000 0.51274  0.93300  0.40490  Biso   1.000  C
  C68      1.0000 0.55101  0.89210  0.37860  Biso   1.000  C
  C69      1.0000 0.57612  0.96290  0.34100  Biso   1.000  C
  H49      1.0000 0.56930  0.03640  0.33530  Biso   1.000  H
  C70      1.0000 0.61139  0.92170  0.31220  Biso   1.000  C
  H50      1.0000 0.62830  0.96990  0.28810  Biso   1.000  H
  C71      1.0000 0.59880  0.75080  0.35570  Biso   1.000  C
  H51      1.0000 0.60670  0.67830  0.36230  Biso   1.000  H
  C72      1.0000 0.56299  0.78510  0.38660  Biso   1.000  C
  H52      1.0000 0.54720  0.73610  0.41260  Biso   1.000  H
  C73      1.0000 0.41500  0.78190  0.48720  Biso   1.000  C
  H53      1.0000 0.38930  0.78210  0.46250  Biso   1.000  H
  H54      1.0000 0.43570  0.76700  0.45180  Biso   1.000  H
  C74      1.0000 0.41470  0.68720  0.54070  Biso   1.000  C
  H55      1.0000 0.40590  0.62100  0.51650  Biso   1.000  H
  H56      1.0000 0.39530  0.70330  0.57810  Biso   1.000  H
  C75      1.0000 0.45470  0.66640  0.57400  Biso   1.000  C
  F40      1.0000 0.46490  0.75710  0.61290  Biso   1.000  F
  F41      1.0000 0.48300  0.67230  0.51960  Biso   1.000  F
  C76      1.0000 0.45820  0.56540  0.61510  Biso   1.000  C
  F42      1.0000 0.45390  0.48150  0.56730  Biso   1.000  F
  F43      1.0000 0.42310  0.55480  0.65380  Biso   1.000  F
  C77      1.0000 0.48880  0.53010  0.66560  Biso   1.000  C
  F44      1.0000 0.47870  0.42500  0.69340  Biso   1.000  F
  F45      1.0000 0.48610  0.59300  0.72920  Biso   1.000  F
  C78      1.0000 0.53130  0.53000  0.64920  Biso   1.000  C
  F46      1.0000 0.54180  0.63880  0.64660  Biso   1.000  F
  F47      1.0000 0.53500  0.48510  0.58220  Biso   1.000  F
  C79      1.0000 0.55940  0.47350  0.69320  Biso   1.000  C
  F48      1.0000 0.55840  0.36130  0.67640  Biso   1.000  F
  F49      1.0000 0.54960  0.46500  0.76410  Biso   1.000  F
  C80      1.0000 0.60110  0.50970  0.68640  Biso   1.000  C
  F50      1.0000 0.60640  0.60560  0.71000  Biso   1.000  F
  F51      1.0000 0.62520  0.44500  0.71880  Biso   1.000  F
  F52      1.0000 0.61470  0.50700  0.62270  Biso   1.000  F
  C81      1.0000 0.70740  0.79970  0.92510  Biso   1.000  C
  H57      1.0000 0.69650  0.74200  0.95510  Biso   1.000  H
  H58      1.0000 0.73640  0.79050  0.92760  Biso   1.000  H
  C82      1.0000 0.69750  0.75800  0.84880  Biso   1.000  C
  H59      1.0000 0.71960  0.70790  0.84040  Biso   1.000  H
  H60      1.0000 0.67440  0.71160  0.85790  Biso   1.000  H
  O9       1.0000 0.70060  0.89840  0.96820  Biso   1.000  O
  H61      1.0000 0.71040  0.88960  0.00810  Biso   1.000  H
  O10      1.0000 0.68900  0.79600  0.77690  Biso   1.000  O
  H62      1.0000 0.68540  0.75760  0.74910  Biso   1.000  H
  C83      1.0000 0.76300  0.88000  0.03200  Biso   1.000  C
  H63      1.0000 0.77900  0.84130  0.99570  Biso   1.000  H
  H64      1.0000 0.77420  0.85480  0.07680  Biso   1.000  H
  C84      1.0000 0.78100  0.99600  0.02700  Biso   1.000  C
  H65      1.0000 0.77880  0.02020  0.07590  Biso   1.000  H
  H66      1.0000 0.80920  0.98070  0.01960  Biso   1.000  H
  O11      1.0000 0.72500  0.81900  0.02900  Biso   1.000  O
  H67      1.0000 0.70770  0.85850  0.01150  Biso   1.000  H
  O12      1.0000 0.77630  0.09900  0.98800  Biso   1.000  O
  H68      1.0000 0.79850  0.12000  0.97430  Biso   1.000  H
  C85      1.0000 0.91060  0.78270  0.52240  Biso   1.000  C
  C86      1.0000 0.95470  0.84400  0.47400  Biso   1.000  C
  C87      1.0000 0.80740  0.16200  0.92440  Biso   1.000  C
  C88      1.0000 0.92420  0.79100  0.04360  Biso   1.000  C
  C89      1.0000 0.98890  0.79500  0.42400  Biso   1.000  C
  C90      1.0000 0.77250  0.24100  0.91500  Biso   1.000  C
  C91      1.0000 0.96240  0.82270  0.08330  Biso   1.000  C
  C92      1.0000 0.96180  0.78100  0.11500  Biso   1.000  C
  C93      1.0000 0.97650  0.92950  0.11160  Biso   1.000  C
  C94      1.0000 0.97340  0.87200  0.16080  Biso   1.000  C
  C95      1.0000 0.01700  0.93720  0.14320  Biso   1.000  C
  C96      1.0000 0.00210  0.94870  0.13100  Biso   1.000  C
  C97      1.0000 0.03790  0.03110  0.17820  Biso   1.000  C
  C98      1.0000 0.02260  0.04220  0.16770  Biso   1.000  C
  C99      1.0000 0.08030  0.04960  0.18730  Biso   1.000  C
  C100     1.0000 0.05980  0.06420  0.20790  Biso   1.000  C
  C101     1.0000 0.09270  0.14200  0.23200  Biso   1.000  C
  C102     1.0000 0.06950  0.16900  0.24080  Biso   1.000  C
  F53      1.0000 0.09780  0.95400  0.21350  Biso   1.000  F
  F54      1.0000 0.09220  0.03400  0.16500  Biso   1.000  F
  F55      1.0000 0.08710  0.23270  0.20160  Biso   1.000  F
  F56      1.0000 0.07340  0.24470  0.19480  Biso   1.000  F
  F57      1.0000 0.08500  0.12900  0.29710  Biso   1.000  F
  F58      1.0000 0.04120  0.21500  0.27290  Biso   1.000  F
  F59      1.0000 0.13050  0.15200  0.23760  Biso   1.000  F
  F60      1.0000 0.10500  0.17700  0.26400  Biso   1.000  F
  F61      1.0000 0.99390  0.78930  0.03850  Biso   1.000  F
  F62      1.0000 0.93340  0.81900  0.06500  Biso   1.000  F
  F63      1.0000 0.96270  0.75090  0.14370  Biso   1.000  F
  F64      1.0000 0.93300  0.78200  0.34900  Biso   1.000  F
  F65      1.0000 0.95080  0.96040  0.16140  Biso   1.000  F
  F66      1.0000 0.99100  0.82900  0.22000  Biso   1.000  F
  F67      1.0000 0.97370  0.00490  0.05980  Biso   1.000  F
  F68      1.0000 0.93880  0.92500  0.17600  Biso   1.000  F
  F69      1.0000 0.04410  0.90550  0.08660  Biso   1.000  F
  F70      1.0000 0.03670  0.87840  0.11090  Biso   1.000  F
  F71      1.0000 0.01770  0.85370  0.19720  Biso   1.000  F
  F72      1.0000 0.98050  0.00600  0.07400  Biso   1.000  F
  F73      1.0000 0.02230  0.12040  0.14510  Biso   1.000  F
  F74      1.0000 0.02520  0.11670  0.11090  Biso   1.000  F
  F75      1.0000 0.02190  0.02900  0.24650  Biso   1.000  F
  F76      1.0000 0.99270  0.09260  0.20550  Biso   1.000  F
  F77      1.0000 0.09900  0.06400  0.12110  Biso   1.000  F
  F78      1.0000 0.06470  0.98100  0.25720  Biso   1.000  F
  H69      1.0000 0.88200  0.77760  0.53270  Biso   1.000  H
  H70      1.0000 0.92640  0.76960  0.56520  Biso   1.000  H
  H71      1.0000 0.95600  0.78830  0.51150  Biso   1.000  H
  H72      1.0000 0.97010  0.90440  0.49380  Biso   1.000  H
  H73      1.0000 0.79930  0.10330  0.89230  Biso   1.000  H
  H74      1.0000 0.82840  0.20050  0.89860  Biso   1.000  H
  H75      1.0000 0.85050  0.07130  0.95530  Biso   1.000  H
  H76      1.0000 0.91300  0.86230  0.03130  Biso   1.000  H
  H77      1.0000 0.90710  0.76410  0.08180  Biso   1.000  H
  H78      1.0000 0.00080  0.84990  0.39300  Biso   1.000  H
  H79      1.0000 0.00980  0.75670  0.45040  Biso   1.000  H
  H80      1.0000 0.75350  0.19070  0.89250  Biso   1.000  H
  H81      1.0000 0.76350  0.24360  0.96430  Biso   1.000  H
  H82      1.0000 0.76850  0.83300  0.61900  Biso   1.000  H
  O13      1.0000 0.83150  0.10100  0.97590  Biso   1.000  O
  O14      1.0000 0.75540  0.34200  0.89070  Biso   1.000  O
  N7       1.0000 0.17323  0.60720  0.68810  Biso   1.000  N
  N8       1.0000 0.21783  0.68210  0.81690  Biso   1.000  N
  N9       1.0000 0.62257  0.68350  0.18310  Biso   1.000  N
  O15      1.0000 0.42106  0.62160  0.98770  Biso   1.000  O
  S3       1.0000 0.18973  0.40710  0.62042  Biso   1.000  S
  C103     1.0000 0.18007  0.52440  0.65930  Biso   1.000  C
  C104     1.0000 0.21734  0.69090  0.88820  Biso   1.000  C
  H83      1.0000 0.19470  0.72190  0.90940  Biso   1.000  H
  C105     1.0000 0.24802  0.65720  0.93200  Biso   1.000  C
  H84      1.0000 0.24580  0.66370  0.98130  Biso   1.000  H
  C106     1.0000 0.28290  0.61260  0.90070  Biso   1.000  C
  C107     1.0000 0.28429  0.60530  0.82750  Biso   1.000  C
  H85      1.0000 0.30720  0.57800  0.80500  Biso   1.000  H
  C108     1.0000 0.25134  0.63860  0.78730  Biso   1.000  C
  H86      1.0000 0.25240  0.63070  0.73790  Biso   1.000  H
  C109     1.0000 0.31591  0.57360  0.94360  Biso   1.000  C
  C110     1.0000 0.34317  0.53490  0.97590  Biso   1.000  C
  C111     1.0000 0.37415  0.48240  0.01810  Biso   1.000  C
  C112     1.0000 0.36677  0.38320  0.05080  Biso   1.000  C
  H87      1.0000 0.34170  0.35030  0.04520  Biso   1.000  H
  C113     1.0000 0.39580  0.33140  0.09160  Biso   1.000  C
  H88      1.0000 0.39010  0.26540  0.11440  Biso   1.000  H
  C114     1.0000 0.43405  0.38080  0.09780  Biso   1.000  C
  H89      1.0000 0.45420  0.34500  0.12340  Biso   1.000  H
  C115     1.0000 0.44223  0.48080  0.06680  Biso   1.000  C
  C116     1.0000 0.41240  0.53180  0.02630  Biso   1.000  C
  C117     1.0000 0.48084  0.53160  0.07860  Biso   1.000  C
  C118     1.0000 0.51274  0.56700  0.09510  Biso   1.000  C
  C119     1.0000 0.55101  0.60790  0.12140  Biso   1.000  C
  C120     1.0000 0.57612  0.53710  0.15900  Biso   1.000  C
  H90      1.0000 0.56930  0.46360  0.16470  Biso   1.000  H
  C121     1.0000 0.61139  0.57830  0.18780  Biso   1.000  C
  H91      1.0000 0.62830  0.53010  0.21190  Biso   1.000  H
  C122     1.0000 0.59880  0.74920  0.14430  Biso   1.000  C
  H92      1.0000 0.60670  0.82170  0.13770  Biso   1.000  H
  C123     1.0000 0.56299  0.71490  0.11340  Biso   1.000  C
  H93      1.0000 0.54720  0.76390  0.08740  Biso   1.000  H
  C124     1.0000 0.41500  0.71810  0.01280  Biso   1.000  C
  H94      1.0000 0.38930  0.71790  0.03750  Biso   1.000  H
  H95      1.0000 0.43570  0.73300  0.04820  Biso   1.000  H
  C125     1.0000 0.41470  0.81280  0.95930  Biso   1.000  C
  H96      1.0000 0.40590  0.87900  0.98350  Biso   1.000  H
  H97      1.0000 0.39530  0.79670  0.92190  Biso   1.000  H
  C126     1.0000 0.45470  0.83360  0.92600  Biso   1.000  C
  F79      1.0000 0.46490  0.74290  0.88710  Biso   1.000  F
  F80      1.0000 0.48300  0.82770  0.98040  Biso   1.000  F
  C127     1.0000 0.45820  0.93460  0.88490  Biso   1.000  C
  F81      1.0000 0.45390  0.01850  0.93270  Biso   1.000  F
  F82      1.0000 0.42310  0.94520  0.84620  Biso   1.000  F
  C128     1.0000 0.48880  0.96990  0.83440  Biso   1.000  C
  F83      1.0000 0.47870  0.07500  0.80660  Biso   1.000  F
  F84      1.0000 0.48610  0.90700  0.77080  Biso   1.000  F
  C129     1.0000 0.53130  0.97000  0.85080  Biso   1.000  C
  F85      1.0000 0.54180  0.86120  0.85340  Biso   1.000  F
  F86      1.0000 0.53500  0.01490  0.91780  Biso   1.000  F
  C130     1.0000 0.55940  0.02650  0.80680  Biso   1.000  C
  F87      1.0000 0.55840  0.13870  0.82360  Biso   1.000  F
  F88      1.0000 0.54960  0.03500  0.73590  Biso   1.000  F
  C131     1.0000 0.60110  0.99030  0.81360  Biso   1.000  C
  F89      1.0000 0.60640  0.89440  0.79000  Biso   1.000  F
  F90      1.0000 0.62520  0.05500  0.78120  Biso   1.000  F
  F91      1.0000 0.61470  0.99300  0.87730  Biso   1.000  F
  C132     1.0000 0.70740  0.70030  0.57490  Biso   1.000  C
  H98      1.0000 0.69650  0.75800  0.54490  Biso   1.000  H
  H99      1.0000 0.73640  0.70950  0.57240  Biso   1.000  H
  C133     1.0000 0.69750  0.74200  0.65120  Biso   1.000  C
  H100     1.0000 0.71960  0.79210  0.65960  Biso   1.000  H
  H101     1.0000 0.67440  0.78840  0.64210  Biso   1.000  H
  O16      1.0000 0.70060  0.60160  0.53180  Biso   1.000  O
  H102     1.0000 0.71040  0.61040  0.49190  Biso   1.000  H
  O17      1.0000 0.68900  0.70400  0.72310  Biso   1.000  O
  H103     1.0000 0.68540  0.74240  0.75090  Biso   1.000  H
  C134     1.0000 0.76300  0.62000  0.46800  Biso   1.000  C
  H104     1.0000 0.77900  0.65870  0.50430  Biso   1.000  H
  H105     1.0000 0.77420  0.64520  0.42320  Biso   1.000  H
  C135     1.0000 0.78100  0.50400  0.47300  Biso   1.000  C
  H106     1.0000 0.77880  0.47980  0.42410  Biso   1.000  H
  H107     1.0000 0.80920  0.51930  0.48040  Biso   1.000  H
  O18      1.0000 0.72500  0.68100  0.47100  Biso   1.000  O
  H108     1.0000 0.70770  0.64150  0.48850  Biso   1.000  H
  O19      1.0000 0.77630  0.40100  0.51200  Biso   1.000  O
  H109     1.0000 0.79850  0.38000  0.52570  Biso   1.000  H
  C136     1.0000 0.91060  0.71730  0.97760  Biso   1.000  C
  C137     1.0000 0.95470  0.65600  0.02600  Biso   1.000  C
  C138     1.0000 0.80740  0.33800  0.57560  Biso   1.000  C
  C139     1.0000 0.92420  0.70900  0.45640  Biso   1.000  C
  C140     1.0000 0.98890  0.70500  0.07600  Biso   1.000  C
  C141     1.0000 0.77250  0.25900  0.58500  Biso   1.000  C
  C142     1.0000 0.96240  0.67730  0.41670  Biso   1.000  C
  C143     1.0000 0.96180  0.71900  0.38500  Biso   1.000  C
  C144     1.0000 0.97650  0.57050  0.38840  Biso   1.000  C
  C145     1.0000 0.97340  0.62800  0.33920  Biso   1.000  C
  C146     1.0000 0.01700  0.56280  0.35680  Biso   1.000  C
  C147     1.0000 0.00210  0.55130  0.36900  Biso   1.000  C
  C148     1.0000 0.03790  0.46890  0.32180  Biso   1.000  C
  C149     1.0000 0.02260  0.45780  0.33230  Biso   1.000  C
  C150     1.0000 0.08030  0.45040  0.31270  Biso   1.000  C
  C151     1.0000 0.05980  0.43580  0.29210  Biso   1.000  C
  C152     1.0000 0.09270  0.35800  0.26800  Biso   1.000  C
  C153     1.0000 0.06950  0.33100  0.25920  Biso   1.000  C
  F92      1.0000 0.09780  0.54600  0.28650  Biso   1.000  F
  F93      1.0000 0.09220  0.46600  0.33500  Biso   1.000  F
  F94      1.0000 0.08710  0.26730  0.29840  Biso   1.000  F
  F95      1.0000 0.07340  0.25530  0.30520  Biso   1.000  F
  F96      1.0000 0.08500  0.37100  0.20290  Biso   1.000  F
  F97      1.0000 0.04120  0.28500  0.22710  Biso   1.000  F
  F98      1.0000 0.13050  0.34800  0.26240  Biso   1.000  F
  F99      1.0000 0.10500  0.32300  0.23600  Biso   1.000  F
  F100     1.0000 0.99390  0.71070  0.46150  Biso   1.000  F
  F101     1.0000 0.93340  0.68100  0.43500  Biso   1.000  F
  F102     1.0000 0.96270  0.74910  0.35630  Biso   1.000  F
  F103     1.0000 0.93300  0.71800  0.15100  Biso   1.000  F
  F104     1.0000 0.95080  0.53960  0.33860  Biso   1.000  F
  F105     1.0000 0.99100  0.67100  0.28000  Biso   1.000  F
  F106     1.0000 0.97370  0.49510  0.44020  Biso   1.000  F
  F107     1.0000 0.93880  0.57500  0.32400  Biso   1.000  F
  F108     1.0000 0.04410  0.59450  0.41340  Biso   1.000  F
  F109     1.0000 0.03670  0.62160  0.38910  Biso   1.000  F
  F110     1.0000 0.01770  0.64630  0.30280  Biso   1.000  F
  F111     1.0000 0.98050  0.49400  0.42600  Biso   1.000  F
  F112     1.0000 0.02230  0.37960  0.35490  Biso   1.000  F
  F113     1.0000 0.02520  0.38330  0.38910  Biso   1.000  F
  F114     1.0000 0.02190  0.47100  0.25350  Biso   1.000  F
  F115     1.0000 0.99270  0.40740  0.29450  Biso   1.000  F
  F116     1.0000 0.09900  0.43600  0.37890  Biso   1.000  F
  F117     1.0000 0.06470  0.51900  0.24280  Biso   1.000  F
  H110     1.0000 0.88200  0.72240  0.96730  Biso   1.000  H
  H111     1.0000 0.92640  0.73040  0.93480  Biso   1.000  H
  H112     1.0000 0.95600  0.71170  0.98850  Biso   1.000  H
  H113     1.0000 0.97010  0.59560  0.00620  Biso   1.000  H
  H114     1.0000 0.79930  0.39670  0.60770  Biso   1.000  H
  H115     1.0000 0.82840  0.29950  0.60140  Biso   1.000  H
  H116     1.0000 0.85050  0.42870  0.54470  Biso   1.000  H
  H117     1.0000 0.91300  0.63770  0.46870  Biso   1.000  H
  H118     1.0000 0.90710  0.73590  0.41820  Biso   1.000  H
  H119     1.0000 0.00080  0.65010  0.10700  Biso   1.000  H
  H120     1.0000 0.00980  0.74330  0.04960  Biso   1.000  H
  H121     1.0000 0.75350  0.30930  0.60750  Biso   1.000  H
  H122     1.0000 0.76350  0.25640  0.53570  Biso   1.000  H
  H123     1.0000 0.76850  0.66700  0.88100  Biso   1.000  H
  O20      1.0000 0.83150  0.39900  0.52410  Biso   1.000  O
  O21      1.0000 0.75540  0.15800  0.60930  Biso   1.000  O
  N10      1.0000 0.32677  0.39280  0.68810  Biso   1.000  N
  N11      1.0000 0.28217  0.31790  0.81690  Biso   1.000  N
  N12      1.0000 0.87743  0.31650  0.18310  Biso   1.000  N
  O22      1.0000 0.07894  0.37840  0.98770  Biso   1.000  O
  S4       1.0000 0.31027  0.59290  0.62042  Biso   1.000  S
  C154     1.0000 0.31993  0.47560  0.65930  Biso   1.000  C
  C155     1.0000 0.28266  0.30910  0.88820  Biso   1.000  C
  H124     1.0000 0.30530  0.27810  0.90940  Biso   1.000  H
  C156     1.0000 0.25198  0.34280  0.93200  Biso   1.000  C
  H125     1.0000 0.25420  0.33630  0.98130  Biso   1.000  H
  C157     1.0000 0.21710  0.38740  0.90070  Biso   1.000  C
  C158     1.0000 0.21571  0.39470  0.82750  Biso   1.000  C
  H126     1.0000 0.19280  0.42200  0.80500  Biso   1.000  H
  C159     1.0000 0.24866  0.36140  0.78730  Biso   1.000  C
  H127     1.0000 0.24760  0.36930  0.73790  Biso   1.000  H
  C160     1.0000 0.18409  0.42640  0.94360  Biso   1.000  C
  C161     1.0000 0.15683  0.46510  0.97590  Biso   1.000  C
  C162     1.0000 0.12585  0.51760  0.01810  Biso   1.000  C
  C163     1.0000 0.13323  0.61680  0.05080  Biso   1.000  C
  H128     1.0000 0.15830  0.64970  0.04520  Biso   1.000  H
  C164     1.0000 0.10420  0.66860  0.09160  Biso   1.000  C
  H129     1.0000 0.10990  0.73460  0.11440  Biso   1.000  H
  C165     1.0000 0.06595  0.61920  0.09780  Biso   1.000  C
  H130     1.0000 0.04580  0.65500  0.12340  Biso   1.000  H
  C166     1.0000 0.05777  0.51920  0.06680  Biso   1.000  C
  C167     1.0000 0.08760  0.46820  0.02630  Biso   1.000  C
  C168     1.0000 0.01916  0.46840  0.07860  Biso   1.000  C
  C169     1.0000 0.98726  0.43300  0.09510  Biso   1.000  C
  C170     1.0000 0.94899  0.39210  0.12140  Biso   1.000  C
  C171     1.0000 0.92388  0.46290  0.15900  Biso   1.000  C
  H131     1.0000 0.93070  0.53640  0.16470  Biso   1.000  H
  C172     1.0000 0.88861  0.42170  0.18780  Biso   1.000  C
  H132     1.0000 0.87170  0.46990  0.21190  Biso   1.000  H
  C173     1.0000 0.90120  0.25080  0.14430  Biso   1.000  C
  H133     1.0000 0.89330  0.17830  0.13770  Biso   1.000  H
  C174     1.0000 0.93701  0.28510  0.11340  Biso   1.000  C
  H134     1.0000 0.95280  0.23610  0.08740  Biso   1.000  H
  C175     1.0000 0.08500  0.28190  0.01280  Biso   1.000  C
  H135     1.0000 0.11070  0.28210  0.03750  Biso   1.000  H
  H136     1.0000 0.06430  0.26700  0.04820  Biso   1.000  H
  C176     1.0000 0.08530  0.18720  0.95930  Biso   1.000  C
  H137     1.0000 0.09410  0.12100  0.98350  Biso   1.000  H
  H138     1.0000 0.10470  0.20330  0.92190  Biso   1.000  H
  C177     1.0000 0.04530  0.16640  0.92600  Biso   1.000  C
  F118     1.0000 0.03510  0.25710  0.88710  Biso   1.000  F
  F119     1.0000 0.01700  0.17230  0.98040  Biso   1.000  F
  C178     1.0000 0.04180  0.06540  0.88490  Biso   1.000  C
  F120     1.0000 0.04610  0.98150  0.93270  Biso   1.000  F
  F121     1.0000 0.07690  0.05480  0.84620  Biso   1.000  F
  C179     1.0000 0.01120  0.03010  0.83440  Biso   1.000  C
  F122     1.0000 0.02130  0.92500  0.80660  Biso   1.000  F
  F123     1.0000 0.01390  0.09300  0.77080  Biso   1.000  F
  C180     1.0000 0.96870  0.03000  0.85080  Biso   1.000  C
  F124     1.0000 0.95820  0.13880  0.85340  Biso   1.000  F
  F125     1.0000 0.96500  0.98510  0.91780  Biso   1.000  F
  C181     1.0000 0.94060  0.97350  0.80680  Biso   1.000  C
  F126     1.0000 0.94160  0.86130  0.82360  Biso   1.000  F
  F127     1.0000 0.95040  0.96500  0.73590  Biso   1.000  F
  C182     1.0000 0.89890  0.00970  0.81360  Biso   1.000  C
  F128     1.0000 0.89360  0.10560  0.79000  Biso   1.000  F
  F129     1.0000 0.87480  0.94500  0.78120  Biso   1.000  F
  F130     1.0000 0.88530  0.00700  0.87730  Biso   1.000  F
  C183     1.0000 0.79260  0.29970  0.57490  Biso   1.000  C
  H139     1.0000 0.80350  0.24200  0.54490  Biso   1.000  H
  H140     1.0000 0.76360  0.29050  0.57240  Biso   1.000  H
  C184     1.0000 0.80250  0.25800  0.65120  Biso   1.000  C
  H141     1.0000 0.78040  0.20790  0.65960  Biso   1.000  H
  H142     1.0000 0.82560  0.21160  0.64210  Biso   1.000  H
  O23      1.0000 0.79940  0.39840  0.53180  Biso   1.000  O
  H143     1.0000 0.78960  0.38960  0.49190  Biso   1.000  H
  O24      1.0000 0.81100  0.29600  0.72310  Biso   1.000  O
  H144     1.0000 0.81460  0.25760  0.75090  Biso   1.000  H
  C185     1.0000 0.73700  0.38000  0.46800  Biso   1.000  C
  H145     1.0000 0.72100  0.34130  0.50430  Biso   1.000  H
  H146     1.0000 0.72580  0.35480  0.42320  Biso   1.000  H
  C186     1.0000 0.71900  0.49600  0.47300  Biso   1.000  C
  H147     1.0000 0.72120  0.52020  0.42410  Biso   1.000  H
  H148     1.0000 0.69080  0.48070  0.48040  Biso   1.000  H
  O25      1.0000 0.77500  0.31900  0.47100  Biso   1.000  O
  H149     1.0000 0.79230  0.35850  0.48850  Biso   1.000  H
  O26      1.0000 0.72370  0.59900  0.51200  Biso   1.000  O
  H150     1.0000 0.70150  0.62000  0.52570  Biso   1.000  H
  C187     1.0000 0.58940  0.28270  0.97760  Biso   1.000  C
  C188     1.0000 0.54530  0.34400  0.02600  Biso   1.000  C
  C189     1.0000 0.69260  0.66200  0.57560  Biso   1.000  C
  C190     1.0000 0.57580  0.29100  0.45640  Biso   1.000  C
  C191     1.0000 0.51110  0.29500  0.07600  Biso   1.000  C
  C192     1.0000 0.72750  0.74100  0.58500  Biso   1.000  C
  C193     1.0000 0.53760  0.32270  0.41670  Biso   1.000  C
  C194     1.0000 0.53820  0.28100  0.38500  Biso   1.000  C
  C195     1.0000 0.52350  0.42950  0.38840  Biso   1.000  C
  C196     1.0000 0.52660  0.37200  0.33920  Biso   1.000  C
  C197     1.0000 0.48300  0.43720  0.35680  Biso   1.000  C
  C198     1.0000 0.49790  0.44870  0.36900  Biso   1.000  C
  C199     1.0000 0.46210  0.53110  0.32180  Biso   1.000  C
  C200     1.0000 0.47740  0.54220  0.33230  Biso   1.000  C
  C201     1.0000 0.41970  0.54960  0.31270  Biso   1.000  C
  C202     1.0000 0.44020  0.56420  0.29210  Biso   1.000  C
  C203     1.0000 0.40730  0.64200  0.26800  Biso   1.000  C
  C204     1.0000 0.43050  0.66900  0.25920  Biso   1.000  C
  F131     1.0000 0.40220  0.45400  0.28650  Biso   1.000  F
  F132     1.0000 0.40780  0.53400  0.33500  Biso   1.000  F
  F133     1.0000 0.41290  0.73270  0.29840  Biso   1.000  F
  F134     1.0000 0.42660  0.74470  0.30520  Biso   1.000  F
  F135     1.0000 0.41500  0.62900  0.20290  Biso   1.000  F
  F136     1.0000 0.45880  0.71500  0.22710  Biso   1.000  F
  F137     1.0000 0.36950  0.65200  0.26240  Biso   1.000  F
  F138     1.0000 0.39500  0.67700  0.23600  Biso   1.000  F
  F139     1.0000 0.50610  0.28930  0.46150  Biso   1.000  F
  F140     1.0000 0.56660  0.31900  0.43500  Biso   1.000  F
  F141     1.0000 0.53730  0.25090  0.35630  Biso   1.000  F
  F142     1.0000 0.56700  0.28200  0.15100  Biso   1.000  F
  F143     1.0000 0.54920  0.46040  0.33860  Biso   1.000  F
  F144     1.0000 0.50900  0.32900  0.28000  Biso   1.000  F
  F145     1.0000 0.52630  0.50490  0.44020  Biso   1.000  F
  F146     1.0000 0.56120  0.42500  0.32400  Biso   1.000  F
  F147     1.0000 0.45590  0.40550  0.41340  Biso   1.000  F
  F148     1.0000 0.46330  0.37840  0.38910  Biso   1.000  F
  F149     1.0000 0.48230  0.35370  0.30280  Biso   1.000  F
  F150     1.0000 0.51950  0.50600  0.42600  Biso   1.000  F
  F151     1.0000 0.47770  0.62040  0.35490  Biso   1.000  F
  F152     1.0000 0.47480  0.61670  0.38910  Biso   1.000  F
  F153     1.0000 0.47810  0.52900  0.25350  Biso   1.000  F
  F154     1.0000 0.50730  0.59260  0.29450  Biso   1.000  F
  F155     1.0000 0.40100  0.56400  0.37890  Biso   1.000  F
  F156     1.0000 0.43530  0.48100  0.24280  Biso   1.000  F
  H151     1.0000 0.61800  0.27760  0.96730  Biso   1.000  H
  H152     1.0000 0.57360  0.26960  0.93480  Biso   1.000  H
  H153     1.0000 0.54400  0.28830  0.98850  Biso   1.000  H
  H154     1.0000 0.52990  0.40440  0.00620  Biso   1.000  H
  H155     1.0000 0.70070  0.60330  0.60770  Biso   1.000  H
  H156     1.0000 0.67160  0.70050  0.60140  Biso   1.000  H
  H157     1.0000 0.64950  0.57130  0.54470  Biso   1.000  H
  H158     1.0000 0.58700  0.36230  0.46870  Biso   1.000  H
  H159     1.0000 0.59290  0.26410  0.41820  Biso   1.000  H
  H160     1.0000 0.49920  0.34990  0.10700  Biso   1.000  H
  H161     1.0000 0.49020  0.25670  0.04960  Biso   1.000  H
  H162     1.0000 0.74650  0.69070  0.60750  Biso   1.000  H
  H163     1.0000 0.73650  0.74360  0.53570  Biso   1.000  H
  H164     1.0000 0.73150  0.33300  0.88100  Biso   1.000  H
  O27      1.0000 0.66850  0.60100  0.52410  Biso   1.000  O
  O28      1.0000 0.74460  0.84200  0.60930  Biso   1.000  O
  N13      1.0000 0.67323  0.89280  0.18810  Biso   1.000  N
  N14      1.0000 0.71783  0.81790  0.31690  Biso   1.000  N
  N15      1.0000 0.12257  0.81650  0.68310  Biso   1.000  N
  O29      1.0000 0.92106  0.87840  0.48770  Biso   1.000  O
  S5       1.0000 0.68973  0.09290  0.12042  Biso   1.000  S
  C205     1.0000 0.68007  0.97560  0.15930  Biso   1.000  C
  C206     1.0000 0.71734  0.80910  0.38820  Biso   1.000  C
  H165     1.0000 0.69470  0.77810  0.40940  Biso   1.000  H
  C207     1.0000 0.74802  0.84280  0.43200  Biso   1.000  C
  H166     1.0000 0.74580  0.83630  0.48130  Biso   1.000  H
  C208     1.0000 0.78290  0.88740  0.40070  Biso   1.000  C
  C209     1.0000 0.78429  0.89470  0.32750  Biso   1.000  C
  H167     1.0000 0.80720  0.92200  0.30500  Biso   1.000  H
  C210     1.0000 0.75134  0.86140  0.28730  Biso   1.000  C
  H168     1.0000 0.75240  0.86930  0.23790  Biso   1.000  H
  C211     1.0000 0.81591  0.92640  0.44360  Biso   1.000  C
  C212     1.0000 0.84317  0.96510  0.47590  Biso   1.000  C
  C213     1.0000 0.87415  0.01760  0.51810  Biso   1.000  C
  C214     1.0000 0.86677  0.11680  0.55080  Biso   1.000  C
  H169     1.0000 0.84170  0.14970  0.54520  Biso   1.000  H
  C215     1.0000 0.89580  0.16860  0.59160  Biso   1.000  C
  H170     1.0000 0.89010  0.23460  0.61440  Biso   1.000  H
  C216     1.0000 0.93405  0.11920  0.59780  Biso   1.000  C
  H171     1.0000 0.95420  0.15500  0.62340  Biso   1.000  H
  C217     1.0000 0.94223  0.01920  0.56680  Biso   1.000  C
  C218     1.0000 0.91240  0.96820  0.52630  Biso   1.000  C
  C219     1.0000 0.98084  0.96840  0.57860  Biso   1.000  C
  C220     1.0000 0.01274  0.93300  0.59510  Biso   1.000  C
  C221     1.0000 0.05101  0.89210  0.62140  Biso   1.000  C
  C222     1.0000 0.07612  0.96290  0.65900  Biso   1.000  C
  H172     1.0000 0.06930  0.03640  0.66470  Biso   1.000  H
  C223     1.0000 0.11139  0.92170  0.68780  Biso   1.000  C
  H173     1.0000 0.12830  0.96990  0.71190  Biso   1.000  H
  C224     1.0000 0.09880  0.75080  0.64430  Biso   1.000  C
  H174     1.0000 0.10670  0.67830  0.63770  Biso   1.000  H
  C225     1.0000 0.06299  0.78510  0.61340  Biso   1.000  C
  H175     1.0000 0.04720  0.73610  0.58740  Biso   1.000  H
  C226     1.0000 0.91500  0.78190  0.51280  Biso   1.000  C
  H176     1.0000 0.88930  0.78210  0.53750  Biso   1.000  H
  H177     1.0000 0.93570  0.76700  0.54820  Biso   1.000  H
  C227     1.0000 0.91470  0.68720  0.45930  Biso   1.000  C
  H178     1.0000 0.90590  0.62100  0.48350  Biso   1.000  H
  H179     1.0000 0.89530  0.70330  0.42190  Biso   1.000  H
  C228     1.0000 0.95470  0.66640  0.42600  Biso   1.000  C
  F157     1.0000 0.96490  0.75710  0.38710  Biso   1.000  F
  F158     1.0000 0.98300  0.67230  0.48040  Biso   1.000  F
  C229     1.0000 0.95820  0.56540  0.38490  Biso   1.000  C
  F159     1.0000 0.95390  0.48150  0.43270  Biso   1.000  F
  F160     1.0000 0.92310  0.55480  0.34620  Biso   1.000  F
  C230     1.0000 0.98880  0.53010  0.33440  Biso   1.000  C
  F161     1.0000 0.97870  0.42500  0.30660  Biso   1.000  F
  F162     1.0000 0.98610  0.59300  0.27080  Biso   1.000  F
  C231     1.0000 0.03130  0.53000  0.35080  Biso   1.000  C
  F163     1.0000 0.04180  0.63880  0.35340  Biso   1.000  F
  F164     1.0000 0.03500  0.48510  0.41780  Biso   1.000  F
  C232     1.0000 0.05940  0.47350  0.30680  Biso   1.000  C
  F165     1.0000 0.05840  0.36130  0.32360  Biso   1.000  F
  F166     1.0000 0.04960  0.46500  0.23590  Biso   1.000  F
  C233     1.0000 0.10110  0.50970  0.31360  Biso   1.000  C
  F167     1.0000 0.10640  0.60560  0.29000  Biso   1.000  F
  F168     1.0000 0.12520  0.44500  0.28120  Biso   1.000  F
  F169     1.0000 0.11470  0.50700  0.37730  Biso   1.000  F
  C234     1.0000 0.20740  0.79970  0.07490  Biso   1.000  C
  H180     1.0000 0.19650  0.74200  0.04490  Biso   1.000  H
  H181     1.0000 0.23640  0.79050  0.07240  Biso   1.000  H
  C235     1.0000 0.19750  0.75800  0.15120  Biso   1.000  C
  H182     1.0000 0.21960  0.70790  0.15960  Biso   1.000  H
  H183     1.0000 0.17440  0.71160  0.14210  Biso   1.000  H
  O30      1.0000 0.20060  0.89840  0.03180  Biso   1.000  O
  H184     1.0000 0.21040  0.88960  0.99190  Biso   1.000  H
  O31      1.0000 0.18900  0.79600  0.22310  Biso   1.000  O
  H185     1.0000 0.18540  0.75760  0.25090  Biso   1.000  H
  C236     1.0000 0.26300  0.88000  0.96800  Biso   1.000  C
  H186     1.0000 0.27900  0.84130  0.00430  Biso   1.000  H
  H187     1.0000 0.27420  0.85480  0.92320  Biso   1.000  H
  C237     1.0000 0.28100  0.99600  0.97300  Biso   1.000  C
  H188     1.0000 0.27880  0.02020  0.92410  Biso   1.000  H
  H189     1.0000 0.30920  0.98070  0.98040  Biso   1.000  H
  O32      1.0000 0.22500  0.81900  0.97100  Biso   1.000  O
  H190     1.0000 0.20770  0.85850  0.98850  Biso   1.000  H
  O33      1.0000 0.27630  0.09900  0.01200  Biso   1.000  O
  H191     1.0000 0.29850  0.12000  0.02570  Biso   1.000  H
  C238     1.0000 0.41060  0.78270  0.47760  Biso   1.000  C
  C239     1.0000 0.45470  0.84400  0.52600  Biso   1.000  C
  C240     1.0000 0.30740  0.16200  0.07560  Biso   1.000  C
  C241     1.0000 0.42420  0.79100  0.95640  Biso   1.000  C
  C242     1.0000 0.48890  0.79500  0.57600  Biso   1.000  C
  C243     1.0000 0.27250  0.24100  0.08500  Biso   1.000  C
  C244     1.0000 0.46240  0.82270  0.91670  Biso   1.000  C
  C245     1.0000 0.46180  0.78100  0.88500  Biso   1.000  C
  C246     1.0000 0.47650  0.92950  0.88840  Biso   1.000  C
  C247     1.0000 0.47340  0.87200  0.83920  Biso   1.000  C
  C248     1.0000 0.51700  0.93720  0.85680  Biso   1.000  C
  C249     1.0000 0.50210  0.94870  0.86900  Biso   1.000  C
  C250     1.0000 0.53790  0.03110  0.82180  Biso   1.000  C
  C251     1.0000 0.52260  0.04220  0.83230  Biso   1.000  C
  C252     1.0000 0.58030  0.04960  0.81270  Biso   1.000  C
  C253     1.0000 0.55980  0.06420  0.79210  Biso   1.000  C
  C254     1.0000 0.59270  0.14200  0.76800  Biso   1.000  C
  C255     1.0000 0.56950  0.16900  0.75920  Biso   1.000  C
  F170     1.0000 0.59780  0.95400  0.78650  Biso   1.000  F
  F171     1.0000 0.59220  0.03400  0.83500  Biso   1.000  F
  F172     1.0000 0.58710  0.23270  0.79840  Biso   1.000  F
  F173     1.0000 0.57340  0.24470  0.80520  Biso   1.000  F
  F174     1.0000 0.58500  0.12900  0.70290  Biso   1.000  F
  F175     1.0000 0.54120  0.21500  0.72710  Biso   1.000  F
  F176     1.0000 0.63050  0.15200  0.76240  Biso   1.000  F
  F177     1.0000 0.60500  0.17700  0.73600  Biso   1.000  F
  F178     1.0000 0.49390  0.78930  0.96150  Biso   1.000  F
  F179     1.0000 0.43340  0.81900  0.93500  Biso   1.000  F
  F180     1.0000 0.46270  0.75090  0.85630  Biso   1.000  F
  F181     1.0000 0.43300  0.78200  0.65100  Biso   1.000  F
  F182     1.0000 0.45080  0.96040  0.83860  Biso   1.000  F
  F183     1.0000 0.49100  0.82900  0.78000  Biso   1.000  F
  F184     1.0000 0.47370  0.00490  0.94020  Biso   1.000  F
  F185     1.0000 0.43880  0.92500  0.82400  Biso   1.000  F
  F186     1.0000 0.54410  0.90550  0.91340  Biso   1.000  F
  F187     1.0000 0.53670  0.87840  0.88910  Biso   1.000  F
  F188     1.0000 0.51770  0.85370  0.80280  Biso   1.000  F
  F189     1.0000 0.48050  0.00600  0.92600  Biso   1.000  F
  F190     1.0000 0.52230  0.12040  0.85490  Biso   1.000  F
  F191     1.0000 0.52520  0.11670  0.88910  Biso   1.000  F
  F192     1.0000 0.52190  0.02900  0.75350  Biso   1.000  F
  F193     1.0000 0.49270  0.09260  0.79450  Biso   1.000  F
  F194     1.0000 0.59900  0.06400  0.87890  Biso   1.000  F
  F195     1.0000 0.56470  0.98100  0.74280  Biso   1.000  F
  H192     1.0000 0.38200  0.77760  0.46730  Biso   1.000  H
  H193     1.0000 0.42640  0.76960  0.43480  Biso   1.000  H
  H194     1.0000 0.45600  0.78830  0.48850  Biso   1.000  H
  H195     1.0000 0.47010  0.90440  0.50620  Biso   1.000  H
  H196     1.0000 0.29930  0.10330  0.10770  Biso   1.000  H
  H197     1.0000 0.32840  0.20050  0.10140  Biso   1.000  H
  H198     1.0000 0.35050  0.07130  0.04470  Biso   1.000  H
  H199     1.0000 0.41300  0.86230  0.96870  Biso   1.000  H
  H200     1.0000 0.40710  0.76410  0.91820  Biso   1.000  H
  H201     1.0000 0.50080  0.84990  0.60700  Biso   1.000  H
  H202     1.0000 0.50980  0.75670  0.54960  Biso   1.000  H
  H203     1.0000 0.25350  0.19070  0.10750  Biso   1.000  H
  H204     1.0000 0.26350  0.24360  0.03570  Biso   1.000  H
  H205     1.0000 0.26850  0.83300  0.38100  Biso   1.000  H
  O34      1.0000 0.33150  0.10100  0.02410  Biso   1.000  O
  O35      1.0000 0.25540  0.34200  0.10930  Biso   1.000  O
  N16      1.0000 0.82677  0.10720  0.18810  Biso   1.000  N
  N17      1.0000 0.78217  0.18210  0.31690  Biso   1.000  N
  N18      1.0000 0.37743  0.18350  0.68310  Biso   1.000  N
  O36      1.0000 0.57894  0.12160  0.48770  Biso   1.000  O
  S6       1.0000 0.81027  0.90710  0.12042  Biso   1.000  S
  C256     1.0000 0.81993  0.02440  0.15930  Biso   1.000  C
  C257     1.0000 0.78266  0.19090  0.38820  Biso   1.000  C
  H206     1.0000 0.80530  0.22190  0.40940  Biso   1.000  H
  C258     1.0000 0.75198  0.15720  0.43200  Biso   1.000  C
  H207     1.0000 0.75420  0.16370  0.48130  Biso   1.000  H
  C259     1.0000 0.71710  0.11260  0.40070  Biso   1.000  C
  C260     1.0000 0.71571  0.10530  0.32750  Biso   1.000  C
  H208     1.0000 0.69280  0.07800  0.30500  Biso   1.000  H
  C261     1.0000 0.74866  0.13860  0.28730  Biso   1.000  C
  H209     1.0000 0.74760  0.13070  0.23790  Biso   1.000  H
  C262     1.0000 0.68409  0.07360  0.44360  Biso   1.000  C
  C263     1.0000 0.65683  0.03490  0.47590  Biso   1.000  C
  C264     1.0000 0.62585  0.98240  0.51810  Biso   1.000  C
  C265     1.0000 0.63323  0.88320  0.55080  Biso   1.000  C
  H210     1.0000 0.65830  0.85030  0.54520  Biso   1.000  H
  C266     1.0000 0.60420  0.83140  0.59160  Biso   1.000  C
  H211     1.0000 0.60990  0.76540  0.61440  Biso   1.000  H
  C267     1.0000 0.56595  0.88080  0.59780  Biso   1.000  C
  H212     1.0000 0.54580  0.84500  0.62340  Biso   1.000  H
  C268     1.0000 0.55777  0.98080  0.56680  Biso   1.000  C
  C269     1.0000 0.58760  0.03180  0.52630  Biso   1.000  C
  C270     1.0000 0.51916  0.03160  0.57860  Biso   1.000  C
  C271     1.0000 0.48726  0.06700  0.59510  Biso   1.000  C
  C272     1.0000 0.44899  0.10790  0.62140  Biso   1.000  C
  C273     1.0000 0.42388  0.03710  0.65900  Biso   1.000  C
  H213     1.0000 0.43070  0.96360  0.66470  Biso   1.000  H
  C274     1.0000 0.38861  0.07830  0.68780  Biso   1.000  C
  H214     1.0000 0.37170  0.03010  0.71190  Biso   1.000  H
  C275     1.0000 0.40120  0.24920  0.64430  Biso   1.000  C
  H215     1.0000 0.39330  0.32170  0.63770  Biso   1.000  H
  C276     1.0000 0.43701  0.21490  0.61340  Biso   1.000  C
  H216     1.0000 0.45280  0.26390  0.58740  Biso   1.000  H
  C277     1.0000 0.58500  0.21810  0.51280  Biso   1.000  C
  H217     1.0000 0.61070  0.21790  0.53750  Biso   1.000  H
  H218     1.0000 0.56430  0.23300  0.54820  Biso   1.000  H
  C278     1.0000 0.58530  0.31280  0.45930  Biso   1.000  C
  H219     1.0000 0.59410  0.37900  0.48350  Biso   1.000  H
  H220     1.0000 0.60470  0.29670  0.42190  Biso   1.000  H
  C279     1.0000 0.54530  0.33360  0.42600  Biso   1.000  C
  F196     1.0000 0.53510  0.24290  0.38710  Biso   1.000  F
  F197     1.0000 0.51700  0.32770  0.48040  Biso   1.000  F
  C280     1.0000 0.54180  0.43460  0.38490  Biso   1.000  C
  F198     1.0000 0.54610  0.51850  0.43270  Biso   1.000  F
  F199     1.0000 0.57690  0.44520  0.34620  Biso   1.000  F
  C281     1.0000 0.51120  0.46990  0.33440  Biso   1.000  C
  F200     1.0000 0.52130  0.57500  0.30660  Biso   1.000  F
  F201     1.0000 0.51390  0.40700  0.27080  Biso   1.000  F
  C282     1.0000 0.46870  0.47000  0.35080  Biso   1.000  C
  F202     1.0000 0.45820  0.36120  0.35340  Biso   1.000  F
  F203     1.0000 0.46500  0.51490  0.41780  Biso   1.000  F
  C283     1.0000 0.44060  0.52650  0.30680  Biso   1.000  C
  F204     1.0000 0.44160  0.63870  0.32360  Biso   1.000  F
  F205     1.0000 0.45040  0.53500  0.23590  Biso   1.000  F
  C284     1.0000 0.39890  0.49030  0.31360  Biso   1.000  C
  F206     1.0000 0.39360  0.39440  0.29000  Biso   1.000  F
  F207     1.0000 0.37480  0.55500  0.28120  Biso   1.000  F
  F208     1.0000 0.38530  0.49300  0.37730  Biso   1.000  F
  C285     1.0000 0.29260  0.20030  0.07490  Biso   1.000  C
  H221     1.0000 0.30350  0.25800  0.04490  Biso   1.000  H
  H222     1.0000 0.26360  0.20950  0.07240  Biso   1.000  H
  C286     1.0000 0.30250  0.24200  0.15120  Biso   1.000  C
  H223     1.0000 0.28040  0.29210  0.15960  Biso   1.000  H
  H224     1.0000 0.32560  0.28840  0.14210  Biso   1.000  H
  O37      1.0000 0.29940  0.10160  0.03180  Biso   1.000  O
  H225     1.0000 0.28960  0.11040  0.99190  Biso   1.000  H
  O38      1.0000 0.31100  0.20400  0.22310  Biso   1.000  O
  H226     1.0000 0.31460  0.24240  0.25090  Biso   1.000  H
  C287     1.0000 0.23700  0.12000  0.96800  Biso   1.000  C
  H227     1.0000 0.22100  0.15870  0.00430  Biso   1.000  H
  H228     1.0000 0.22580  0.14520  0.92320  Biso   1.000  H
  C288     1.0000 0.21900  0.00400  0.97300  Biso   1.000  C
  H229     1.0000 0.22120  0.97980  0.92410  Biso   1.000  H
  H230     1.0000 0.19080  0.01930  0.98040  Biso   1.000  H
  O39      1.0000 0.27500  0.18100  0.97100  Biso   1.000  O
  H231     1.0000 0.29230  0.14150  0.98850  Biso   1.000  H
  O40      1.0000 0.22370  0.90100  0.01200  Biso   1.000  O
  H232     1.0000 0.20150  0.88000  0.02570  Biso   1.000  H
  C289     1.0000 0.08940  0.21730  0.47760  Biso   1.000  C
  C290     1.0000 0.04530  0.15600  0.52600  Biso   1.000  C
  C291     1.0000 0.19260  0.83800  0.07560  Biso   1.000  C
  C292     1.0000 0.07580  0.20900  0.95640  Biso   1.000  C
  C293     1.0000 0.01110  0.20500  0.57600  Biso   1.000  C
  C294     1.0000 0.22750  0.75900  0.08500  Biso   1.000  C
  C295     1.0000 0.03760  0.17730  0.91670  Biso   1.000  C
  C296     1.0000 0.03820  0.21900  0.88500  Biso   1.000  C
  C297     1.0000 0.02350  0.07050  0.88840  Biso   1.000  C
  C298     1.0000 0.02660  0.12800  0.83920  Biso   1.000  C
  C299     1.0000 0.98300  0.06280  0.85680  Biso   1.000  C
  C300     1.0000 0.99790  0.05130  0.86900  Biso   1.000  C
  C301     1.0000 0.96210  0.96890  0.82180  Biso   1.000  C
  C302     1.0000 0.97740  0.95780  0.83230  Biso   1.000  C
  C303     1.0000 0.91970  0.95040  0.81270  Biso   1.000  C
  C304     1.0000 0.94020  0.93580  0.79210  Biso   1.000  C
  C305     1.0000 0.90730  0.85800  0.76800  Biso   1.000  C
  C306     1.0000 0.93050  0.83100  0.75920  Biso   1.000  C
  F209     1.0000 0.90220  0.04600  0.78650  Biso   1.000  F
  F210     1.0000 0.90780  0.96600  0.83500  Biso   1.000  F
  F211     1.0000 0.91290  0.76730  0.79840  Biso   1.000  F
  F212     1.0000 0.92660  0.75530  0.80520  Biso   1.000  F
  F213     1.0000 0.91500  0.87100  0.70290  Biso   1.000  F
  F214     1.0000 0.95880  0.78500  0.72710  Biso   1.000  F
  F215     1.0000 0.86950  0.84800  0.76240  Biso   1.000  F
  F216     1.0000 0.89500  0.82300  0.73600  Biso   1.000  F
  F217     1.0000 0.00610  0.21070  0.96150  Biso   1.000  F
  F218     1.0000 0.06660  0.18100  0.93500  Biso   1.000  F
  F219     1.0000 0.03730  0.24910  0.85630  Biso   1.000  F
  F220     1.0000 0.06700  0.21800  0.65100  Biso   1.000  F
  F221     1.0000 0.04920  0.03960  0.83860  Biso   1.000  F
  F222     1.0000 0.00900  0.17100  0.78000  Biso   1.000  F
  F223     1.0000 0.02630  0.99510  0.94020  Biso   1.000  F
  F224     1.0000 0.06120  0.07500  0.82400  Biso   1.000  F
  F225     1.0000 0.95590  0.09450  0.91340  Biso   1.000  F
  F226     1.0000 0.96330  0.12160  0.88910  Biso   1.000  F
  F227     1.0000 0.98230  0.14630  0.80280  Biso   1.000  F
  F228     1.0000 0.01950  0.99400  0.92600  Biso   1.000  F
  F229     1.0000 0.97770  0.87960  0.85490  Biso   1.000  F
  F230     1.0000 0.97480  0.88330  0.88910  Biso   1.000  F
  F231     1.0000 0.97810  0.97100  0.75350  Biso   1.000  F
  F232     1.0000 0.00730  0.90740  0.79450  Biso   1.000  F
  F233     1.0000 0.90100  0.93600  0.87890  Biso   1.000  F
  F234     1.0000 0.93530  0.01900  0.74280  Biso   1.000  F
  H233     1.0000 0.11800  0.22240  0.46730  Biso   1.000  H
  H234     1.0000 0.07360  0.23040  0.43480  Biso   1.000  H
  H235     1.0000 0.04400  0.21170  0.48850  Biso   1.000  H
  H236     1.0000 0.02990  0.09560  0.50620  Biso   1.000  H
  H237     1.0000 0.20070  0.89670  0.10770  Biso   1.000  H
  H238     1.0000 0.17160  0.79950  0.10140  Biso   1.000  H
  H239     1.0000 0.14950  0.92870  0.04470  Biso   1.000  H
  H240     1.0000 0.08700  0.13770  0.96870  Biso   1.000  H
  H241     1.0000 0.09290  0.23590  0.91820  Biso   1.000  H
  H242     1.0000 0.99920  0.15010  0.60700  Biso   1.000  H
  H243     1.0000 0.99020  0.24330  0.54960  Biso   1.000  H
  H244     1.0000 0.24650  0.80930  0.10750  Biso   1.000  H
  H245     1.0000 0.23650  0.75640  0.03570  Biso   1.000  H
  H246     1.0000 0.23150  0.16700  0.38100  Biso   1.000  H
  O41      1.0000 0.16850  0.89900  0.02410  Biso   1.000  O
  O42      1.0000 0.24460  0.65800  0.10930  Biso   1.000  O
  N19      1.0000 0.82677  0.39280  0.31190  Biso   1.000  N
  N20      1.0000 0.78217  0.31790  0.18310  Biso   1.000  N
  N21      1.0000 0.37743  0.31650  0.81690  Biso   1.000  N
  O43      1.0000 0.57894  0.37840  0.01230  Biso   1.000  O
  S7       1.0000 0.81027  0.59290  0.37958  Biso   1.000  S
  C307     1.0000 0.81993  0.47560  0.34070  Biso   1.000  C
  C308     1.0000 0.78266  0.30910  0.11180  Biso   1.000  C
  H247     1.0000 0.80530  0.27810  0.09060  Biso   1.000  H
  C309     1.0000 0.75198  0.34280  0.06800  Biso   1.000  C
  H248     1.0000 0.75420  0.33630  0.01870  Biso   1.000  H
  C310     1.0000 0.71710  0.38740  0.09930  Biso   1.000  C
  C311     1.0000 0.71571  0.39470  0.17250  Biso   1.000  C
  H249     1.0000 0.69280  0.42200  0.19500  Biso   1.000  H
  C312     1.0000 0.74866  0.36140  0.21270  Biso   1.000  C
  H250     1.0000 0.74760  0.36930  0.26210  Biso   1.000  H
  C313     1.0000 0.68409  0.42640  0.05640  Biso   1.000  C
  C314     1.0000 0.65683  0.46510  0.02410  Biso   1.000  C
  C315     1.0000 0.62585  0.51760  0.98190  Biso   1.000  C
  C316     1.0000 0.63323  0.61680  0.94920  Biso   1.000  C
  H251     1.0000 0.65830  0.64970  0.95480  Biso   1.000  H
  C317     1.0000 0.60420  0.66860  0.90840  Biso   1.000  C
  H252     1.0000 0.60990  0.73460  0.88560  Biso   1.000  H
  C318     1.0000 0.56595  0.61920  0.90220  Biso   1.000  C
  H253     1.0000 0.54580  0.65500  0.87660  Biso   1.000  H
  C319     1.0000 0.55777  0.51920  0.93320  Biso   1.000  C
  C320     1.0000 0.58760  0.46820  0.97370  Biso   1.000  C
  C321     1.0000 0.51916  0.46840  0.92140  Biso   1.000  C
  C322     1.0000 0.48726  0.43300  0.90490  Biso   1.000  C
  C323     1.0000 0.44899  0.39210  0.87860  Biso   1.000  C
  C324     1.0000 0.42388  0.46290  0.84100  Biso   1.000  C
  H254     1.0000 0.43070  0.53640  0.83530  Biso   1.000  H
  C325     1.0000 0.38861  0.42170  0.81220  Biso   1.000  C
  H255     1.0000 0.37170  0.46990  0.78810  Biso   1.000  H
  C326     1.0000 0.40120  0.25080  0.85570  Biso   1.000  C
  H256     1.0000 0.39330  0.17830  0.86230  Biso   1.000  H
  C327     1.0000 0.43701  0.28510  0.88660  Biso   1.000  C
  H257     1.0000 0.45280  0.23610  0.91260  Biso   1.000  H
  C328     1.0000 0.58500  0.28190  0.98720  Biso   1.000  C
  H258     1.0000 0.61070  0.28210  0.96250  Biso   1.000  H
  H259     1.0000 0.56430  0.26700  0.95180  Biso   1.000  H
  C329     1.0000 0.58530  0.18720  0.04070  Biso   1.000  C
  H260     1.0000 0.59410  0.12100  0.01650  Biso   1.000  H
  H261     1.0000 0.60470  0.20330  0.07810  Biso   1.000  H
  C330     1.0000 0.54530  0.16640  0.07400  Biso   1.000  C
  F235     1.0000 0.53510  0.25710  0.11290  Biso   1.000  F
  F236     1.0000 0.51700  0.17230  0.01960  Biso   1.000  F
  C331     1.0000 0.54180  0.06540  0.11510  Biso   1.000  C
  F237     1.0000 0.54610  0.98150  0.06730  Biso   1.000  F
  F238     1.0000 0.57690  0.05480  0.15380  Biso   1.000  F
  C332     1.0000 0.51120  0.03010  0.16560  Biso   1.000  C
  F239     1.0000 0.52130  0.92500  0.19340  Biso   1.000  F
  F240     1.0000 0.51390  0.09300  0.22920  Biso   1.000  F
  C333     1.0000 0.46870  0.03000  0.14920  Biso   1.000  C
  F241     1.0000 0.45820  0.13880  0.14660  Biso   1.000  F
  F242     1.0000 0.46500  0.98510  0.08220  Biso   1.000  F
  C334     1.0000 0.44060  0.97350  0.19320  Biso   1.000  C
  F243     1.0000 0.44160  0.86130  0.17640  Biso   1.000  F
  F244     1.0000 0.45040  0.96500  0.26410  Biso   1.000  F
  C335     1.0000 0.39890  0.00970  0.18640  Biso   1.000  C
  F245     1.0000 0.39360  0.10560  0.21000  Biso   1.000  F
  F246     1.0000 0.37480  0.94500  0.21880  Biso   1.000  F
  F247     1.0000 0.38530  0.00700  0.12270  Biso   1.000  F
  C336     1.0000 0.29260  0.29970  0.42510  Biso   1.000  C
  H262     1.0000 0.30350  0.24200  0.45510  Biso   1.000  H
  H263     1.0000 0.26360  0.29050  0.42760  Biso   1.000  H
  C337     1.0000 0.30250  0.25800  0.34880  Biso   1.000  C
  H264     1.0000 0.28040  0.20790  0.34040  Biso   1.000  H
  H265     1.0000 0.32560  0.21160  0.35790  Biso   1.000  H
  O44      1.0000 0.29940  0.39840  0.46820  Biso   1.000  O
  H266     1.0000 0.28960  0.38960  0.50810  Biso   1.000  H
  O45      1.0000 0.31100  0.29600  0.27690  Biso   1.000  O
  H267     1.0000 0.31460  0.25760  0.24910  Biso   1.000  H
  C338     1.0000 0.23700  0.38000  0.53200  Biso   1.000  C
  H268     1.0000 0.22100  0.34130  0.49570  Biso   1.000  H
  H269     1.0000 0.22580  0.35480  0.57680  Biso   1.000  H
  C339     1.0000 0.21900  0.49600  0.52700  Biso   1.000  C
  H270     1.0000 0.22120  0.52020  0.57590  Biso   1.000  H
  H271     1.0000 0.19080  0.48070  0.51960  Biso   1.000  H
  O46      1.0000 0.27500  0.31900  0.52900  Biso   1.000  O
  H272     1.0000 0.29230  0.35850  0.51150  Biso   1.000  H
  O47      1.0000 0.22370  0.59900  0.48800  Biso   1.000  O
  H273     1.0000 0.20150  0.62000  0.47430  Biso   1.000  H
  C340     1.0000 0.08940  0.28270  0.02240  Biso   1.000  C
  C341     1.0000 0.04530  0.34400  0.97400  Biso   1.000  C
  C342     1.0000 0.19260  0.66200  0.42440  Biso   1.000  C
  C343     1.0000 0.07580  0.29100  0.54360  Biso   1.000  C
  C344     1.0000 0.01110  0.29500  0.92400  Biso   1.000  C
  C345     1.0000 0.22750  0.74100  0.41500  Biso   1.000  C
  C346     1.0000 0.03760  0.32270  0.58330  Biso   1.000  C
  C347     1.0000 0.03820  0.28100  0.61500  Biso   1.000  C
  C348     1.0000 0.02350  0.42950  0.61160  Biso   1.000  C
  C349     1.0000 0.02660  0.37200  0.66080  Biso   1.000  C
  C350     1.0000 0.98300  0.43720  0.64320  Biso   1.000  C
  C351     1.0000 0.99790  0.44870  0.63100  Biso   1.000  C
  C352     1.0000 0.96210  0.53110  0.67820  Biso   1.000  C
  C353     1.0000 0.97740  0.54220  0.66770  Biso   1.000  C
  C354     1.0000 0.91970  0.54960  0.68730  Biso   1.000  C
  C355     1.0000 0.94020  0.56420  0.70790  Biso   1.000  C
  C356     1.0000 0.90730  0.64200  0.73200  Biso   1.000  C
  C357     1.0000 0.93050  0.66900  0.74080  Biso   1.000  C
  F248     1.0000 0.90220  0.45400  0.71350  Biso   1.000  F
  F249     1.0000 0.90780  0.53400  0.66500  Biso   1.000  F
  F250     1.0000 0.91290  0.73270  0.70160  Biso   1.000  F
  F251     1.0000 0.92660  0.74470  0.69480  Biso   1.000  F
  F252     1.0000 0.91500  0.62900  0.79710  Biso   1.000  F
  F253     1.0000 0.95880  0.71500  0.77290  Biso   1.000  F
  F254     1.0000 0.86950  0.65200  0.73760  Biso   1.000  F
  F255     1.0000 0.89500  0.67700  0.76400  Biso   1.000  F
  F256     1.0000 0.00610  0.28930  0.53850  Biso   1.000  F
  F257     1.0000 0.06660  0.31900  0.56500  Biso   1.000  F
  F258     1.0000 0.03730  0.25090  0.64370  Biso   1.000  F
  F259     1.0000 0.06700  0.28200  0.84900  Biso   1.000  F
  F260     1.0000 0.04920  0.46040  0.66140  Biso   1.000  F
  F261     1.0000 0.00900  0.32900  0.72000  Biso   1.000  F
  F262     1.0000 0.02630  0.50490  0.55980  Biso   1.000  F
  F263     1.0000 0.06120  0.42500  0.67600  Biso   1.000  F
  F264     1.0000 0.95590  0.40550  0.58660  Biso   1.000  F
  F265     1.0000 0.96330  0.37840  0.61090  Biso   1.000  F
  F266     1.0000 0.98230  0.35370  0.69720  Biso   1.000  F
  F267     1.0000 0.01950  0.50600  0.57400  Biso   1.000  F
  F268     1.0000 0.97770  0.62040  0.64510  Biso   1.000  F
  F269     1.0000 0.97480  0.61670  0.61090  Biso   1.000  F
  F270     1.0000 0.97810  0.52900  0.74650  Biso   1.000  F
  F271     1.0000 0.00730  0.59260  0.70550  Biso   1.000  F
  F272     1.0000 0.90100  0.56400  0.62110  Biso   1.000  F
  F273     1.0000 0.93530  0.48100  0.75720  Biso   1.000  F
  H274     1.0000 0.11800  0.27760  0.03270  Biso   1.000  H
  H275     1.0000 0.07360  0.26960  0.06520  Biso   1.000  H
  H276     1.0000 0.04400  0.28830  0.01150  Biso   1.000  H
  H277     1.0000 0.02990  0.40440  0.99380  Biso   1.000  H
  H278     1.0000 0.20070  0.60330  0.39230  Biso   1.000  H
  H279     1.0000 0.17160  0.70050  0.39860  Biso   1.000  H
  H280     1.0000 0.14950  0.57130  0.45530  Biso   1.000  H
  H281     1.0000 0.08700  0.36230  0.53130  Biso   1.000  H
  H282     1.0000 0.09290  0.26410  0.58180  Biso   1.000  H
  H283     1.0000 0.99920  0.34990  0.89300  Biso   1.000  H
  H284     1.0000 0.99020  0.25670  0.95040  Biso   1.000  H
  H285     1.0000 0.24650  0.69070  0.39250  Biso   1.000  H
  H286     1.0000 0.23650  0.74360  0.46430  Biso   1.000  H
  H287     1.0000 0.23150  0.33300  0.11900  Biso   1.000  H
  O48      1.0000 0.16850  0.60100  0.47590  Biso   1.000  O
  O49      1.0000 0.24460  0.84200  0.39070  Biso   1.000  O
  N22      1.0000 0.67323  0.60720  0.31190  Biso   1.000  N
  N23      1.0000 0.71783  0.68210  0.18310  Biso   1.000  N
  N24      1.0000 0.12257  0.68350  0.81690  Biso   1.000  N
  O50      1.0000 0.92106  0.62160  0.01230  Biso   1.000  O
  S8       1.0000 0.68973  0.40710  0.37958  Biso   1.000  S
  C358     1.0000 0.68007  0.52440  0.34070  Biso   1.000  C
  C359     1.0000 0.71734  0.69090  0.11180  Biso   1.000  C
  H288     1.0000 0.69470  0.72190  0.09060  Biso   1.000  H
  C360     1.0000 0.74802  0.65720  0.06800  Biso   1.000  C
  H289     1.0000 0.74580  0.66370  0.01870  Biso   1.000  H
  C361     1.0000 0.78290  0.61260  0.09930  Biso   1.000  C
  C362     1.0000 0.78429  0.60530  0.17250  Biso   1.000  C
  H290     1.0000 0.80720  0.57800  0.19500  Biso   1.000  H
  C363     1.0000 0.75134  0.63860  0.21270  Biso   1.000  C
  H291     1.0000 0.75240  0.63070  0.26210  Biso   1.000  H
  C364     1.0000 0.81591  0.57360  0.05640  Biso   1.000  C
  C365     1.0000 0.84317  0.53490  0.02410  Biso   1.000  C
  C366     1.0000 0.87415  0.48240  0.98190  Biso   1.000  C
  C367     1.0000 0.86677  0.38320  0.94920  Biso   1.000  C
  H292     1.0000 0.84170  0.35030  0.95480  Biso   1.000  H
  C368     1.0000 0.89580  0.33140  0.90840  Biso   1.000  C
  H293     1.0000 0.89010  0.26540  0.88560  Biso   1.000  H
  C369     1.0000 0.93405  0.38080  0.90220  Biso   1.000  C
  H294     1.0000 0.95420  0.34500  0.87660  Biso   1.000  H
  C370     1.0000 0.94223  0.48080  0.93320  Biso   1.000  C
  C371     1.0000 0.91240  0.53180  0.97370  Biso   1.000  C
  C372     1.0000 0.98084  0.53160  0.92140  Biso   1.000  C
  C373     1.0000 0.01274  0.56700  0.90490  Biso   1.000  C
  C374     1.0000 0.05101  0.60790  0.87860  Biso   1.000  C
  C375     1.0000 0.07612  0.53710  0.84100  Biso   1.000  C
  H295     1.0000 0.06930  0.46360  0.83530  Biso   1.000  H
  C376     1.0000 0.11139  0.57830  0.81220  Biso   1.000  C
  H296     1.0000 0.12830  0.53010  0.78810  Biso   1.000  H
  C377     1.0000 0.09880  0.74920  0.85570  Biso   1.000  C
  H297     1.0000 0.10670  0.82170  0.86230  Biso   1.000  H
  C378     1.0000 0.06299  0.71490  0.88660  Biso   1.000  C
  H298     1.0000 0.04720  0.76390  0.91260  Biso   1.000  H
  C379     1.0000 0.91500  0.71810  0.98720  Biso   1.000  C
  H299     1.0000 0.88930  0.71790  0.96250  Biso   1.000  H
  H300     1.0000 0.93570  0.73300  0.95180  Biso   1.000  H
  C380     1.0000 0.91470  0.81280  0.04070  Biso   1.000  C
  H301     1.0000 0.90590  0.87900  0.01650  Biso   1.000  H
  H302     1.0000 0.89530  0.79670  0.07810  Biso   1.000  H
  C381     1.0000 0.95470  0.83360  0.07400  Biso   1.000  C
  F274     1.0000 0.96490  0.74290  0.11290  Biso   1.000  F
  F275     1.0000 0.98300  0.82770  0.01960  Biso   1.000  F
  C382     1.0000 0.95820  0.93460  0.11510  Biso   1.000  C
  F276     1.0000 0.95390  0.01850  0.06730  Biso   1.000  F
  F277     1.0000 0.92310  0.94520  0.15380  Biso   1.000  F
  C383     1.0000 0.98880  0.96990  0.16560  Biso   1.000  C
  F278     1.0000 0.97870  0.07500  0.19340  Biso   1.000  F
  F279     1.0000 0.98610  0.90700  0.22920  Biso   1.000  F
  C384     1.0000 0.03130  0.97000  0.14920  Biso   1.000  C
  F280     1.0000 0.04180  0.86120  0.14660  Biso   1.000  F
  F281     1.0000 0.03500  0.01490  0.08220  Biso   1.000  F
  C385     1.0000 0.05940  0.02650  0.19320  Biso   1.000  C
  F282     1.0000 0.05840  0.13870  0.17640  Biso   1.000  F
  F283     1.0000 0.04960  0.03500  0.26410  Biso   1.000  F
  C386     1.0000 0.10110  0.99030  0.18640  Biso   1.000  C
  F284     1.0000 0.10640  0.89440  0.21000  Biso   1.000  F
  F285     1.0000 0.12520  0.05500  0.21880  Biso   1.000  F
  F286     1.0000 0.11470  0.99300  0.12270  Biso   1.000  F
  C387     1.0000 0.20740  0.70030  0.42510  Biso   1.000  C
  H303     1.0000 0.19650  0.75800  0.45510  Biso   1.000  H
  H304     1.0000 0.23640  0.70950  0.42760  Biso   1.000  H
  C388     1.0000 0.19750  0.74200  0.34880  Biso   1.000  C
  H305     1.0000 0.21960  0.79210  0.34040  Biso   1.000  H
  H306     1.0000 0.17440  0.78840  0.35790  Biso   1.000  H
  O51      1.0000 0.20060  0.60160  0.46820  Biso   1.000  O
  H307     1.0000 0.21040  0.61040  0.50810  Biso   1.000  H
  O52      1.0000 0.18900  0.70400  0.27690  Biso   1.000  O
  H308     1.0000 0.18540  0.74240  0.24910  Biso   1.000  H
  C389     1.0000 0.26300  0.62000  0.53200  Biso   1.000  C
  H309     1.0000 0.27900  0.65870  0.49570  Biso   1.000  H
  H310     1.0000 0.27420  0.64520  0.57680  Biso   1.000  H
  C390     1.0000 0.28100  0.50400  0.52700  Biso   1.000  C
  H311     1.0000 0.27880  0.47980  0.57590  Biso   1.000  H
  H312     1.0000 0.30920  0.51930  0.51960  Biso   1.000  H
  O53      1.0000 0.22500  0.68100  0.52900  Biso   1.000  O
  H313     1.0000 0.20770  0.64150  0.51150  Biso   1.000  H
  O54      1.0000 0.27630  0.40100  0.48800  Biso   1.000  O
  H314     1.0000 0.29850  0.38000  0.47430  Biso   1.000  H
  C391     1.0000 0.41060  0.71730  0.02240  Biso   1.000  C
  C392     1.0000 0.45470  0.65600  0.97400  Biso   1.000  C
  C393     1.0000 0.30740  0.33800  0.42440  Biso   1.000  C
  C394     1.0000 0.42420  0.70900  0.54360  Biso   1.000  C
  C395     1.0000 0.48890  0.70500  0.92400  Biso   1.000  C
  C396     1.0000 0.27250  0.25900  0.41500  Biso   1.000  C
  C397     1.0000 0.46240  0.67730  0.58330  Biso   1.000  C
  C398     1.0000 0.46180  0.71900  0.61500  Biso   1.000  C
  C399     1.0000 0.47650  0.57050  0.61160  Biso   1.000  C
  C400     1.0000 0.47340  0.62800  0.66080  Biso   1.000  C
  C401     1.0000 0.51700  0.56280  0.64320  Biso   1.000  C
  C402     1.0000 0.50210  0.55130  0.63100  Biso   1.000  C
  C403     1.0000 0.53790  0.46890  0.67820  Biso   1.000  C
  C404     1.0000 0.52260  0.45780  0.66770  Biso   1.000  C
  C405     1.0000 0.58030  0.45040  0.68730  Biso   1.000  C
  C406     1.0000 0.55980  0.43580  0.70790  Biso   1.000  C
  C407     1.0000 0.59270  0.35800  0.73200  Biso   1.000  C
  C408     1.0000 0.56950  0.33100  0.74080  Biso   1.000  C
  F287     1.0000 0.59780  0.54600  0.71350  Biso   1.000  F
  F288     1.0000 0.59220  0.46600  0.66500  Biso   1.000  F
  F289     1.0000 0.58710  0.26730  0.70160  Biso   1.000  F
  F290     1.0000 0.57340  0.25530  0.69480  Biso   1.000  F
  F291     1.0000 0.58500  0.37100  0.79710  Biso   1.000  F
  F292     1.0000 0.54120  0.28500  0.77290  Biso   1.000  F
  F293     1.0000 0.63050  0.34800  0.73760  Biso   1.000  F
  F294     1.0000 0.60500  0.32300  0.76400  Biso   1.000  F
  F295     1.0000 0.49390  0.71070  0.53850  Biso   1.000  F
  F296     1.0000 0.43340  0.68100  0.56500  Biso   1.000  F
  F297     1.0000 0.46270  0.74910  0.64370  Biso   1.000  F
  F298     1.0000 0.43300  0.71800  0.84900  Biso   1.000  F
  F299     1.0000 0.45080  0.53960  0.66140  Biso   1.000  F
  F300     1.0000 0.49100  0.67100  0.72000  Biso   1.000  F
  F301     1.0000 0.47370  0.49510  0.55980  Biso   1.000  F
  F302     1.0000 0.43880  0.57500  0.67600  Biso   1.000  F
  F303     1.0000 0.54410  0.59450  0.58660  Biso   1.000  F
  F304     1.0000 0.53670  0.62160  0.61090  Biso   1.000  F
  F305     1.0000 0.51770  0.64630  0.69720  Biso   1.000  F
  F306     1.0000 0.48050  0.49400  0.57400  Biso   1.000  F
  F307     1.0000 0.52230  0.37960  0.64510  Biso   1.000  F
  F308     1.0000 0.52520  0.38330  0.61090  Biso   1.000  F
  F309     1.0000 0.52190  0.47100  0.74650  Biso   1.000  F
  F310     1.0000 0.49270  0.40740  0.70550  Biso   1.000  F
  F311     1.0000 0.59900  0.43600  0.62110  Biso   1.000  F
  F312     1.0000 0.56470  0.51900  0.75720  Biso   1.000  F
  H315     1.0000 0.38200  0.72240  0.03270  Biso   1.000  H
  H316     1.0000 0.42640  0.73040  0.06520  Biso   1.000  H
  H317     1.0000 0.45600  0.71170  0.01150  Biso   1.000  H
  H318     1.0000 0.47010  0.59560  0.99380  Biso   1.000  H
  H319     1.0000 0.29930  0.39670  0.39230  Biso   1.000  H
  H320     1.0000 0.32840  0.29950  0.39860  Biso   1.000  H
  H321     1.0000 0.35050  0.42870  0.45530  Biso   1.000  H
  H322     1.0000 0.41300  0.63770  0.53130  Biso   1.000  H
  H323     1.0000 0.40710  0.73590  0.58180  Biso   1.000  H
  H324     1.0000 0.50080  0.65010  0.89300  Biso   1.000  H
  H325     1.0000 0.50980  0.74330  0.95040  Biso   1.000  H
  H326     1.0000 0.25350  0.30930  0.39250  Biso   1.000  H
  H327     1.0000 0.26350  0.25640  0.46430  Biso   1.000  H
  H328     1.0000 0.26850  0.66700  0.11900  Biso   1.000  H
  O55      1.0000 0.33150  0.39900  0.47590  Biso   1.000  O
  O56      1.0000 0.25540  0.15800  0.39070  Biso   1.000  O
  Co1      1.0000 0.32888  0.25000  0.75000  Biso   1.000  Co
  Co2      1.0000 0.17112  0.75000  0.75000  Biso   1.000  Co
  Co3      1.0000 0.67112  0.75000  0.25000  Biso   1.000  Co
  Co4      1.0000 0.82888  0.25000  0.25000  Biso   1.000  Co
