data_image0
_cell_length_a       27.0118
_cell_length_b       27.0118
_cell_length_c       25.0254
_cell_angle_alpha    90
_cell_angle_beta     90
_cell_angle_gamma    120

_symmetry_space_group_name_H-M    "P 1"
_symmetry_int_tables_number       1

loop_
  _symmetry_equiv_pos_as_xyz
  'x, y, z'

loop_
  _atom_site_label
  _atom_site_occupancy
  _atom_site_fract_x
  _atom_site_fract_y
  _atom_site_fract_z
  _atom_site_thermal_displace_type
  _atom_site_B_iso_or_equiv
  _atom_site_type_symbol
  C1       1.0000 0.62380  0.88370  0.75579  Biso   1.000  C
  C2       1.0000 0.62740  0.91580  0.80760  Biso   1.000  C
  H1       1.0000 0.65600  0.95630  0.80320  Biso   1.000  H
  C3       1.0000 0.56860  0.91000  0.81850  Biso   1.000  C
  H2       1.0000 0.54190  0.87080  0.82850  Biso   1.000  H
  H3       1.0000 0.55470  0.91810  0.78580  Biso   1.000  H
  C4       1.0000 0.56970  0.95060  0.86330  Biso   1.000  C
  H4       1.0000 0.58700  0.94420  0.89500  Biso   1.000  H
  C5       1.0000 0.51060  0.93510  0.87750  Biso   1.000  C
  H5       1.0000 0.48920  0.89530  0.88670  Biso   1.000  H
  H6       1.0000 0.49280  0.94240  0.84760  Biso   1.000  H
  H7       1.0000 0.51130  0.95770  0.90750  Biso   1.000  H
  C6       1.0000 0.60600  0.01350  0.84810  Biso   1.000  C
  H8       1.0000 0.64380  0.02160  0.83850  Biso   1.000  H
  H9       1.0000 0.60830  0.03690  0.87790  Biso   1.000  H
  H10      1.0000 0.58890  0.02170  0.81820  Biso   1.000  H
  C7       1.0000 0.70640  0.92030  0.86090  Biso   1.000  C
  H11      1.0000 0.72400  0.91540  0.82910  Biso   1.000  H
  H12      1.0000 0.71400  0.90150  0.89020  Biso   1.000  H
  C8       1.0000 0.73420  0.98373  0.87331  Biso   1.000  C
  C9       1.0000 0.72260  0.00180  0.92100  Biso   1.000  C
  H13      1.0000 0.69910  0.97470  0.94600  Biso   1.000  H
  C10      1.0000 0.77060  0.02430  0.83720  Biso   1.000  C
  H14      1.0000 0.77940  0.01270  0.80530  Biso   1.000  H
  C11      1.0000 0.74510  0.05980  0.93260  Biso   1.000  C
  H15      1.0000 0.73630  0.07100  0.96460  Biso   1.000  H
  C12      1.0000 0.79460  0.08310  0.84800  Biso   1.000  C
  H16      1.0000 0.81920  0.11010  0.82350  Biso   1.000  H
  C13      1.0000 0.78110  0.10070  0.89548  Biso   1.000  C
  C14      1.0000 0.80490  0.16320  0.90750  Biso   1.000  C
  H17      1.0000 0.82460  0.18520  0.87600  Biso   1.000  H
  H18      1.0000 0.77340  0.16980  0.91470  Biso   1.000  H
  C15      1.0000 0.94500  0.24490  0.92450  Biso   1.000  C
  C16      1.0000 0.89950  0.18530  0.94320  Biso   1.000  C
  H19      1.0000 0.89340  0.15750  0.91510  Biso   1.000  H
  C17      1.0000 0.92270  0.17110  0.99290  Biso   1.000  C
  H20      1.0000 0.96230  0.18220  0.98670  Biso   1.000  H
  H21      1.0000 0.92170  0.19380  0.02250  Biso   1.000  H
  C18      1.0000 0.76830  0.27700  0.98550  Biso   1.000  C
  C19      1.0000 0.81370  0.33860  0.97040  Biso   1.000  C
  H22      1.0000 0.79700  0.35490  0.94620  Biso   1.000  H
  C20      1.0000 0.83380  0.37370  0.02160  Biso   1.000  C
  H23      1.0000 0.80060  0.36460  0.04350  Biso   1.000  H
  H24      1.0000 0.85750  0.36260  0.04140  Biso   1.000  H
  C21      1.0000 0.86730  0.43810  0.01250  Biso   1.000  C
  H25      1.0000 0.89930  0.44640  0.98860  Biso   1.000  H
  C22      1.0000 0.89180  0.46870  0.06420  Biso   1.000  C
  H26      1.0000 0.91310  0.50910  0.05790  Biso   1.000  H
  H27      1.0000 0.91670  0.45640  0.07900  Biso   1.000  H
  H28      1.0000 0.86140  0.46010  0.08890  Biso   1.000  H
  C23      1.0000 0.83180  0.46080  0.98640  Biso   1.000  C
  H29      1.0000 0.81620  0.44090  0.95340  Biso   1.000  H
  H30      1.0000 0.85550  0.50090  0.97940  Biso   1.000  H
  H31      1.0000 0.80120  0.45490  0.00990  Biso   1.000  H
  C24      1.0000 0.85400  0.33020  0.88340  Biso   1.000  C
  H32      1.0000 0.88440  0.32540  0.86810  Biso   1.000  H
  H33      1.0000 0.81800  0.29590  0.87590  Biso   1.000  H
  C25      1.0000 0.85420  0.37990  0.85722  Biso   1.000  C
  C26      1.0000 0.90520  0.42920  0.84532  Biso   1.000  C
  H34      1.0000 0.93980  0.43110  0.85340  Biso   1.000  H
  C27      1.0000 0.80320  0.37880  0.84400  Biso   1.000  C
  H35      1.0000 0.76850  0.34560  0.85000  Biso   1.000  H
  O1       1.0000 0.62777  0.83866  0.76014  Biso   1.000  O
  O2       1.0000 0.61839  0.90332  0.71334  Biso   1.000  O
  O3       1.0000 0.93483  0.28587  0.93201  Biso   1.000  O
  O4       1.0000 0.98870  0.25010  0.90370  Biso   1.000  O
  O5       1.0000 0.78523  0.24053  0.98903  Biso   1.000  O
  O6       1.0000 0.71940  0.26720  0.99640  Biso   1.000  O
  Cu1      1.0000 0.86294  0.26566  0.96703  Biso   1.000  Cu
  N1       1.0000 0.64454  0.89188  0.85259  Biso   1.000  N
  H36      1.0000 0.62670  0.89250  0.88320  Biso   1.000  H
  N2       1.0000 0.84512  0.18456  0.95351  Biso   1.000  N
  H37      1.0000 0.82780  0.16270  0.98280  Biso   1.000  H
  N3       1.0000 0.86220  0.33693  0.94311  Biso   1.000  N
  H38      1.0000 0.89600  0.36870  0.95120  Biso   1.000  H
  C28      1.0000 0.91490  0.09930  0.06140  Biso   1.000  C
  H39      1.0000 0.89380  0.05970  0.07140  Biso   1.000  H
  H40      1.0000 0.91210  0.12220  0.08920  Biso   1.000  H
  H41      1.0000 0.95440  0.11040  0.05610  Biso   1.000  H
  C29      1.0000 0.89010  0.10830  0.00890  Biso   1.000  C
  H42      1.0000 0.84850  0.09150  0.00910  Biso   1.000  H
  C30      1.0000 0.91390  0.08030  0.96420  Biso   1.000  C
  H43      1.0000 0.89580  0.03970  0.96980  Biso   1.000  H
  H44      1.0000 0.95450  0.09710  0.96790  Biso   1.000  H
  H45      1.0000 0.90510  0.08770  0.92900  Biso   1.000  H
  C31      1.0000 0.87460  0.06070  0.96670  Biso   1.000  C
  H46      1.0000 0.85500  0.02400  0.98380  Biso   1.000  H
  H47      1.0000 0.90890  0.06570  0.95020  Biso   1.000  H
  H48      1.0000 0.85030  0.06290  0.93990  Biso   1.000  H
  H49      1.0000 0.86500  0.05300  0.07400  Biso   1.000  H
  C32      1.0000 0.11630  0.74010  0.08912  Biso   1.000  C
  C33      1.0000 0.08420  0.71160  0.14093  Biso   1.000  C
  H50      1.0000 0.04370  0.69970  0.13653  Biso   1.000  H
  C34      1.0000 0.09000  0.65860  0.15183  Biso   1.000  C
  H51      1.0000 0.12920  0.67110  0.16183  Biso   1.000  H
  H52      1.0000 0.08190  0.63660  0.11913  Biso   1.000  H
  C35      1.0000 0.04940  0.61910  0.19663  Biso   1.000  C
  H53      1.0000 0.05580  0.64280  0.22833  Biso   1.000  H
  C36      1.0000 0.06490  0.57550  0.21083  Biso   1.000  C
  H54      1.0000 0.10470  0.59390  0.22003  Biso   1.000  H
  H55      1.0000 0.05760  0.55040  0.18093  Biso   1.000  H
  H56      1.0000 0.04230  0.55360  0.24083  Biso   1.000  H
  C37      1.0000 0.98650  0.59250  0.18143  Biso   1.000  C
  H57      1.0000 0.97840  0.62220  0.17183  Biso   1.000  H
  H58      1.0000 0.96310  0.57140  0.21123  Biso   1.000  H
  H59      1.0000 0.97830  0.56720  0.15153  Biso   1.000  H
  C38      1.0000 0.07970  0.78610  0.19423  Biso   1.000  C
  H60      1.0000 0.08460  0.80860  0.16243  Biso   1.000  H
  H61      1.0000 0.09850  0.81250  0.22353  Biso   1.000  H
  C39      1.0000 0.01627  0.75047  0.20664  Biso   1.000  C
  C40      1.0000 0.99820  0.72080  0.25433  Biso   1.000  C
  H62      1.0000 0.02530  0.72440  0.27933  Biso   1.000  H
  C41      1.0000 0.97570  0.74630  0.17053  Biso   1.000  C
  H63      1.0000 0.98730  0.76670  0.13863  Biso   1.000  H
  C42      1.0000 0.94020  0.68530  0.26593  Biso   1.000  C
  H64      1.0000 0.92900  0.66530  0.29793  Biso   1.000  H
  C43      1.0000 0.91690  0.71150  0.18133  Biso   1.000  C
  H65      1.0000 0.88990  0.70910  0.15683  Biso   1.000  H
  C44      1.0000 0.89930  0.68040  0.22881  Biso   1.000  C
  C45      1.0000 0.83680  0.64170  0.24083  Biso   1.000  C
  H66      1.0000 0.81480  0.63940  0.20933  Biso   1.000  H
  H67      1.0000 0.83020  0.60360  0.24803  Biso   1.000  H
  C46      1.0000 0.75510  0.70010  0.25783  Biso   1.000  C
  C47      1.0000 0.81470  0.71420  0.27653  Biso   1.000  C
  H68      1.0000 0.84250  0.73590  0.24843  Biso   1.000  H
  C48      1.0000 0.82890  0.75160  0.32623  Biso   1.000  C
  H69      1.0000 0.81780  0.78010  0.32003  Biso   1.000  H
  H70      1.0000 0.80620  0.72790  0.35583  Biso   1.000  H
  C49      1.0000 0.72300  0.49130  0.31883  Biso   1.000  C
  C50      1.0000 0.66140  0.47510  0.30373  Biso   1.000  C
  H71      1.0000 0.64510  0.44210  0.27953  Biso   1.000  H
  C51      1.0000 0.62630  0.46010  0.35493  Biso   1.000  C
  H72      1.0000 0.63540  0.43600  0.37683  Biso   1.000  H
  H73      1.0000 0.63740  0.49490  0.37473  Biso   1.000  H
  C52      1.0000 0.56190  0.42920  0.34583  Biso   1.000  C
  H74      1.0000 0.55360  0.45290  0.32193  Biso   1.000  H
  C53      1.0000 0.53130  0.42310  0.39753  Biso   1.000  C
  H75      1.0000 0.49090  0.40400  0.39123  Biso   1.000  H
  H76      1.0000 0.54360  0.46030  0.41233  Biso   1.000  H
  H77      1.0000 0.53990  0.40130  0.42223  Biso   1.000  H
  C54      1.0000 0.53920  0.37100  0.31973  Biso   1.000  C
  H78      1.0000 0.55910  0.37530  0.28673  Biso   1.000  H
  H79      1.0000 0.49910  0.35460  0.31273  Biso   1.000  H
  H80      1.0000 0.54510  0.34630  0.34323  Biso   1.000  H
  C55      1.0000 0.66980  0.52380  0.21673  Biso   1.000  C
  H81      1.0000 0.67460  0.55900  0.20143  Biso   1.000  H
  H82      1.0000 0.70410  0.52210  0.20923  Biso   1.000  H
  C56      1.0000 0.62010  0.47430  0.19055  Biso   1.000  C
  C57      1.0000 0.57080  0.47600  0.17865  Biso   1.000  C
  H83      1.0000 0.56890  0.50870  0.18673  Biso   1.000  H
  C58      1.0000 0.62120  0.42440  0.17733  Biso   1.000  C
  H84      1.0000 0.65440  0.42290  0.18333  Biso   1.000  H
  O7       1.0000 0.16134  0.78911  0.09347  Biso   1.000  O
  O8       1.0000 0.09668  0.71507  0.04667  Biso   1.000  O
  O9       1.0000 0.71413  0.64896  0.26534  Biso   1.000  O
  O10      1.0000 0.74990  0.73860  0.23703  Biso   1.000  O
  O11      1.0000 0.75947  0.54470  0.32236  Biso   1.000  O
  O12      1.0000 0.73280  0.45220  0.32973  Biso   1.000  O
  Cu2      1.0000 0.73434  0.59728  0.30036  Biso   1.000  Cu
  N4       1.0000 0.10812  0.75266  0.18592  Biso   1.000  N
  H85      1.0000 0.10750  0.73420  0.21653  Biso   1.000  H
  N5       1.0000 0.81544  0.66056  0.28684  Biso   1.000  N
  H86      1.0000 0.83730  0.66510  0.31613  Biso   1.000  H
  N6       1.0000 0.66307  0.52527  0.27644  Biso   1.000  N
  H87      1.0000 0.63130  0.52730  0.28453  Biso   1.000  H
  C59      1.0000 0.90070  0.81560  0.39473  Biso   1.000  C
  H88      1.0000 0.94030  0.83410  0.40473  Biso   1.000  H
  H89      1.0000 0.87780  0.78990  0.42253  Biso   1.000  H
  H90      1.0000 0.88960  0.84400  0.38943  Biso   1.000  H
  C60      1.0000 0.89170  0.78180  0.34223  Biso   1.000  C
  H91      1.0000 0.90850  0.75700  0.34243  Biso   1.000  H
  C61      1.0000 0.91970  0.83360  0.29753  Biso   1.000  C
  H92      1.0000 0.96030  0.85610  0.30313  Biso   1.000  H
  H93      1.0000 0.90290  0.85740  0.30123  Biso   1.000  H
  H94      1.0000 0.91230  0.81740  0.26233  Biso   1.000  H
  C62      1.0000 0.93930  0.81390  0.30003  Biso   1.000  C
  H95      1.0000 0.97600  0.83100  0.31713  Biso   1.000  H
  H96      1.0000 0.93430  0.84320  0.28353  Biso   1.000  H
  H97      1.0000 0.93710  0.78740  0.27323  Biso   1.000  H
  H98      1.0000 0.94700  0.81200  0.40733  Biso   1.000  H
  C63      1.0000 0.25990  0.37620  0.42246  Biso   1.000  C
  C64      1.0000 0.28840  0.37260  0.47427  Biso   1.000  C
  H99      1.0000 0.30030  0.34400  0.46987  Biso   1.000  H
  C65      1.0000 0.34140  0.43140  0.48517  Biso   1.000  C
  H100     1.0000 0.32890  0.45810  0.49517  Biso   1.000  H
  H101     1.0000 0.36340  0.44530  0.45247  Biso   1.000  H
  C66      1.0000 0.38090  0.43030  0.52997  Biso   1.000  C
  H102     1.0000 0.35720  0.41300  0.56167  Biso   1.000  H
  C67      1.0000 0.42450  0.48940  0.54417  Biso   1.000  C
  H103     1.0000 0.40610  0.51080  0.55337  Biso   1.000  H
  H104     1.0000 0.44960  0.50720  0.51427  Biso   1.000  H
  H105     1.0000 0.44640  0.48870  0.57417  Biso   1.000  H
  C68      1.0000 0.40750  0.39400  0.51477  Biso   1.000  C
  H106     1.0000 0.37780  0.35620  0.50517  Biso   1.000  H
  H107     1.0000 0.42860  0.39170  0.54457  Biso   1.000  H
  H108     1.0000 0.43280  0.41110  0.48487  Biso   1.000  H
  C69      1.0000 0.21390  0.29360  0.52757  Biso   1.000  C
  H109     1.0000 0.19140  0.27600  0.49577  Biso   1.000  H
  H110     1.0000 0.18750  0.28600  0.55687  Biso   1.000  H
  C70      1.0000 0.24953  0.26580  0.53998  Biso   1.000  C
  C71      1.0000 0.27920  0.27740  0.58767  Biso   1.000  C
  H111     1.0000 0.27560  0.30090  0.61267  Biso   1.000  H
  C72      1.0000 0.25370  0.22940  0.50387  Biso   1.000  C
  H112     1.0000 0.23330  0.22060  0.47197  Biso   1.000  H
  C73      1.0000 0.31470  0.25490  0.59927  Biso   1.000  C
  H113     1.0000 0.33470  0.26370  0.63127  Biso   1.000  H
  C74      1.0000 0.28850  0.20540  0.51467  Biso   1.000  C
  H114     1.0000 0.29090  0.18080  0.49017  Biso   1.000  H
  C75      1.0000 0.31960  0.21890  0.56215  Biso   1.000  C
  C76      1.0000 0.35830  0.19510  0.57417  Biso   1.000  C
  H115     1.0000 0.36060  0.17540  0.54267  Biso   1.000  H
  H116     1.0000 0.39640  0.22660  0.58137  Biso   1.000  H
  C77      1.0000 0.29990  0.05500  0.59117  Biso   1.000  C
  C78      1.0000 0.28580  0.10050  0.60987  Biso   1.000  C
  H117     1.0000 0.26410  0.10660  0.58177  Biso   1.000  H
  C79      1.0000 0.24840  0.07730  0.65957  Biso   1.000  C
  H118     1.0000 0.21990  0.03770  0.65337  Biso   1.000  H
  H119     1.0000 0.27210  0.07830  0.68917  Biso   1.000  H
  C80      1.0000 0.50870  0.23170  0.65217  Biso   1.000  C
  C81      1.0000 0.52490  0.18630  0.63707  Biso   1.000  C
  H120     1.0000 0.55790  0.20300  0.61287  Biso   1.000  H
  C82      1.0000 0.53990  0.16620  0.68827  Biso   1.000  C
  H121     1.0000 0.56400  0.19940  0.71017  Biso   1.000  H
  H122     1.0000 0.50510  0.14250  0.70807  Biso   1.000  H
  C83      1.0000 0.57080  0.13270  0.67917  Biso   1.000  C
  H123     1.0000 0.54710  0.10070  0.65527  Biso   1.000  H
  C84      1.0000 0.57690  0.10820  0.73087  Biso   1.000  C
  H124     1.0000 0.59600  0.08690  0.72457  Biso   1.000  H
  H125     1.0000 0.53970  0.08330  0.74567  Biso   1.000  H
  H126     1.0000 0.59870  0.13860  0.75557  Biso   1.000  H
  C85      1.0000 0.62900  0.16820  0.65307  Biso   1.000  C
  H127     1.0000 0.62470  0.18380  0.62007  Biso   1.000  H
  H128     1.0000 0.64540  0.14450  0.64607  Biso   1.000  H
  H129     1.0000 0.65370  0.19880  0.67657  Biso   1.000  H
  C86      1.0000 0.47620  0.14600  0.55007  Biso   1.000  C
  H130     1.0000 0.44100  0.11560  0.53477  Biso   1.000  H
  H131     1.0000 0.47790  0.18200  0.54257  Biso   1.000  H
  C87      1.0000 0.52570  0.14580  0.52389  Biso   1.000  C
  C88      1.0000 0.52400  0.09480  0.51199  Biso   1.000  C
  H132     1.0000 0.49130  0.06020  0.52007  Biso   1.000  H
  C89      1.0000 0.57560  0.19680  0.51067  Biso   1.000  C
  H133     1.0000 0.57710  0.23150  0.51667  Biso   1.000  H
  O13      1.0000 0.21089  0.37223  0.42681  Biso   1.000  O
  O14      1.0000 0.28493  0.38161  0.38001  Biso   1.000  O
  O15      1.0000 0.35104  0.06517  0.59868  Biso   1.000  O
  O16      1.0000 0.26140  0.01130  0.57037  Biso   1.000  O
  O17      1.0000 0.45530  0.21477  0.65570  Biso   1.000  O
  O18      1.0000 0.54780  0.28060  0.66307  Biso   1.000  O
  Cu3      1.0000 0.40272  0.13706  0.63370  Biso   1.000  Cu
  N7       1.0000 0.24734  0.35546  0.51926  Biso   1.000  N
  H134     1.0000 0.26580  0.37330  0.54987  Biso   1.000  H
  N8       1.0000 0.33944  0.15488  0.62018  Biso   1.000  N
  H135     1.0000 0.33490  0.17220  0.64947  Biso   1.000  H
  N9       1.0000 0.47473  0.13780  0.60978  Biso   1.000  N
  H136     1.0000 0.47270  0.10400  0.61787  Biso   1.000  H
  C90      1.0000 0.18440  0.08510  0.72807  Biso   1.000  C
  H137     1.0000 0.16590  0.10620  0.73807  Biso   1.000  H
  H138     1.0000 0.21010  0.08790  0.75587  Biso   1.000  H
  H139     1.0000 0.15600  0.04560  0.72277  Biso   1.000  H
  C91      1.0000 0.21820  0.10990  0.67557  Biso   1.000  C
  H140     1.0000 0.24300  0.15150  0.67577  Biso   1.000  H
  C92      1.0000 0.16640  0.08610  0.63087  Biso   1.000  C
  H141     1.0000 0.14390  0.10420  0.63647  Biso   1.000  H
  H142     1.0000 0.14260  0.04550  0.63457  Biso   1.000  H
  H143     1.0000 0.18260  0.09490  0.59567  Biso   1.000  H
  C93      1.0000 0.18610  0.12540  0.63337  Biso   1.000  C
  H144     1.0000 0.16900  0.14500  0.65047  Biso   1.000  H
  H145     1.0000 0.15680  0.09110  0.61687  Biso   1.000  H
  H146     1.0000 0.21260  0.14970  0.60657  Biso   1.000  H
  H147     1.0000 0.18800  0.13500  0.74067  Biso   1.000  H
  C94      1.0000 0.37620  0.11630  0.75579  Biso   1.000  C
  C95      1.0000 0.37260  0.08420  0.80760  Biso   1.000  C
  H148     1.0000 0.34400  0.04370  0.80320  Biso   1.000  H
  C96      1.0000 0.43140  0.09000  0.81850  Biso   1.000  C
  H149     1.0000 0.45810  0.12920  0.82850  Biso   1.000  H
  H150     1.0000 0.44530  0.08190  0.78580  Biso   1.000  H
  C97      1.0000 0.43030  0.04940  0.86330  Biso   1.000  C
  H151     1.0000 0.41300  0.05580  0.89500  Biso   1.000  H
  C98      1.0000 0.48940  0.06490  0.87750  Biso   1.000  C
  H152     1.0000 0.51080  0.10470  0.88670  Biso   1.000  H
  H153     1.0000 0.50720  0.05760  0.84760  Biso   1.000  H
  H154     1.0000 0.48870  0.04230  0.90750  Biso   1.000  H
  C99      1.0000 0.39400  0.98650  0.84810  Biso   1.000  C
  H155     1.0000 0.35620  0.97840  0.83850  Biso   1.000  H
  H156     1.0000 0.39170  0.96310  0.87790  Biso   1.000  H
  H157     1.0000 0.41110  0.97830  0.81820  Biso   1.000  H
  C100     1.0000 0.29360  0.07970  0.86090  Biso   1.000  C
  H158     1.0000 0.27600  0.08460  0.82910  Biso   1.000  H
  H159     1.0000 0.28600  0.09850  0.89020  Biso   1.000  H
  C101     1.0000 0.26580  0.01627  0.87331  Biso   1.000  C
  C102     1.0000 0.27740  0.99820  0.92100  Biso   1.000  C
  H160     1.0000 0.30090  0.02530  0.94600  Biso   1.000  H
  C103     1.0000 0.22940  0.97570  0.83720  Biso   1.000  C
  H161     1.0000 0.22060  0.98730  0.80530  Biso   1.000  H
  C104     1.0000 0.25490  0.94020  0.93260  Biso   1.000  C
  H162     1.0000 0.26370  0.92900  0.96460  Biso   1.000  H
  C105     1.0000 0.20540  0.91690  0.84800  Biso   1.000  C
  H163     1.0000 0.18080  0.88990  0.82350  Biso   1.000  H
  C106     1.0000 0.21890  0.89930  0.89548  Biso   1.000  C
  C107     1.0000 0.19510  0.83680  0.90750  Biso   1.000  C
  H164     1.0000 0.17540  0.81480  0.87600  Biso   1.000  H
  H165     1.0000 0.22660  0.83020  0.91470  Biso   1.000  H
  C108     1.0000 0.05500  0.75510  0.92450  Biso   1.000  C
  C109     1.0000 0.10050  0.81470  0.94320  Biso   1.000  C
  H166     1.0000 0.10660  0.84250  0.91510  Biso   1.000  H
  C110     1.0000 0.07730  0.82890  0.99290  Biso   1.000  C
  H167     1.0000 0.03770  0.81780  0.98670  Biso   1.000  H
  H168     1.0000 0.07830  0.80620  0.02250  Biso   1.000  H
  C111     1.0000 0.23170  0.72300  0.98550  Biso   1.000  C
  C112     1.0000 0.18630  0.66140  0.97040  Biso   1.000  C
  H169     1.0000 0.20300  0.64510  0.94620  Biso   1.000  H
  C113     1.0000 0.16620  0.62630  0.02160  Biso   1.000  C
  H170     1.0000 0.19940  0.63540  0.04350  Biso   1.000  H
  H171     1.0000 0.14250  0.63740  0.04140  Biso   1.000  H
  C114     1.0000 0.13270  0.56190  0.01250  Biso   1.000  C
  H172     1.0000 0.10070  0.55360  0.98860  Biso   1.000  H
  C115     1.0000 0.10820  0.53130  0.06420  Biso   1.000  C
  H173     1.0000 0.08690  0.49090  0.05790  Biso   1.000  H
  H174     1.0000 0.08330  0.54360  0.07900  Biso   1.000  H
  H175     1.0000 0.13860  0.53990  0.08890  Biso   1.000  H
  C116     1.0000 0.16820  0.53920  0.98640  Biso   1.000  C
  H176     1.0000 0.18380  0.55910  0.95340  Biso   1.000  H
  H177     1.0000 0.14450  0.49910  0.97940  Biso   1.000  H
  H178     1.0000 0.19880  0.54510  0.00990  Biso   1.000  H
  C117     1.0000 0.14600  0.66980  0.88340  Biso   1.000  C
  H179     1.0000 0.11560  0.67460  0.86810  Biso   1.000  H
  H180     1.0000 0.18200  0.70410  0.87590  Biso   1.000  H
  C118     1.0000 0.14580  0.62010  0.85722  Biso   1.000  C
  C119     1.0000 0.09480  0.57080  0.84532  Biso   1.000  C
  H181     1.0000 0.06020  0.56890  0.85340  Biso   1.000  H
  C120     1.0000 0.19680  0.62120  0.84400  Biso   1.000  C
  H182     1.0000 0.23150  0.65440  0.85000  Biso   1.000  H
  O19      1.0000 0.37223  0.16134  0.76014  Biso   1.000  O
  O20      1.0000 0.38161  0.09668  0.71334  Biso   1.000  O
  O21      1.0000 0.06517  0.71413  0.93201  Biso   1.000  O
  O22      1.0000 0.01130  0.74990  0.90370  Biso   1.000  O
  O23      1.0000 0.21477  0.75947  0.98903  Biso   1.000  O
  O24      1.0000 0.28060  0.73280  0.99640  Biso   1.000  O
  Cu4      1.0000 0.13706  0.73434  0.96703  Biso   1.000  Cu
  N10      1.0000 0.35546  0.10812  0.85259  Biso   1.000  N
  H183     1.0000 0.37330  0.10750  0.88320  Biso   1.000  H
  N11      1.0000 0.15488  0.81544  0.95351  Biso   1.000  N
  H184     1.0000 0.17220  0.83730  0.98280  Biso   1.000  H
  N12      1.0000 0.13780  0.66307  0.94311  Biso   1.000  N
  H185     1.0000 0.10400  0.63130  0.95120  Biso   1.000  H
  C121     1.0000 0.08510  0.90070  0.06140  Biso   1.000  C
  H186     1.0000 0.10620  0.94030  0.07140  Biso   1.000  H
  H187     1.0000 0.08790  0.87780  0.08920  Biso   1.000  H
  H188     1.0000 0.04560  0.88960  0.05610  Biso   1.000  H
  C122     1.0000 0.10990  0.89170  0.00890  Biso   1.000  C
  H189     1.0000 0.15150  0.90850  0.00910  Biso   1.000  H
  C123     1.0000 0.08610  0.91970  0.96420  Biso   1.000  C
  H190     1.0000 0.10420  0.96030  0.96980  Biso   1.000  H
  H191     1.0000 0.04550  0.90290  0.96790  Biso   1.000  H
  H192     1.0000 0.09490  0.91230  0.92900  Biso   1.000  H
  C124     1.0000 0.12540  0.93930  0.96670  Biso   1.000  C
  H193     1.0000 0.14500  0.97600  0.98380  Biso   1.000  H
  H194     1.0000 0.09110  0.93430  0.95020  Biso   1.000  H
  H195     1.0000 0.14970  0.93710  0.93990  Biso   1.000  H
  H196     1.0000 0.13500  0.94700  0.07400  Biso   1.000  H
  C125     1.0000 0.88370  0.25990  0.08912  Biso   1.000  C
  C126     1.0000 0.91580  0.28840  0.14093  Biso   1.000  C
  H197     1.0000 0.95630  0.30030  0.13653  Biso   1.000  H
  C127     1.0000 0.91000  0.34140  0.15183  Biso   1.000  C
  H198     1.0000 0.87080  0.32890  0.16183  Biso   1.000  H
  H199     1.0000 0.91810  0.36340  0.11913  Biso   1.000  H
  C128     1.0000 0.95060  0.38090  0.19663  Biso   1.000  C
  H200     1.0000 0.94420  0.35720  0.22833  Biso   1.000  H
  C129     1.0000 0.93510  0.42450  0.21083  Biso   1.000  C
  H201     1.0000 0.89530  0.40610  0.22003  Biso   1.000  H
  H202     1.0000 0.94240  0.44960  0.18093  Biso   1.000  H
  H203     1.0000 0.95770  0.44640  0.24083  Biso   1.000  H
  C130     1.0000 0.01350  0.40750  0.18143  Biso   1.000  C
  H204     1.0000 0.02160  0.37780  0.17183  Biso   1.000  H
  H205     1.0000 0.03690  0.42860  0.21123  Biso   1.000  H
  H206     1.0000 0.02170  0.43280  0.15153  Biso   1.000  H
  C131     1.0000 0.92030  0.21390  0.19423  Biso   1.000  C
  H207     1.0000 0.91540  0.19140  0.16243  Biso   1.000  H
  H208     1.0000 0.90150  0.18750  0.22353  Biso   1.000  H
  C132     1.0000 0.98373  0.24953  0.20664  Biso   1.000  C
  C133     1.0000 0.00180  0.27920  0.25433  Biso   1.000  C
  H209     1.0000 0.97470  0.27560  0.27933  Biso   1.000  H
  C134     1.0000 0.02430  0.25370  0.17053  Biso   1.000  C
  H210     1.0000 0.01270  0.23330  0.13863  Biso   1.000  H
  C135     1.0000 0.05980  0.31470  0.26593  Biso   1.000  C
  H211     1.0000 0.07100  0.33470  0.29793  Biso   1.000  H
  C136     1.0000 0.08310  0.28850  0.18133  Biso   1.000  C
  H212     1.0000 0.11010  0.29090  0.15683  Biso   1.000  H
  C137     1.0000 0.10070  0.31960  0.22881  Biso   1.000  C
  C138     1.0000 0.16320  0.35830  0.24083  Biso   1.000  C
  H213     1.0000 0.18520  0.36060  0.20933  Biso   1.000  H
  H214     1.0000 0.16980  0.39640  0.24803  Biso   1.000  H
  C139     1.0000 0.24490  0.29990  0.25783  Biso   1.000  C
  C140     1.0000 0.18530  0.28580  0.27653  Biso   1.000  C
  H215     1.0000 0.15750  0.26410  0.24843  Biso   1.000  H
  C141     1.0000 0.17110  0.24840  0.32623  Biso   1.000  C
  H216     1.0000 0.18220  0.21990  0.32003  Biso   1.000  H
  H217     1.0000 0.19380  0.27210  0.35583  Biso   1.000  H
  C142     1.0000 0.27700  0.50870  0.31883  Biso   1.000  C
  C143     1.0000 0.33860  0.52490  0.30373  Biso   1.000  C
  H218     1.0000 0.35490  0.55790  0.27953  Biso   1.000  H
  C144     1.0000 0.37370  0.53990  0.35493  Biso   1.000  C
  H219     1.0000 0.36460  0.56400  0.37683  Biso   1.000  H
  H220     1.0000 0.36260  0.50510  0.37473  Biso   1.000  H
  C145     1.0000 0.43810  0.57080  0.34583  Biso   1.000  C
  H221     1.0000 0.44640  0.54710  0.32193  Biso   1.000  H
  C146     1.0000 0.46870  0.57690  0.39753  Biso   1.000  C
  H222     1.0000 0.50910  0.59600  0.39123  Biso   1.000  H
  H223     1.0000 0.45640  0.53970  0.41233  Biso   1.000  H
  H224     1.0000 0.46010  0.59870  0.42223  Biso   1.000  H
  C147     1.0000 0.46080  0.62900  0.31973  Biso   1.000  C
  H225     1.0000 0.44090  0.62470  0.28673  Biso   1.000  H
  H226     1.0000 0.50090  0.64540  0.31273  Biso   1.000  H
  H227     1.0000 0.45490  0.65370  0.34323  Biso   1.000  H
  C148     1.0000 0.33020  0.47620  0.21673  Biso   1.000  C
  H228     1.0000 0.32540  0.44100  0.20143  Biso   1.000  H
  H229     1.0000 0.29590  0.47790  0.20923  Biso   1.000  H
  C149     1.0000 0.37990  0.52570  0.19055  Biso   1.000  C
  C150     1.0000 0.42920  0.52400  0.17865  Biso   1.000  C
  H230     1.0000 0.43110  0.49130  0.18673  Biso   1.000  H
  C151     1.0000 0.37880  0.57560  0.17733  Biso   1.000  C
  H231     1.0000 0.34560  0.57710  0.18333  Biso   1.000  H
  O25      1.0000 0.83866  0.21089  0.09347  Biso   1.000  O
  O26      1.0000 0.90332  0.28493  0.04667  Biso   1.000  O
  O27      1.0000 0.28587  0.35104  0.26534  Biso   1.000  O
  O28      1.0000 0.25010  0.26140  0.23703  Biso   1.000  O
  O29      1.0000 0.24053  0.45530  0.32236  Biso   1.000  O
  O30      1.0000 0.26720  0.54780  0.32973  Biso   1.000  O
  Cu5      1.0000 0.26566  0.40272  0.30036  Biso   1.000  Cu
  N13      1.0000 0.89188  0.24734  0.18592  Biso   1.000  N
  H232     1.0000 0.89250  0.26580  0.21653  Biso   1.000  H
  N14      1.0000 0.18456  0.33944  0.28684  Biso   1.000  N
  H233     1.0000 0.16270  0.33490  0.31613  Biso   1.000  H
  N15      1.0000 0.33693  0.47473  0.27644  Biso   1.000  N
  H234     1.0000 0.36870  0.47270  0.28453  Biso   1.000  H
  C152     1.0000 0.09930  0.18440  0.39473  Biso   1.000  C
  H235     1.0000 0.05970  0.16590  0.40473  Biso   1.000  H
  H236     1.0000 0.12220  0.21010  0.42253  Biso   1.000  H
  H237     1.0000 0.11040  0.15600  0.38943  Biso   1.000  H
  C153     1.0000 0.10830  0.21820  0.34223  Biso   1.000  C
  H238     1.0000 0.09150  0.24300  0.34243  Biso   1.000  H
  C154     1.0000 0.08030  0.16640  0.29753  Biso   1.000  C
  H239     1.0000 0.03970  0.14390  0.30313  Biso   1.000  H
  H240     1.0000 0.09710  0.14260  0.30123  Biso   1.000  H
  H241     1.0000 0.08770  0.18260  0.26233  Biso   1.000  H
  C155     1.0000 0.06070  0.18610  0.30003  Biso   1.000  C
  H242     1.0000 0.02400  0.16900  0.31713  Biso   1.000  H
  H243     1.0000 0.06570  0.15680  0.28353  Biso   1.000  H
  H244     1.0000 0.06290  0.21260  0.27323  Biso   1.000  H
  H245     1.0000 0.05300  0.18800  0.40733  Biso   1.000  H
  C156     1.0000 0.74010  0.62380  0.42246  Biso   1.000  C
  C157     1.0000 0.71160  0.62740  0.47427  Biso   1.000  C
  H246     1.0000 0.69970  0.65600  0.46987  Biso   1.000  H
  C158     1.0000 0.65860  0.56860  0.48517  Biso   1.000  C
  H247     1.0000 0.67110  0.54190  0.49517  Biso   1.000  H
  H248     1.0000 0.63660  0.55470  0.45247  Biso   1.000  H
  C159     1.0000 0.61910  0.56970  0.52997  Biso   1.000  C
  H249     1.0000 0.64280  0.58700  0.56167  Biso   1.000  H
  C160     1.0000 0.57550  0.51060  0.54417  Biso   1.000  C
  H250     1.0000 0.59390  0.48920  0.55337  Biso   1.000  H
  H251     1.0000 0.55040  0.49280  0.51427  Biso   1.000  H
  H252     1.0000 0.55360  0.51130  0.57417  Biso   1.000  H
  C161     1.0000 0.59250  0.60600  0.51477  Biso   1.000  C
  H253     1.0000 0.62220  0.64380  0.50517  Biso   1.000  H
  H254     1.0000 0.57140  0.60830  0.54457  Biso   1.000  H
  H255     1.0000 0.56720  0.58890  0.48487  Biso   1.000  H
  C162     1.0000 0.78610  0.70640  0.52757  Biso   1.000  C
  H256     1.0000 0.80860  0.72400  0.49577  Biso   1.000  H
  H257     1.0000 0.81250  0.71400  0.55687  Biso   1.000  H
  C163     1.0000 0.75047  0.73420  0.53998  Biso   1.000  C
  C164     1.0000 0.72080  0.72260  0.58767  Biso   1.000  C
  H258     1.0000 0.72440  0.69910  0.61267  Biso   1.000  H
  C165     1.0000 0.74630  0.77060  0.50387  Biso   1.000  C
  H259     1.0000 0.76670  0.77940  0.47197  Biso   1.000  H
  C166     1.0000 0.68530  0.74510  0.59927  Biso   1.000  C
  H260     1.0000 0.66530  0.73630  0.63127  Biso   1.000  H
  C167     1.0000 0.71150  0.79460  0.51467  Biso   1.000  C
  H261     1.0000 0.70910  0.81920  0.49017  Biso   1.000  H
  C168     1.0000 0.68040  0.78110  0.56215  Biso   1.000  C
  C169     1.0000 0.64170  0.80490  0.57417  Biso   1.000  C
  H262     1.0000 0.63940  0.82460  0.54267  Biso   1.000  H
  H263     1.0000 0.60360  0.77340  0.58137  Biso   1.000  H
  C170     1.0000 0.70010  0.94500  0.59117  Biso   1.000  C
  C171     1.0000 0.71420  0.89950  0.60987  Biso   1.000  C
  H264     1.0000 0.73590  0.89340  0.58177  Biso   1.000  H
  C172     1.0000 0.75160  0.92270  0.65957  Biso   1.000  C
  H265     1.0000 0.78010  0.96230  0.65337  Biso   1.000  H
  H266     1.0000 0.72790  0.92170  0.68917  Biso   1.000  H
  C173     1.0000 0.49130  0.76830  0.65217  Biso   1.000  C
  C174     1.0000 0.47510  0.81370  0.63707  Biso   1.000  C
  H267     1.0000 0.44210  0.79700  0.61287  Biso   1.000  H
  C175     1.0000 0.46010  0.83380  0.68827  Biso   1.000  C
  H268     1.0000 0.43600  0.80060  0.71017  Biso   1.000  H
  H269     1.0000 0.49490  0.85750  0.70807  Biso   1.000  H
  C176     1.0000 0.42920  0.86730  0.67917  Biso   1.000  C
  H270     1.0000 0.45290  0.89930  0.65527  Biso   1.000  H
  C177     1.0000 0.42310  0.89180  0.73087  Biso   1.000  C
  H271     1.0000 0.40400  0.91310  0.72457  Biso   1.000  H
  H272     1.0000 0.46030  0.91670  0.74567  Biso   1.000  H
  H273     1.0000 0.40130  0.86140  0.75557  Biso   1.000  H
  C178     1.0000 0.37100  0.83180  0.65307  Biso   1.000  C
  H274     1.0000 0.37530  0.81620  0.62007  Biso   1.000  H
  H275     1.0000 0.35460  0.85550  0.64607  Biso   1.000  H
  H276     1.0000 0.34630  0.80120  0.67657  Biso   1.000  H
  C179     1.0000 0.52380  0.85400  0.55007  Biso   1.000  C
  H277     1.0000 0.55900  0.88440  0.53477  Biso   1.000  H
  H278     1.0000 0.52210  0.81800  0.54257  Biso   1.000  H
  C180     1.0000 0.47430  0.85420  0.52389  Biso   1.000  C
  C181     1.0000 0.47600  0.90520  0.51199  Biso   1.000  C
  H279     1.0000 0.50870  0.93980  0.52007  Biso   1.000  H
  C182     1.0000 0.42440  0.80320  0.51067  Biso   1.000  C
  H280     1.0000 0.42290  0.76850  0.51667  Biso   1.000  H
  O31      1.0000 0.78911  0.62777  0.42681  Biso   1.000  O
  O32      1.0000 0.71507  0.61839  0.38001  Biso   1.000  O
  O33      1.0000 0.64896  0.93483  0.59868  Biso   1.000  O
  O34      1.0000 0.73860  0.98870  0.57037  Biso   1.000  O
  O35      1.0000 0.54470  0.78523  0.65570  Biso   1.000  O
  O36      1.0000 0.45220  0.71940  0.66307  Biso   1.000  O
  Cu6      1.0000 0.59728  0.86294  0.63370  Biso   1.000  Cu
  N16      1.0000 0.75266  0.64454  0.51926  Biso   1.000  N
  H281     1.0000 0.73420  0.62670  0.54987  Biso   1.000  H
  N17      1.0000 0.66056  0.84512  0.62018  Biso   1.000  N
  H282     1.0000 0.66510  0.82780  0.64947  Biso   1.000  H
  N18      1.0000 0.52527  0.86220  0.60978  Biso   1.000  N
  H283     1.0000 0.52730  0.89600  0.61787  Biso   1.000  H
  C183     1.0000 0.81560  0.91490  0.72807  Biso   1.000  C
  H284     1.0000 0.83410  0.89380  0.73807  Biso   1.000  H
  H285     1.0000 0.78990  0.91210  0.75587  Biso   1.000  H
  H286     1.0000 0.84400  0.95440  0.72277  Biso   1.000  H
  C184     1.0000 0.78180  0.89010  0.67557  Biso   1.000  C
  H287     1.0000 0.75700  0.84850  0.67577  Biso   1.000  H
  C185     1.0000 0.83360  0.91390  0.63087  Biso   1.000  C
  H288     1.0000 0.85610  0.89580  0.63647  Biso   1.000  H
  H289     1.0000 0.85740  0.95450  0.63457  Biso   1.000  H
  H290     1.0000 0.81740  0.90510  0.59567  Biso   1.000  H
  C186     1.0000 0.81390  0.87460  0.63337  Biso   1.000  C
  H291     1.0000 0.83100  0.85500  0.65047  Biso   1.000  H
  H292     1.0000 0.84320  0.90890  0.61687  Biso   1.000  H
  H293     1.0000 0.78740  0.85030  0.60657  Biso   1.000  H
  H294     1.0000 0.81200  0.86500  0.74067  Biso   1.000  H
  C187     1.0000 0.88370  0.62380  0.57754  Biso   1.000  C
  C188     1.0000 0.91580  0.62740  0.52573  Biso   1.000  C
  H295     1.0000 0.95630  0.65600  0.53013  Biso   1.000  H
  C189     1.0000 0.91000  0.56860  0.51483  Biso   1.000  C
  H296     1.0000 0.87080  0.54190  0.50483  Biso   1.000  H
  H297     1.0000 0.91810  0.55470  0.54753  Biso   1.000  H
  C190     1.0000 0.95060  0.56970  0.47003  Biso   1.000  C
  H298     1.0000 0.94420  0.58700  0.43833  Biso   1.000  H
  C191     1.0000 0.93510  0.51060  0.45583  Biso   1.000  C
  H299     1.0000 0.89530  0.48920  0.44663  Biso   1.000  H
  H300     1.0000 0.94240  0.49280  0.48573  Biso   1.000  H
  H301     1.0000 0.95770  0.51130  0.42583  Biso   1.000  H
  C192     1.0000 0.01350  0.60600  0.48523  Biso   1.000  C
  H302     1.0000 0.02160  0.64380  0.49483  Biso   1.000  H
  H303     1.0000 0.03690  0.60830  0.45543  Biso   1.000  H
  H304     1.0000 0.02170  0.58890  0.51513  Biso   1.000  H
  C193     1.0000 0.92030  0.70640  0.47243  Biso   1.000  C
  H305     1.0000 0.91540  0.72400  0.50423  Biso   1.000  H
  H306     1.0000 0.90150  0.71400  0.44313  Biso   1.000  H
  C194     1.0000 0.98373  0.73420  0.46002  Biso   1.000  C
  C195     1.0000 0.00180  0.72260  0.41233  Biso   1.000  C
  H307     1.0000 0.97470  0.69910  0.38733  Biso   1.000  H
  C196     1.0000 0.02430  0.77060  0.49613  Biso   1.000  C
  H308     1.0000 0.01270  0.77940  0.52803  Biso   1.000  H
  C197     1.0000 0.05980  0.74510  0.40073  Biso   1.000  C
  H309     1.0000 0.07100  0.73630  0.36873  Biso   1.000  H
  C198     1.0000 0.08310  0.79460  0.48533  Biso   1.000  C
  H310     1.0000 0.11010  0.81920  0.50983  Biso   1.000  H
  C199     1.0000 0.10070  0.78110  0.43785  Biso   1.000  C
  C200     1.0000 0.16320  0.80490  0.42583  Biso   1.000  C
  H311     1.0000 0.18520  0.82460  0.45733  Biso   1.000  H
  H312     1.0000 0.16980  0.77340  0.41863  Biso   1.000  H
  C201     1.0000 0.24490  0.94500  0.40883  Biso   1.000  C
  C202     1.0000 0.18530  0.89950  0.39013  Biso   1.000  C
  H313     1.0000 0.15750  0.89340  0.41823  Biso   1.000  H
  C203     1.0000 0.17110  0.92270  0.34043  Biso   1.000  C
  H314     1.0000 0.18220  0.96230  0.34663  Biso   1.000  H
  H315     1.0000 0.19380  0.92170  0.31083  Biso   1.000  H
  C204     1.0000 0.27700  0.76830  0.34783  Biso   1.000  C
  C205     1.0000 0.33860  0.81370  0.36293  Biso   1.000  C
  H316     1.0000 0.35490  0.79700  0.38713  Biso   1.000  H
  C206     1.0000 0.37370  0.83380  0.31173  Biso   1.000  C
  H317     1.0000 0.36460  0.80060  0.28983  Biso   1.000  H
  H318     1.0000 0.36260  0.85750  0.29193  Biso   1.000  H
  C207     1.0000 0.43810  0.86730  0.32083  Biso   1.000  C
  H319     1.0000 0.44640  0.89930  0.34473  Biso   1.000  H
  C208     1.0000 0.46870  0.89180  0.26913  Biso   1.000  C
  H320     1.0000 0.50910  0.91310  0.27543  Biso   1.000  H
  H321     1.0000 0.45640  0.91670  0.25433  Biso   1.000  H
  H322     1.0000 0.46010  0.86140  0.24443  Biso   1.000  H
  C209     1.0000 0.46080  0.83180  0.34693  Biso   1.000  C
  H323     1.0000 0.44090  0.81620  0.37993  Biso   1.000  H
  H324     1.0000 0.50090  0.85550  0.35393  Biso   1.000  H
  H325     1.0000 0.45490  0.80120  0.32343  Biso   1.000  H
  C210     1.0000 0.33020  0.85400  0.44993  Biso   1.000  C
  H326     1.0000 0.32540  0.88440  0.46523  Biso   1.000  H
  H327     1.0000 0.29590  0.81800  0.45743  Biso   1.000  H
  C211     1.0000 0.37990  0.85420  0.47611  Biso   1.000  C
  C212     1.0000 0.42920  0.90520  0.48801  Biso   1.000  C
  H328     1.0000 0.43110  0.93980  0.47993  Biso   1.000  H
  C213     1.0000 0.37880  0.80320  0.48933  Biso   1.000  C
  H329     1.0000 0.34560  0.76850  0.48333  Biso   1.000  H
  O37      1.0000 0.83866  0.62777  0.57319  Biso   1.000  O
  O38      1.0000 0.90332  0.61839  0.61999  Biso   1.000  O
  O39      1.0000 0.28587  0.93483  0.40132  Biso   1.000  O
  O40      1.0000 0.25010  0.98870  0.42963  Biso   1.000  O
  O41      1.0000 0.24053  0.78523  0.34430  Biso   1.000  O
  O42      1.0000 0.26720  0.71940  0.33693  Biso   1.000  O
  Cu7      1.0000 0.26566  0.86294  0.36630  Biso   1.000  Cu
  N19      1.0000 0.89188  0.64454  0.48074  Biso   1.000  N
  H330     1.0000 0.89250  0.62670  0.45013  Biso   1.000  H
  N20      1.0000 0.18456  0.84512  0.37982  Biso   1.000  N
  H331     1.0000 0.16270  0.82780  0.35053  Biso   1.000  H
  N21      1.0000 0.33693  0.86220  0.39022  Biso   1.000  N
  H332     1.0000 0.36870  0.89600  0.38213  Biso   1.000  H
  C214     1.0000 0.09930  0.91490  0.27193  Biso   1.000  C
  H333     1.0000 0.05970  0.89380  0.26193  Biso   1.000  H
  H334     1.0000 0.12220  0.91210  0.24413  Biso   1.000  H
  H335     1.0000 0.11040  0.95440  0.27723  Biso   1.000  H
  C215     1.0000 0.10830  0.89010  0.32443  Biso   1.000  C
  H336     1.0000 0.09150  0.84850  0.32423  Biso   1.000  H
  C216     1.0000 0.08030  0.91390  0.36913  Biso   1.000  C
  H337     1.0000 0.03970  0.89580  0.36353  Biso   1.000  H
  H338     1.0000 0.09710  0.95450  0.36543  Biso   1.000  H
  H339     1.0000 0.08770  0.90510  0.40433  Biso   1.000  H
  C217     1.0000 0.06070  0.87460  0.36663  Biso   1.000  C
  H340     1.0000 0.02400  0.85500  0.34953  Biso   1.000  H
  H341     1.0000 0.06570  0.90890  0.38313  Biso   1.000  H
  H342     1.0000 0.06290  0.85030  0.39343  Biso   1.000  H
  H343     1.0000 0.05300  0.86500  0.25933  Biso   1.000  H
  C218     1.0000 0.74010  0.11630  0.24421  Biso   1.000  C
  C219     1.0000 0.71160  0.08420  0.19240  Biso   1.000  C
  H344     1.0000 0.69970  0.04370  0.19680  Biso   1.000  H
  C220     1.0000 0.65860  0.09000  0.18150  Biso   1.000  C
  H345     1.0000 0.67110  0.12920  0.17150  Biso   1.000  H
  H346     1.0000 0.63660  0.08190  0.21420  Biso   1.000  H
  C221     1.0000 0.61910  0.04940  0.13670  Biso   1.000  C
  H347     1.0000 0.64280  0.05580  0.10500  Biso   1.000  H
  C222     1.0000 0.57550  0.06490  0.12250  Biso   1.000  C
  H348     1.0000 0.59390  0.10470  0.11330  Biso   1.000  H
  H349     1.0000 0.55040  0.05760  0.15240  Biso   1.000  H
  H350     1.0000 0.55360  0.04230  0.09250  Biso   1.000  H
  C223     1.0000 0.59250  0.98650  0.15190  Biso   1.000  C
  H351     1.0000 0.62220  0.97840  0.16150  Biso   1.000  H
  H352     1.0000 0.57140  0.96310  0.12210  Biso   1.000  H
  H353     1.0000 0.56720  0.97830  0.18180  Biso   1.000  H
  C224     1.0000 0.78610  0.07970  0.13910  Biso   1.000  C
  H354     1.0000 0.80860  0.08460  0.17090  Biso   1.000  H
  H355     1.0000 0.81250  0.09850  0.10980  Biso   1.000  H
  C225     1.0000 0.75047  0.01627  0.12669  Biso   1.000  C
  C226     1.0000 0.72080  0.99820  0.07900  Biso   1.000  C
  H356     1.0000 0.72440  0.02530  0.05400  Biso   1.000  H
  C227     1.0000 0.74630  0.97570  0.16280  Biso   1.000  C
  H357     1.0000 0.76670  0.98730  0.19470  Biso   1.000  H
  C228     1.0000 0.68530  0.94020  0.06740  Biso   1.000  C
  H358     1.0000 0.66530  0.92900  0.03540  Biso   1.000  H
  C229     1.0000 0.71150  0.91690  0.15200  Biso   1.000  C
  H359     1.0000 0.70910  0.88990  0.17650  Biso   1.000  H
  C230     1.0000 0.68040  0.89930  0.10452  Biso   1.000  C
  C231     1.0000 0.64170  0.83680  0.09250  Biso   1.000  C
  H360     1.0000 0.63940  0.81480  0.12400  Biso   1.000  H
  H361     1.0000 0.60360  0.83020  0.08530  Biso   1.000  H
  C232     1.0000 0.70010  0.75510  0.07550  Biso   1.000  C
  C233     1.0000 0.71420  0.81470  0.05680  Biso   1.000  C
  H362     1.0000 0.73590  0.84250  0.08490  Biso   1.000  H
  C234     1.0000 0.75160  0.82890  0.00710  Biso   1.000  C
  H363     1.0000 0.78010  0.81780  0.01330  Biso   1.000  H
  H364     1.0000 0.72790  0.80620  0.97750  Biso   1.000  H
  C235     1.0000 0.49130  0.72300  0.01450  Biso   1.000  C
  C236     1.0000 0.47510  0.66140  0.02960  Biso   1.000  C
  H365     1.0000 0.44210  0.64510  0.05380  Biso   1.000  H
  C237     1.0000 0.46010  0.62630  0.97840  Biso   1.000  C
  H366     1.0000 0.43600  0.63540  0.95650  Biso   1.000  H
  H367     1.0000 0.49490  0.63740  0.95860  Biso   1.000  H
  C238     1.0000 0.42920  0.56190  0.98750  Biso   1.000  C
  H368     1.0000 0.45290  0.55360  0.01140  Biso   1.000  H
  C239     1.0000 0.42310  0.53130  0.93580  Biso   1.000  C
  H369     1.0000 0.40400  0.49090  0.94210  Biso   1.000  H
  H370     1.0000 0.46030  0.54360  0.92100  Biso   1.000  H
  H371     1.0000 0.40130  0.53990  0.91110  Biso   1.000  H
  C240     1.0000 0.37100  0.53920  0.01360  Biso   1.000  C
  H372     1.0000 0.37530  0.55910  0.04660  Biso   1.000  H
  H373     1.0000 0.35460  0.49910  0.02060  Biso   1.000  H
  H374     1.0000 0.34630  0.54510  0.99010  Biso   1.000  H
  C241     1.0000 0.52380  0.66980  0.11660  Biso   1.000  C
  H375     1.0000 0.55900  0.67460  0.13190  Biso   1.000  H
  H376     1.0000 0.52210  0.70410  0.12410  Biso   1.000  H
  C242     1.0000 0.47430  0.62010  0.14278  Biso   1.000  C
  C243     1.0000 0.47600  0.57080  0.15468  Biso   1.000  C
  H377     1.0000 0.50870  0.56890  0.14660  Biso   1.000  H
  C244     1.0000 0.42440  0.62120  0.15600  Biso   1.000  C
  H378     1.0000 0.42290  0.65440  0.15000  Biso   1.000  H
  O43      1.0000 0.78911  0.16134  0.23986  Biso   1.000  O
  O44      1.0000 0.71507  0.09668  0.28666  Biso   1.000  O
  O45      1.0000 0.64896  0.71413  0.06799  Biso   1.000  O
  O46      1.0000 0.73860  0.74990  0.09630  Biso   1.000  O
  O47      1.0000 0.54470  0.75947  0.01097  Biso   1.000  O
  O48      1.0000 0.45220  0.73280  0.00360  Biso   1.000  O
  Cu8      1.0000 0.59728  0.73434  0.03297  Biso   1.000  Cu
  N22      1.0000 0.75266  0.10812  0.14741  Biso   1.000  N
  H379     1.0000 0.73420  0.10750  0.11680  Biso   1.000  H
  N23      1.0000 0.66056  0.81544  0.04649  Biso   1.000  N
  H380     1.0000 0.66510  0.83730  0.01720  Biso   1.000  H
  N24      1.0000 0.52527  0.66307  0.05689  Biso   1.000  N
  H381     1.0000 0.52730  0.63130  0.04880  Biso   1.000  H
  C245     1.0000 0.81560  0.90070  0.93860  Biso   1.000  C
  H382     1.0000 0.83410  0.94030  0.92860  Biso   1.000  H
  H383     1.0000 0.78990  0.87780  0.91080  Biso   1.000  H
  H384     1.0000 0.84400  0.88960  0.94390  Biso   1.000  H
  C246     1.0000 0.78180  0.89170  0.99110  Biso   1.000  C
  H385     1.0000 0.75700  0.90850  0.99090  Biso   1.000  H
  C247     1.0000 0.83360  0.91970  0.03580  Biso   1.000  C
  H386     1.0000 0.85610  0.96030  0.03020  Biso   1.000  H
  H387     1.0000 0.85740  0.90290  0.03210  Biso   1.000  H
  H388     1.0000 0.81740  0.91230  0.07100  Biso   1.000  H
  C248     1.0000 0.81390  0.93930  0.03330  Biso   1.000  C
  H389     1.0000 0.83100  0.97600  0.01620  Biso   1.000  H
  H390     1.0000 0.84320  0.93430  0.04980  Biso   1.000  H
  H391     1.0000 0.78740  0.93710  0.06010  Biso   1.000  H
  H392     1.0000 0.81200  0.94700  0.92600  Biso   1.000  H
  C249     1.0000 0.37620  0.25990  0.91088  Biso   1.000  C
  C250     1.0000 0.37260  0.28840  0.85907  Biso   1.000  C
  H393     1.0000 0.34400  0.30030  0.86347  Biso   1.000  H
  C251     1.0000 0.43140  0.34140  0.84817  Biso   1.000  C
  H394     1.0000 0.45810  0.32890  0.83817  Biso   1.000  H
  H395     1.0000 0.44530  0.36340  0.88087  Biso   1.000  H
  C252     1.0000 0.43030  0.38090  0.80337  Biso   1.000  C
  H396     1.0000 0.41300  0.35720  0.77167  Biso   1.000  H
  C253     1.0000 0.48940  0.42450  0.78917  Biso   1.000  C
  H397     1.0000 0.51080  0.40610  0.77997  Biso   1.000  H
  H398     1.0000 0.50720  0.44960  0.81907  Biso   1.000  H
  H399     1.0000 0.48870  0.44640  0.75917  Biso   1.000  H
  C254     1.0000 0.39400  0.40750  0.81857  Biso   1.000  C
  H400     1.0000 0.35620  0.37780  0.82817  Biso   1.000  H
  H401     1.0000 0.39170  0.42860  0.78877  Biso   1.000  H
  H402     1.0000 0.41110  0.43280  0.84847  Biso   1.000  H
  C255     1.0000 0.29360  0.21390  0.80577  Biso   1.000  C
  H403     1.0000 0.27600  0.19140  0.83757  Biso   1.000  H
  H404     1.0000 0.28600  0.18750  0.77647  Biso   1.000  H
  C256     1.0000 0.26580  0.24953  0.79336  Biso   1.000  C
  C257     1.0000 0.27740  0.27920  0.74567  Biso   1.000  C
  H405     1.0000 0.30090  0.27560  0.72067  Biso   1.000  H
  C258     1.0000 0.22940  0.25370  0.82947  Biso   1.000  C
  H406     1.0000 0.22060  0.23330  0.86137  Biso   1.000  H
  C259     1.0000 0.25490  0.31470  0.73407  Biso   1.000  C
  H407     1.0000 0.26370  0.33470  0.70207  Biso   1.000  H
  C260     1.0000 0.20540  0.28850  0.81867  Biso   1.000  C
  H408     1.0000 0.18080  0.29090  0.84317  Biso   1.000  H
  C261     1.0000 0.21890  0.31960  0.77119  Biso   1.000  C
  C262     1.0000 0.19510  0.35830  0.75917  Biso   1.000  C
  H409     1.0000 0.17540  0.36060  0.79067  Biso   1.000  H
  H410     1.0000 0.22660  0.39640  0.75197  Biso   1.000  H
  C263     1.0000 0.05500  0.29990  0.74217  Biso   1.000  C
  C264     1.0000 0.10050  0.28580  0.72347  Biso   1.000  C
  H411     1.0000 0.10660  0.26410  0.75157  Biso   1.000  H
  C265     1.0000 0.07730  0.24840  0.67377  Biso   1.000  C
  H412     1.0000 0.03770  0.21990  0.67997  Biso   1.000  H
  H413     1.0000 0.07830  0.27210  0.64417  Biso   1.000  H
  C266     1.0000 0.23170  0.50870  0.68117  Biso   1.000  C
  C267     1.0000 0.18630  0.52490  0.69627  Biso   1.000  C
  H414     1.0000 0.20300  0.55790  0.72047  Biso   1.000  H
  C268     1.0000 0.16620  0.53990  0.64507  Biso   1.000  C
  H415     1.0000 0.19940  0.56400  0.62317  Biso   1.000  H
  H416     1.0000 0.14250  0.50510  0.62527  Biso   1.000  H
  C269     1.0000 0.13270  0.57080  0.65417  Biso   1.000  C
  H417     1.0000 0.10070  0.54710  0.67807  Biso   1.000  H
  C270     1.0000 0.10820  0.57690  0.60247  Biso   1.000  C
  H418     1.0000 0.08690  0.59600  0.60877  Biso   1.000  H
  H419     1.0000 0.08330  0.53970  0.58767  Biso   1.000  H
  H420     1.0000 0.13860  0.59870  0.57777  Biso   1.000  H
  C271     1.0000 0.16820  0.62900  0.68027  Biso   1.000  C
  H421     1.0000 0.18380  0.62470  0.71327  Biso   1.000  H
  H422     1.0000 0.14450  0.64540  0.68727  Biso   1.000  H
  H423     1.0000 0.19880  0.65370  0.65677  Biso   1.000  H
  C272     1.0000 0.14600  0.47620  0.78327  Biso   1.000  C
  H424     1.0000 0.11560  0.44100  0.79857  Biso   1.000  H
  H425     1.0000 0.18200  0.47790  0.79077  Biso   1.000  H
  C273     1.0000 0.14580  0.52570  0.80945  Biso   1.000  C
  C274     1.0000 0.09480  0.52400  0.82135  Biso   1.000  C
  H426     1.0000 0.06020  0.49130  0.81327  Biso   1.000  H
  C275     1.0000 0.19680  0.57560  0.82267  Biso   1.000  C
  H427     1.0000 0.23150  0.57710  0.81667  Biso   1.000  H
  O49      1.0000 0.37223  0.21089  0.90653  Biso   1.000  O
  O50      1.0000 0.38161  0.28493  0.95333  Biso   1.000  O
  O51      1.0000 0.06517  0.35104  0.73466  Biso   1.000  O
  O52      1.0000 0.01130  0.26140  0.76297  Biso   1.000  O
  O53      1.0000 0.21477  0.45530  0.67764  Biso   1.000  O
  O54      1.0000 0.28060  0.54780  0.67027  Biso   1.000  O
  Cu9      1.0000 0.13706  0.40272  0.69964  Biso   1.000  Cu
  N25      1.0000 0.35546  0.24734  0.81408  Biso   1.000  N
  H428     1.0000 0.37330  0.26580  0.78347  Biso   1.000  H
  N26      1.0000 0.15488  0.33944  0.71316  Biso   1.000  N
  H429     1.0000 0.17220  0.33490  0.68387  Biso   1.000  H
  N27      1.0000 0.13780  0.47473  0.72356  Biso   1.000  N
  H430     1.0000 0.10400  0.47270  0.71547  Biso   1.000  H
  C276     1.0000 0.08510  0.18440  0.60527  Biso   1.000  C
  H431     1.0000 0.10620  0.16590  0.59527  Biso   1.000  H
  H432     1.0000 0.08790  0.21010  0.57747  Biso   1.000  H
  H433     1.0000 0.04560  0.15600  0.61057  Biso   1.000  H
  C277     1.0000 0.10990  0.21820  0.65777  Biso   1.000  C
  H434     1.0000 0.15150  0.24300  0.65757  Biso   1.000  H
  C278     1.0000 0.08610  0.16640  0.70247  Biso   1.000  C
  H435     1.0000 0.10420  0.14390  0.69687  Biso   1.000  H
  H436     1.0000 0.04550  0.14260  0.69877  Biso   1.000  H
  H437     1.0000 0.09490  0.18260  0.73767  Biso   1.000  H
  C279     1.0000 0.12540  0.18610  0.69997  Biso   1.000  C
  H438     1.0000 0.14500  0.16900  0.68287  Biso   1.000  H
  H439     1.0000 0.09110  0.15680  0.71647  Biso   1.000  H
  H440     1.0000 0.14970  0.21260  0.72677  Biso   1.000  H
  H441     1.0000 0.13500  0.18800  0.59267  Biso   1.000  H
  C280     1.0000 0.11630  0.37620  0.57754  Biso   1.000  C
  C281     1.0000 0.08420  0.37260  0.52573  Biso   1.000  C
  H442     1.0000 0.04370  0.34400  0.53013  Biso   1.000  H
  C282     1.0000 0.09000  0.43140  0.51483  Biso   1.000  C
  H443     1.0000 0.12920  0.45810  0.50483  Biso   1.000  H
  H444     1.0000 0.08190  0.44530  0.54753  Biso   1.000  H
  C283     1.0000 0.04940  0.43030  0.47003  Biso   1.000  C
  H445     1.0000 0.05580  0.41300  0.43833  Biso   1.000  H
  C284     1.0000 0.06490  0.48940  0.45583  Biso   1.000  C
  H446     1.0000 0.10470  0.51080  0.44663  Biso   1.000  H
  H447     1.0000 0.05760  0.50720  0.48573  Biso   1.000  H
  H448     1.0000 0.04230  0.48870  0.42583  Biso   1.000  H
  C285     1.0000 0.98650  0.39400  0.48523  Biso   1.000  C
  H449     1.0000 0.97840  0.35620  0.49483  Biso   1.000  H
  H450     1.0000 0.96310  0.39170  0.45543  Biso   1.000  H
  H451     1.0000 0.97830  0.41110  0.51513  Biso   1.000  H
  C286     1.0000 0.07970  0.29360  0.47243  Biso   1.000  C
  H452     1.0000 0.08460  0.27600  0.50423  Biso   1.000  H
  H453     1.0000 0.09850  0.28600  0.44313  Biso   1.000  H
  C287     1.0000 0.01627  0.26580  0.46002  Biso   1.000  C
  C288     1.0000 0.99820  0.27740  0.41233  Biso   1.000  C
  H454     1.0000 0.02530  0.30090  0.38733  Biso   1.000  H
  C289     1.0000 0.97570  0.22940  0.49613  Biso   1.000  C
  H455     1.0000 0.98730  0.22060  0.52803  Biso   1.000  H
  C290     1.0000 0.94020  0.25490  0.40073  Biso   1.000  C
  H456     1.0000 0.92900  0.26370  0.36873  Biso   1.000  H
  C291     1.0000 0.91690  0.20540  0.48533  Biso   1.000  C
  H457     1.0000 0.88990  0.18080  0.50983  Biso   1.000  H
  C292     1.0000 0.89930  0.21890  0.43785  Biso   1.000  C
  C293     1.0000 0.83680  0.19510  0.42583  Biso   1.000  C
  H458     1.0000 0.81480  0.17540  0.45733  Biso   1.000  H
  H459     1.0000 0.83020  0.22660  0.41863  Biso   1.000  H
  C294     1.0000 0.75510  0.05500  0.40883  Biso   1.000  C
  C295     1.0000 0.81470  0.10050  0.39013  Biso   1.000  C
  H460     1.0000 0.84250  0.10660  0.41823  Biso   1.000  H
  C296     1.0000 0.82890  0.07730  0.34043  Biso   1.000  C
  H461     1.0000 0.81780  0.03770  0.34663  Biso   1.000  H
  H462     1.0000 0.80620  0.07830  0.31083  Biso   1.000  H
  C297     1.0000 0.72300  0.23170  0.34783  Biso   1.000  C
  C298     1.0000 0.66140  0.18630  0.36293  Biso   1.000  C
  H463     1.0000 0.64510  0.20300  0.38713  Biso   1.000  H
  C299     1.0000 0.62630  0.16620  0.31173  Biso   1.000  C
  H464     1.0000 0.63540  0.19940  0.28983  Biso   1.000  H
  H465     1.0000 0.63740  0.14250  0.29193  Biso   1.000  H
  C300     1.0000 0.56190  0.13270  0.32083  Biso   1.000  C
  H466     1.0000 0.55360  0.10070  0.34473  Biso   1.000  H
  C301     1.0000 0.53130  0.10820  0.26913  Biso   1.000  C
  H467     1.0000 0.49090  0.08690  0.27543  Biso   1.000  H
  H468     1.0000 0.54360  0.08330  0.25433  Biso   1.000  H
  H469     1.0000 0.53990  0.13860  0.24443  Biso   1.000  H
  C302     1.0000 0.53920  0.16820  0.34693  Biso   1.000  C
  H470     1.0000 0.55910  0.18380  0.37993  Biso   1.000  H
  H471     1.0000 0.49910  0.14450  0.35393  Biso   1.000  H
  H472     1.0000 0.54510  0.19880  0.32343  Biso   1.000  H
  C303     1.0000 0.66980  0.14600  0.44993  Biso   1.000  C
  H473     1.0000 0.67460  0.11560  0.46523  Biso   1.000  H
  H474     1.0000 0.70410  0.18200  0.45743  Biso   1.000  H
  C304     1.0000 0.62010  0.14580  0.47611  Biso   1.000  C
  C305     1.0000 0.57080  0.09480  0.48801  Biso   1.000  C
  H475     1.0000 0.56890  0.06020  0.47993  Biso   1.000  H
  C306     1.0000 0.62120  0.19680  0.48933  Biso   1.000  C
  H476     1.0000 0.65440  0.23150  0.48333  Biso   1.000  H
  O55      1.0000 0.16134  0.37223  0.57319  Biso   1.000  O
  O56      1.0000 0.09668  0.38161  0.61999  Biso   1.000  O
  O57      1.0000 0.71413  0.06517  0.40132  Biso   1.000  O
  O58      1.0000 0.74990  0.01130  0.42963  Biso   1.000  O
  O59      1.0000 0.75947  0.21477  0.34430  Biso   1.000  O
  O60      1.0000 0.73280  0.28060  0.33693  Biso   1.000  O
  Cu10     1.0000 0.73434  0.13706  0.36630  Biso   1.000  Cu
  N28      1.0000 0.10812  0.35546  0.48074  Biso   1.000  N
  H477     1.0000 0.10750  0.37330  0.45013  Biso   1.000  H
  N29      1.0000 0.81544  0.15488  0.37982  Biso   1.000  N
  H478     1.0000 0.83730  0.17220  0.35053  Biso   1.000  H
  N30      1.0000 0.66307  0.13780  0.39022  Biso   1.000  N
  H479     1.0000 0.63130  0.10400  0.38213  Biso   1.000  H
  C307     1.0000 0.90070  0.08510  0.27193  Biso   1.000  C
  H480     1.0000 0.94030  0.10620  0.26193  Biso   1.000  H
  H481     1.0000 0.87780  0.08790  0.24413  Biso   1.000  H
  H482     1.0000 0.88960  0.04560  0.27723  Biso   1.000  H
  C308     1.0000 0.89170  0.10990  0.32443  Biso   1.000  C
  H483     1.0000 0.90850  0.15150  0.32423  Biso   1.000  H
  C309     1.0000 0.91970  0.08610  0.36913  Biso   1.000  C
  H484     1.0000 0.96030  0.10420  0.36353  Biso   1.000  H
  H485     1.0000 0.90290  0.04550  0.36543  Biso   1.000  H
  H486     1.0000 0.91230  0.09490  0.40433  Biso   1.000  H
  C310     1.0000 0.93930  0.12540  0.36663  Biso   1.000  C
  H487     1.0000 0.97600  0.14500  0.34953  Biso   1.000  H
  H488     1.0000 0.93430  0.09110  0.38313  Biso   1.000  H
  H489     1.0000 0.93710  0.14970  0.39343  Biso   1.000  H
  H490     1.0000 0.94700  0.13500  0.25933  Biso   1.000  H
  C311     1.0000 0.25990  0.88370  0.24421  Biso   1.000  C
  C312     1.0000 0.28840  0.91580  0.19240  Biso   1.000  C
  H491     1.0000 0.30030  0.95630  0.19680  Biso   1.000  H
  C313     1.0000 0.34140  0.91000  0.18150  Biso   1.000  C
  H492     1.0000 0.32890  0.87080  0.17150  Biso   1.000  H
  H493     1.0000 0.36340  0.91810  0.21420  Biso   1.000  H
  C314     1.0000 0.38090  0.95060  0.13670  Biso   1.000  C
  H494     1.0000 0.35720  0.94420  0.10500  Biso   1.000  H
  C315     1.0000 0.42450  0.93510  0.12250  Biso   1.000  C
  H495     1.0000 0.40610  0.89530  0.11330  Biso   1.000  H
  H496     1.0000 0.44960  0.94240  0.15240  Biso   1.000  H
  H497     1.0000 0.44640  0.95770  0.09250  Biso   1.000  H
  C316     1.0000 0.40750  0.01350  0.15190  Biso   1.000  C
  H498     1.0000 0.37780  0.02160  0.16150  Biso   1.000  H
  H499     1.0000 0.42860  0.03690  0.12210  Biso   1.000  H
  H500     1.0000 0.43280  0.02170  0.18180  Biso   1.000  H
  C317     1.0000 0.21390  0.92030  0.13910  Biso   1.000  C
  H501     1.0000 0.19140  0.91540  0.17090  Biso   1.000  H
  H502     1.0000 0.18750  0.90150  0.10980  Biso   1.000  H
  C318     1.0000 0.24953  0.98373  0.12669  Biso   1.000  C
  C319     1.0000 0.27920  0.00180  0.07900  Biso   1.000  C
  H503     1.0000 0.27560  0.97470  0.05400  Biso   1.000  H
  C320     1.0000 0.25370  0.02430  0.16280  Biso   1.000  C
  H504     1.0000 0.23330  0.01270  0.19470  Biso   1.000  H
  C321     1.0000 0.31470  0.05980  0.06740  Biso   1.000  C
  H505     1.0000 0.33470  0.07100  0.03540  Biso   1.000  H
  C322     1.0000 0.28850  0.08310  0.15200  Biso   1.000  C
  H506     1.0000 0.29090  0.11010  0.17650  Biso   1.000  H
  C323     1.0000 0.31960  0.10070  0.10452  Biso   1.000  C
  C324     1.0000 0.35830  0.16320  0.09250  Biso   1.000  C
  H507     1.0000 0.36060  0.18520  0.12400  Biso   1.000  H
  H508     1.0000 0.39640  0.16980  0.08530  Biso   1.000  H
  C325     1.0000 0.29990  0.24490  0.07550  Biso   1.000  C
  C326     1.0000 0.28580  0.18530  0.05680  Biso   1.000  C
  H509     1.0000 0.26410  0.15750  0.08490  Biso   1.000  H
  C327     1.0000 0.24840  0.17110  0.00710  Biso   1.000  C
  H510     1.0000 0.21990  0.18220  0.01330  Biso   1.000  H
  H511     1.0000 0.27210  0.19380  0.97750  Biso   1.000  H
  C328     1.0000 0.50870  0.27700  0.01450  Biso   1.000  C
  C329     1.0000 0.52490  0.33860  0.02960  Biso   1.000  C
  H512     1.0000 0.55790  0.35490  0.05380  Biso   1.000  H
  C330     1.0000 0.53990  0.37370  0.97840  Biso   1.000  C
  H513     1.0000 0.56400  0.36460  0.95650  Biso   1.000  H
  H514     1.0000 0.50510  0.36260  0.95860  Biso   1.000  H
  C331     1.0000 0.57080  0.43810  0.98750  Biso   1.000  C
  H515     1.0000 0.54710  0.44640  0.01140  Biso   1.000  H
  C332     1.0000 0.57690  0.46870  0.93580  Biso   1.000  C
  H516     1.0000 0.59600  0.50910  0.94210  Biso   1.000  H
  H517     1.0000 0.53970  0.45640  0.92100  Biso   1.000  H
  H518     1.0000 0.59870  0.46010  0.91110  Biso   1.000  H
  C333     1.0000 0.62900  0.46080  0.01360  Biso   1.000  C
  H519     1.0000 0.62470  0.44090  0.04660  Biso   1.000  H
  H520     1.0000 0.64540  0.50090  0.02060  Biso   1.000  H
  H521     1.0000 0.65370  0.45490  0.99010  Biso   1.000  H
  C334     1.0000 0.47620  0.33020  0.11660  Biso   1.000  C
  H522     1.0000 0.44100  0.32540  0.13190  Biso   1.000  H
  H523     1.0000 0.47790  0.29590  0.12410  Biso   1.000  H
  C335     1.0000 0.52570  0.37990  0.14278  Biso   1.000  C
  C336     1.0000 0.52400  0.42920  0.15468  Biso   1.000  C
  H524     1.0000 0.49130  0.43110  0.14660  Biso   1.000  H
  C337     1.0000 0.57560  0.37880  0.15600  Biso   1.000  C
  H525     1.0000 0.57710  0.34560  0.15000  Biso   1.000  H
  O61      1.0000 0.21089  0.83866  0.23986  Biso   1.000  O
  O62      1.0000 0.28493  0.90332  0.28666  Biso   1.000  O
  O63      1.0000 0.35104  0.28587  0.06799  Biso   1.000  O
  O64      1.0000 0.26140  0.25010  0.09630  Biso   1.000  O
  O65      1.0000 0.45530  0.24053  0.01097  Biso   1.000  O
  O66      1.0000 0.54780  0.26720  0.00360  Biso   1.000  O
  Cu11     1.0000 0.40272  0.26566  0.03297  Biso   1.000  Cu
  N31      1.0000 0.24734  0.89188  0.14741  Biso   1.000  N
  H526     1.0000 0.26580  0.89250  0.11680  Biso   1.000  H
  N32      1.0000 0.33944  0.18456  0.04649  Biso   1.000  N
  H527     1.0000 0.33490  0.16270  0.01720  Biso   1.000  H
  N33      1.0000 0.47473  0.33693  0.05689  Biso   1.000  N
  H528     1.0000 0.47270  0.36870  0.04880  Biso   1.000  H
  C338     1.0000 0.18440  0.09930  0.93860  Biso   1.000  C
  H529     1.0000 0.16590  0.05970  0.92860  Biso   1.000  H
  H530     1.0000 0.21010  0.12220  0.91080  Biso   1.000  H
  H531     1.0000 0.15600  0.11040  0.94390  Biso   1.000  H
  C339     1.0000 0.21820  0.10830  0.99110  Biso   1.000  C
  H532     1.0000 0.24300  0.09150  0.99090  Biso   1.000  H
  C340     1.0000 0.16640  0.08030  0.03580  Biso   1.000  C
  H533     1.0000 0.14390  0.03970  0.03020  Biso   1.000  H
  H534     1.0000 0.14260  0.09710  0.03210  Biso   1.000  H
  H535     1.0000 0.18260  0.08770  0.07100  Biso   1.000  H
  C341     1.0000 0.18610  0.06070  0.03330  Biso   1.000  C
  H536     1.0000 0.16900  0.02400  0.01620  Biso   1.000  H
  H537     1.0000 0.15680  0.06570  0.04980  Biso   1.000  H
  H538     1.0000 0.21260  0.06290  0.06010  Biso   1.000  H
  H539     1.0000 0.18800  0.05300  0.92600  Biso   1.000  H
  C342     1.0000 0.62380  0.74010  0.91088  Biso   1.000  C
  C343     1.0000 0.62740  0.71160  0.85907  Biso   1.000  C
  H540     1.0000 0.65600  0.69970  0.86347  Biso   1.000  H
  C344     1.0000 0.56860  0.65860  0.84817  Biso   1.000  C
  H541     1.0000 0.54190  0.67110  0.83817  Biso   1.000  H
  H542     1.0000 0.55470  0.63660  0.88087  Biso   1.000  H
  C345     1.0000 0.56970  0.61910  0.80337  Biso   1.000  C
  H543     1.0000 0.58700  0.64280  0.77167  Biso   1.000  H
  C346     1.0000 0.51060  0.57550  0.78917  Biso   1.000  C
  H544     1.0000 0.48920  0.59390  0.77997  Biso   1.000  H
  H545     1.0000 0.49280  0.55040  0.81907  Biso   1.000  H
  H546     1.0000 0.51130  0.55360  0.75917  Biso   1.000  H
  C347     1.0000 0.60600  0.59250  0.81857  Biso   1.000  C
  H547     1.0000 0.64380  0.62220  0.82817  Biso   1.000  H
  H548     1.0000 0.60830  0.57140  0.78877  Biso   1.000  H
  H549     1.0000 0.58890  0.56720  0.84847  Biso   1.000  H
  C348     1.0000 0.70640  0.78610  0.80577  Biso   1.000  C
  H550     1.0000 0.72400  0.80860  0.83757  Biso   1.000  H
  H551     1.0000 0.71400  0.81250  0.77647  Biso   1.000  H
  C349     1.0000 0.73420  0.75047  0.79336  Biso   1.000  C
  C350     1.0000 0.72260  0.72080  0.74567  Biso   1.000  C
  H552     1.0000 0.69910  0.72440  0.72067  Biso   1.000  H
  C351     1.0000 0.77060  0.74630  0.82947  Biso   1.000  C
  H553     1.0000 0.77940  0.76670  0.86137  Biso   1.000  H
  C352     1.0000 0.74510  0.68530  0.73407  Biso   1.000  C
  H554     1.0000 0.73630  0.66530  0.70207  Biso   1.000  H
  C353     1.0000 0.79460  0.71150  0.81867  Biso   1.000  C
  H555     1.0000 0.81920  0.70910  0.84317  Biso   1.000  H
  C354     1.0000 0.78110  0.68040  0.77119  Biso   1.000  C
  C355     1.0000 0.80490  0.64170  0.75917  Biso   1.000  C
  H556     1.0000 0.82460  0.63940  0.79067  Biso   1.000  H
  H557     1.0000 0.77340  0.60360  0.75197  Biso   1.000  H
  C356     1.0000 0.94500  0.70010  0.74217  Biso   1.000  C
  C357     1.0000 0.89950  0.71420  0.72347  Biso   1.000  C
  H558     1.0000 0.89340  0.73590  0.75157  Biso   1.000  H
  C358     1.0000 0.92270  0.75160  0.67377  Biso   1.000  C
  H559     1.0000 0.96230  0.78010  0.67997  Biso   1.000  H
  H560     1.0000 0.92170  0.72790  0.64417  Biso   1.000  H
  C359     1.0000 0.76830  0.49130  0.68117  Biso   1.000  C
  C360     1.0000 0.81370  0.47510  0.69627  Biso   1.000  C
  H561     1.0000 0.79700  0.44210  0.72047  Biso   1.000  H
  C361     1.0000 0.83380  0.46010  0.64507  Biso   1.000  C
  H562     1.0000 0.80060  0.43600  0.62317  Biso   1.000  H
  H563     1.0000 0.85750  0.49490  0.62527  Biso   1.000  H
  C362     1.0000 0.86730  0.42920  0.65417  Biso   1.000  C
  H564     1.0000 0.89930  0.45290  0.67807  Biso   1.000  H
  C363     1.0000 0.89180  0.42310  0.60247  Biso   1.000  C
  H565     1.0000 0.91310  0.40400  0.60877  Biso   1.000  H
  H566     1.0000 0.91670  0.46030  0.58767  Biso   1.000  H
  H567     1.0000 0.86140  0.40130  0.57777  Biso   1.000  H
  C364     1.0000 0.83180  0.37100  0.68027  Biso   1.000  C
  H568     1.0000 0.81620  0.37530  0.71327  Biso   1.000  H
  H569     1.0000 0.85550  0.35460  0.68727  Biso   1.000  H
  H570     1.0000 0.80120  0.34630  0.65677  Biso   1.000  H
  C365     1.0000 0.85400  0.52380  0.78327  Biso   1.000  C
  H571     1.0000 0.88440  0.55900  0.79857  Biso   1.000  H
  H572     1.0000 0.81800  0.52210  0.79077  Biso   1.000  H
  C366     1.0000 0.85420  0.47430  0.80945  Biso   1.000  C
  C367     1.0000 0.90520  0.47600  0.82135  Biso   1.000  C
  H573     1.0000 0.93980  0.50870  0.81327  Biso   1.000  H
  C368     1.0000 0.80320  0.42440  0.82267  Biso   1.000  C
  H574     1.0000 0.76850  0.42290  0.81667  Biso   1.000  H
  O67      1.0000 0.62777  0.78911  0.90653  Biso   1.000  O
  O68      1.0000 0.61839  0.71507  0.95333  Biso   1.000  O
  O69      1.0000 0.93483  0.64896  0.73466  Biso   1.000  O
  O70      1.0000 0.98870  0.73860  0.76297  Biso   1.000  O
  O71      1.0000 0.78523  0.54470  0.67764  Biso   1.000  O
  O72      1.0000 0.71940  0.45220  0.67027  Biso   1.000  O
  Cu12     1.0000 0.86294  0.59728  0.69964  Biso   1.000  Cu
  N34      1.0000 0.64454  0.75266  0.81408  Biso   1.000  N
  H575     1.0000 0.62670  0.73420  0.78347  Biso   1.000  H
  N35      1.0000 0.84512  0.66056  0.71316  Biso   1.000  N
  H576     1.0000 0.82780  0.66510  0.68387  Biso   1.000  H
  N36      1.0000 0.86220  0.52527  0.72356  Biso   1.000  N
  H577     1.0000 0.89600  0.52730  0.71547  Biso   1.000  H
  C369     1.0000 0.91490  0.81560  0.60527  Biso   1.000  C
  H578     1.0000 0.89380  0.83410  0.59527  Biso   1.000  H
  H579     1.0000 0.91210  0.78990  0.57747  Biso   1.000  H
  H580     1.0000 0.95440  0.84400  0.61057  Biso   1.000  H
  C370     1.0000 0.89010  0.78180  0.65777  Biso   1.000  C
  H581     1.0000 0.84850  0.75700  0.65757  Biso   1.000  H
  C371     1.0000 0.91390  0.83360  0.70247  Biso   1.000  C
  H582     1.0000 0.89580  0.85610  0.69687  Biso   1.000  H
  H583     1.0000 0.95450  0.85740  0.69877  Biso   1.000  H
  H584     1.0000 0.90510  0.81740  0.73767  Biso   1.000  H
  C372     1.0000 0.87460  0.81390  0.69997  Biso   1.000  C
  H585     1.0000 0.85500  0.83100  0.68287  Biso   1.000  H
  H586     1.0000 0.90890  0.84320  0.71647  Biso   1.000  H
  H587     1.0000 0.85030  0.78740  0.72677  Biso   1.000  H
  H588     1.0000 0.86500  0.81200  0.59267  Biso   1.000  H
  Cu13     1.0000 0.62195  0.81097  0.83333  Biso   1.000  Cu
  Cu14     1.0000 0.18903  0.81097  0.16667  Biso   1.000  Cu
  Cu15     1.0000 0.18903  0.37805  0.50000  Biso   1.000  Cu
  Cu16     1.0000 0.37805  0.18903  0.83333  Biso   1.000  Cu
  Cu17     1.0000 0.81097  0.18903  0.16667  Biso   1.000  Cu
  Cu18     1.0000 0.81097  0.62195  0.50000  Biso   1.000  Cu
