data_image0
_cell_length_a       47.326
_cell_length_b       47.326
_cell_length_c       47.326
_cell_angle_alpha    90
_cell_angle_beta     90
_cell_angle_gamma    90

_symmetry_space_group_name_H-M    "P 1"
_symmetry_int_tables_number       1

loop_
  _symmetry_equiv_pos_as_xyz
  'x, y, z'

loop_
  _atom_site_label
  _atom_site_occupancy
  _atom_site_fract_x
  _atom_site_fract_y
  _atom_site_fract_z
  _atom_site_thermal_displace_type
  _atom_site_B_iso_or_equiv
  _atom_site_type_symbol
  O1       1.0000 0.21295  0.25402  0.02957  Biso   1.000  O
  F1       1.0000 0.20920  0.24770  0.08820  Biso   1.000  F
  F2       1.0000 0.18420  0.27160  0.13280  Biso   1.000  F
  F3       1.0000 0.18290  0.35880  0.08290  Biso   1.000  F
  F4       1.0000 0.20690  0.33450  0.03760  Biso   1.000  F
  C1       1.0000 0.20360  0.27420  0.08630  Biso   1.000  C
  C2       1.0000 0.19010  0.28680  0.10920  Biso   1.000  C
  C3       1.0000 0.18270  0.31660  0.10810  Biso   1.000  C
  C4       1.0000 0.18890  0.33110  0.08420  Biso   1.000  C
  C5       1.0000 0.20240  0.31850  0.06130  Biso   1.000  C
  O2       1.0000 0.21295  0.75402  0.52957  Biso   1.000  O
  F5       1.0000 0.20920  0.74770  0.58820  Biso   1.000  F
  F6       1.0000 0.18420  0.77160  0.63280  Biso   1.000  F
  F7       1.0000 0.18290  0.85880  0.58290  Biso   1.000  F
  F8       1.0000 0.20690  0.83450  0.53760  Biso   1.000  F
  C6       1.0000 0.20360  0.77420  0.58630  Biso   1.000  C
  C7       1.0000 0.19010  0.78680  0.60920  Biso   1.000  C
  C8       1.0000 0.18270  0.81660  0.60810  Biso   1.000  C
  C9       1.0000 0.18890  0.83110  0.58420  Biso   1.000  C
  C10      1.0000 0.20240  0.81850  0.56130  Biso   1.000  C
  O3       1.0000 0.71295  0.25402  0.52957  Biso   1.000  O
  F9       1.0000 0.70920  0.24770  0.58820  Biso   1.000  F
  F10      1.0000 0.68420  0.27160  0.63280  Biso   1.000  F
  F11      1.0000 0.68290  0.35880  0.58290  Biso   1.000  F
  F12      1.0000 0.70690  0.33450  0.53760  Biso   1.000  F
  C11      1.0000 0.70360  0.27420  0.58630  Biso   1.000  C
  C12      1.0000 0.69010  0.28680  0.60920  Biso   1.000  C
  C13      1.0000 0.68270  0.31660  0.60810  Biso   1.000  C
  C14      1.0000 0.68890  0.33110  0.58420  Biso   1.000  C
  C15      1.0000 0.70240  0.31850  0.56130  Biso   1.000  C
  O4       1.0000 0.71295  0.75402  0.02957  Biso   1.000  O
  F13      1.0000 0.70920  0.74770  0.08820  Biso   1.000  F
  F14      1.0000 0.68420  0.77160  0.13280  Biso   1.000  F
  F15      1.0000 0.68290  0.85880  0.08290  Biso   1.000  F
  F16      1.0000 0.70690  0.83450  0.03760  Biso   1.000  F
  C16      1.0000 0.70360  0.77420  0.08630  Biso   1.000  C
  C17      1.0000 0.69010  0.78680  0.10920  Biso   1.000  C
  C18      1.0000 0.68270  0.81660  0.10810  Biso   1.000  C
  C19      1.0000 0.68890  0.83110  0.08420  Biso   1.000  C
  C20      1.0000 0.70240  0.81850  0.06130  Biso   1.000  C
  O5       1.0000 0.78705  0.74598  0.02957  Biso   1.000  O
  F17      1.0000 0.79080  0.75230  0.08820  Biso   1.000  F
  F18      1.0000 0.81580  0.72840  0.13280  Biso   1.000  F
  F19      1.0000 0.81710  0.64120  0.08290  Biso   1.000  F
  F20      1.0000 0.79310  0.66550  0.03760  Biso   1.000  F
  C21      1.0000 0.79640  0.72580  0.08630  Biso   1.000  C
  C22      1.0000 0.80990  0.71320  0.10920  Biso   1.000  C
  C23      1.0000 0.81730  0.68340  0.10810  Biso   1.000  C
  C24      1.0000 0.81110  0.66890  0.08420  Biso   1.000  C
  C25      1.0000 0.79760  0.68150  0.06130  Biso   1.000  C
  O6       1.0000 0.78705  0.24598  0.52957  Biso   1.000  O
  F21      1.0000 0.79080  0.25230  0.58820  Biso   1.000  F
  F22      1.0000 0.81580  0.22840  0.63280  Biso   1.000  F
  F23      1.0000 0.81710  0.14120  0.58290  Biso   1.000  F
  F24      1.0000 0.79310  0.16550  0.53760  Biso   1.000  F
  C26      1.0000 0.79640  0.22580  0.58630  Biso   1.000  C
  C27      1.0000 0.80990  0.21320  0.60920  Biso   1.000  C
  C28      1.0000 0.81730  0.18340  0.60810  Biso   1.000  C
  C29      1.0000 0.81110  0.16890  0.58420  Biso   1.000  C
  C30      1.0000 0.79760  0.18150  0.56130  Biso   1.000  C
  O7       1.0000 0.28705  0.74598  0.52957  Biso   1.000  O
  F25      1.0000 0.29080  0.75230  0.58820  Biso   1.000  F
  F26      1.0000 0.31580  0.72840  0.63280  Biso   1.000  F
  F27      1.0000 0.31710  0.64120  0.58290  Biso   1.000  F
  F28      1.0000 0.29310  0.66550  0.53760  Biso   1.000  F
  C31      1.0000 0.29640  0.72580  0.58630  Biso   1.000  C
  C32      1.0000 0.30990  0.71320  0.60920  Biso   1.000  C
  C33      1.0000 0.31730  0.68340  0.60810  Biso   1.000  C
  C34      1.0000 0.31110  0.66890  0.58420  Biso   1.000  C
  C35      1.0000 0.29760  0.68150  0.56130  Biso   1.000  C
  O8       1.0000 0.28705  0.24598  0.02957  Biso   1.000  O
  F29      1.0000 0.29080  0.25230  0.08820  Biso   1.000  F
  F30      1.0000 0.31580  0.22840  0.13280  Biso   1.000  F
  F31      1.0000 0.31710  0.14120  0.08290  Biso   1.000  F
  F32      1.0000 0.29310  0.16550  0.03760  Biso   1.000  F
  C36      1.0000 0.29640  0.22580  0.08630  Biso   1.000  C
  C37      1.0000 0.30990  0.21320  0.10920  Biso   1.000  C
  C38      1.0000 0.31730  0.18340  0.10810  Biso   1.000  C
  C39      1.0000 0.31110  0.16890  0.08420  Biso   1.000  C
  C40      1.0000 0.29760  0.18150  0.06130  Biso   1.000  C
  O9       1.0000 0.78705  0.25402  0.97043  Biso   1.000  O
  F33      1.0000 0.79080  0.24770  0.91180  Biso   1.000  F
  F34      1.0000 0.81580  0.27160  0.86720  Biso   1.000  F
  F35      1.0000 0.81710  0.35880  0.91710  Biso   1.000  F
  F36      1.0000 0.79310  0.33450  0.96240  Biso   1.000  F
  C41      1.0000 0.79640  0.27420  0.91370  Biso   1.000  C
  C42      1.0000 0.80990  0.28680  0.89080  Biso   1.000  C
  C43      1.0000 0.81730  0.31660  0.89190  Biso   1.000  C
  C44      1.0000 0.81110  0.33110  0.91580  Biso   1.000  C
  C45      1.0000 0.79760  0.31850  0.93870  Biso   1.000  C
  O10      1.0000 0.78705  0.75402  0.47043  Biso   1.000  O
  F37      1.0000 0.79080  0.74770  0.41180  Biso   1.000  F
  F38      1.0000 0.81580  0.77160  0.36720  Biso   1.000  F
  F39      1.0000 0.81710  0.85880  0.41710  Biso   1.000  F
  F40      1.0000 0.79310  0.83450  0.46240  Biso   1.000  F
  C46      1.0000 0.79640  0.77420  0.41370  Biso   1.000  C
  C47      1.0000 0.80990  0.78680  0.39080  Biso   1.000  C
  C48      1.0000 0.81730  0.81660  0.39190  Biso   1.000  C
  C49      1.0000 0.81110  0.83110  0.41580  Biso   1.000  C
  C50      1.0000 0.79760  0.81850  0.43870  Biso   1.000  C
  O11      1.0000 0.28705  0.25402  0.47043  Biso   1.000  O
  F41      1.0000 0.29080  0.24770  0.41180  Biso   1.000  F
  F42      1.0000 0.31580  0.27160  0.36720  Biso   1.000  F
  F43      1.0000 0.31710  0.35880  0.41710  Biso   1.000  F
  F44      1.0000 0.29310  0.33450  0.46240  Biso   1.000  F
  C51      1.0000 0.29640  0.27420  0.41370  Biso   1.000  C
  C52      1.0000 0.30990  0.28680  0.39080  Biso   1.000  C
  C53      1.0000 0.31730  0.31660  0.39190  Biso   1.000  C
  C54      1.0000 0.31110  0.33110  0.41580  Biso   1.000  C
  C55      1.0000 0.29760  0.31850  0.43870  Biso   1.000  C
  O12      1.0000 0.28705  0.75402  0.97043  Biso   1.000  O
  F45      1.0000 0.29080  0.74770  0.91180  Biso   1.000  F
  F46      1.0000 0.31580  0.77160  0.86720  Biso   1.000  F
  F47      1.0000 0.31710  0.85880  0.91710  Biso   1.000  F
  F48      1.0000 0.29310  0.83450  0.96240  Biso   1.000  F
  C56      1.0000 0.29640  0.77420  0.91370  Biso   1.000  C
  C57      1.0000 0.30990  0.78680  0.89080  Biso   1.000  C
  C58      1.0000 0.31730  0.81660  0.89190  Biso   1.000  C
  C59      1.0000 0.31110  0.83110  0.91580  Biso   1.000  C
  C60      1.0000 0.29760  0.81850  0.93870  Biso   1.000  C
  O13      1.0000 0.21295  0.74598  0.97043  Biso   1.000  O
  F49      1.0000 0.20920  0.75230  0.91180  Biso   1.000  F
  F50      1.0000 0.18420  0.72840  0.86720  Biso   1.000  F
  F51      1.0000 0.18290  0.64120  0.91710  Biso   1.000  F
  F52      1.0000 0.20690  0.66550  0.96240  Biso   1.000  F
  C61      1.0000 0.20360  0.72580  0.91370  Biso   1.000  C
  C62      1.0000 0.19010  0.71320  0.89080  Biso   1.000  C
  C63      1.0000 0.18270  0.68340  0.89190  Biso   1.000  C
  C64      1.0000 0.18890  0.66890  0.91580  Biso   1.000  C
  C65      1.0000 0.20240  0.68150  0.93870  Biso   1.000  C
  O14      1.0000 0.21295  0.24598  0.47043  Biso   1.000  O
  F53      1.0000 0.20920  0.25230  0.41180  Biso   1.000  F
  F54      1.0000 0.18420  0.22840  0.36720  Biso   1.000  F
  F55      1.0000 0.18290  0.14120  0.41710  Biso   1.000  F
  F56      1.0000 0.20690  0.16550  0.46240  Biso   1.000  F
  C66      1.0000 0.20360  0.22580  0.41370  Biso   1.000  C
  C67      1.0000 0.19010  0.21320  0.39080  Biso   1.000  C
  C68      1.0000 0.18270  0.18340  0.39190  Biso   1.000  C
  C69      1.0000 0.18890  0.16890  0.41580  Biso   1.000  C
  C70      1.0000 0.20240  0.18150  0.43870  Biso   1.000  C
  O15      1.0000 0.71295  0.74598  0.47043  Biso   1.000  O
  F57      1.0000 0.70920  0.75230  0.41180  Biso   1.000  F
  F58      1.0000 0.68420  0.72840  0.36720  Biso   1.000  F
  F59      1.0000 0.68290  0.64120  0.41710  Biso   1.000  F
  F60      1.0000 0.70690  0.66550  0.46240  Biso   1.000  F
  C71      1.0000 0.70360  0.72580  0.41370  Biso   1.000  C
  C72      1.0000 0.69010  0.71320  0.39080  Biso   1.000  C
  C73      1.0000 0.68270  0.68340  0.39190  Biso   1.000  C
  C74      1.0000 0.68890  0.66890  0.41580  Biso   1.000  C
  C75      1.0000 0.70240  0.68150  0.43870  Biso   1.000  C
  O16      1.0000 0.71295  0.24598  0.97043  Biso   1.000  O
  F61      1.0000 0.70920  0.25230  0.91180  Biso   1.000  F
  F62      1.0000 0.68420  0.22840  0.86720  Biso   1.000  F
  F63      1.0000 0.68290  0.14120  0.91710  Biso   1.000  F
  F64      1.0000 0.70690  0.16550  0.96240  Biso   1.000  F
  C76      1.0000 0.70360  0.22580  0.91370  Biso   1.000  C
  C77      1.0000 0.69010  0.21320  0.89080  Biso   1.000  C
  C78      1.0000 0.68270  0.18340  0.89190  Biso   1.000  C
  C79      1.0000 0.68890  0.16890  0.91580  Biso   1.000  C
  C80      1.0000 0.70240  0.18150  0.93870  Biso   1.000  C
  O17      1.0000 0.02957  0.21295  0.25402  Biso   1.000  O
  F65      1.0000 0.08820  0.20920  0.24770  Biso   1.000  F
  F66      1.0000 0.13280  0.18420  0.27160  Biso   1.000  F
  F67      1.0000 0.08290  0.18290  0.35880  Biso   1.000  F
  F68      1.0000 0.03760  0.20690  0.33450  Biso   1.000  F
  C81      1.0000 0.08630  0.20360  0.27420  Biso   1.000  C
  C82      1.0000 0.10920  0.19010  0.28680  Biso   1.000  C
  C83      1.0000 0.10810  0.18270  0.31660  Biso   1.000  C
  C84      1.0000 0.08420  0.18890  0.33110  Biso   1.000  C
  C85      1.0000 0.06130  0.20240  0.31850  Biso   1.000  C
  O18      1.0000 0.02957  0.71295  0.75402  Biso   1.000  O
  F69      1.0000 0.08820  0.70920  0.74770  Biso   1.000  F
  F70      1.0000 0.13280  0.68420  0.77160  Biso   1.000  F
  F71      1.0000 0.08290  0.68290  0.85880  Biso   1.000  F
  F72      1.0000 0.03760  0.70690  0.83450  Biso   1.000  F
  C86      1.0000 0.08630  0.70360  0.77420  Biso   1.000  C
  C87      1.0000 0.10920  0.69010  0.78680  Biso   1.000  C
  C88      1.0000 0.10810  0.68270  0.81660  Biso   1.000  C
  C89      1.0000 0.08420  0.68890  0.83110  Biso   1.000  C
  C90      1.0000 0.06130  0.70240  0.81850  Biso   1.000  C
  O19      1.0000 0.52957  0.21295  0.75402  Biso   1.000  O
  F73      1.0000 0.58820  0.20920  0.74770  Biso   1.000  F
  F74      1.0000 0.63280  0.18420  0.77160  Biso   1.000  F
  F75      1.0000 0.58290  0.18290  0.85880  Biso   1.000  F
  F76      1.0000 0.53760  0.20690  0.83450  Biso   1.000  F
  C91      1.0000 0.58630  0.20360  0.77420  Biso   1.000  C
  C92      1.0000 0.60920  0.19010  0.78680  Biso   1.000  C
  C93      1.0000 0.60810  0.18270  0.81660  Biso   1.000  C
  C94      1.0000 0.58420  0.18890  0.83110  Biso   1.000  C
  C95      1.0000 0.56130  0.20240  0.81850  Biso   1.000  C
  O20      1.0000 0.52957  0.71295  0.25402  Biso   1.000  O
  F77      1.0000 0.58820  0.70920  0.24770  Biso   1.000  F
  F78      1.0000 0.63280  0.68420  0.27160  Biso   1.000  F
  F79      1.0000 0.58290  0.68290  0.35880  Biso   1.000  F
  F80      1.0000 0.53760  0.70690  0.33450  Biso   1.000  F
  C96      1.0000 0.58630  0.70360  0.27420  Biso   1.000  C
  C97      1.0000 0.60920  0.69010  0.28680  Biso   1.000  C
  C98      1.0000 0.60810  0.68270  0.31660  Biso   1.000  C
  C99      1.0000 0.58420  0.68890  0.33110  Biso   1.000  C
  C100     1.0000 0.56130  0.70240  0.31850  Biso   1.000  C
  O21      1.0000 0.02957  0.78705  0.74598  Biso   1.000  O
  F81      1.0000 0.08820  0.79080  0.75230  Biso   1.000  F
  F82      1.0000 0.13280  0.81580  0.72840  Biso   1.000  F
  F83      1.0000 0.08290  0.81710  0.64120  Biso   1.000  F
  F84      1.0000 0.03760  0.79310  0.66550  Biso   1.000  F
  C101     1.0000 0.08630  0.79640  0.72580  Biso   1.000  C
  C102     1.0000 0.10920  0.80990  0.71320  Biso   1.000  C
  C103     1.0000 0.10810  0.81730  0.68340  Biso   1.000  C
  C104     1.0000 0.08420  0.81110  0.66890  Biso   1.000  C
  C105     1.0000 0.06130  0.79760  0.68150  Biso   1.000  C
  O22      1.0000 0.02957  0.28705  0.24598  Biso   1.000  O
  F85      1.0000 0.08820  0.29080  0.25230  Biso   1.000  F
  F86      1.0000 0.13280  0.31580  0.22840  Biso   1.000  F
  F87      1.0000 0.08290  0.31710  0.14120  Biso   1.000  F
  F88      1.0000 0.03760  0.29310  0.16550  Biso   1.000  F
  C106     1.0000 0.08630  0.29640  0.22580  Biso   1.000  C
  C107     1.0000 0.10920  0.30990  0.21320  Biso   1.000  C
  C108     1.0000 0.10810  0.31730  0.18340  Biso   1.000  C
  C109     1.0000 0.08420  0.31110  0.16890  Biso   1.000  C
  C110     1.0000 0.06130  0.29760  0.18150  Biso   1.000  C
  O23      1.0000 0.52957  0.78705  0.24598  Biso   1.000  O
  F89      1.0000 0.58820  0.79080  0.25230  Biso   1.000  F
  F90      1.0000 0.63280  0.81580  0.22840  Biso   1.000  F
  F91      1.0000 0.58290  0.81710  0.14120  Biso   1.000  F
  F92      1.0000 0.53760  0.79310  0.16550  Biso   1.000  F
  C111     1.0000 0.58630  0.79640  0.22580  Biso   1.000  C
  C112     1.0000 0.60920  0.80990  0.21320  Biso   1.000  C
  C113     1.0000 0.60810  0.81730  0.18340  Biso   1.000  C
  C114     1.0000 0.58420  0.81110  0.16890  Biso   1.000  C
  C115     1.0000 0.56130  0.79760  0.18150  Biso   1.000  C
  O24      1.0000 0.52957  0.28705  0.74598  Biso   1.000  O
  F93      1.0000 0.58820  0.29080  0.75230  Biso   1.000  F
  F94      1.0000 0.63280  0.31580  0.72840  Biso   1.000  F
  F95      1.0000 0.58290  0.31710  0.64120  Biso   1.000  F
  F96      1.0000 0.53760  0.29310  0.66550  Biso   1.000  F
  C116     1.0000 0.58630  0.29640  0.72580  Biso   1.000  C
  C117     1.0000 0.60920  0.30990  0.71320  Biso   1.000  C
  C118     1.0000 0.60810  0.31730  0.68340  Biso   1.000  C
  C119     1.0000 0.58420  0.31110  0.66890  Biso   1.000  C
  C120     1.0000 0.56130  0.29760  0.68150  Biso   1.000  C
  O25      1.0000 0.97043  0.78705  0.25402  Biso   1.000  O
  F97      1.0000 0.91180  0.79080  0.24770  Biso   1.000  F
  F98      1.0000 0.86720  0.81580  0.27160  Biso   1.000  F
  F99      1.0000 0.91710  0.81710  0.35880  Biso   1.000  F
  F100     1.0000 0.96240  0.79310  0.33450  Biso   1.000  F
  C121     1.0000 0.91370  0.79640  0.27420  Biso   1.000  C
  C122     1.0000 0.89080  0.80990  0.28680  Biso   1.000  C
  C123     1.0000 0.89190  0.81730  0.31660  Biso   1.000  C
  C124     1.0000 0.91580  0.81110  0.33110  Biso   1.000  C
  C125     1.0000 0.93870  0.79760  0.31850  Biso   1.000  C
  O26      1.0000 0.97043  0.28705  0.75402  Biso   1.000  O
  F101     1.0000 0.91180  0.29080  0.74770  Biso   1.000  F
  F102     1.0000 0.86720  0.31580  0.77160  Biso   1.000  F
  F103     1.0000 0.91710  0.31710  0.85880  Biso   1.000  F
  F104     1.0000 0.96240  0.29310  0.83450  Biso   1.000  F
  C126     1.0000 0.91370  0.29640  0.77420  Biso   1.000  C
  C127     1.0000 0.89080  0.30990  0.78680  Biso   1.000  C
  C128     1.0000 0.89190  0.31730  0.81660  Biso   1.000  C
  C129     1.0000 0.91580  0.31110  0.83110  Biso   1.000  C
  C130     1.0000 0.93870  0.29760  0.81850  Biso   1.000  C
  O27      1.0000 0.47043  0.78705  0.75402  Biso   1.000  O
  F105     1.0000 0.41180  0.79080  0.74770  Biso   1.000  F
  F106     1.0000 0.36720  0.81580  0.77160  Biso   1.000  F
  F107     1.0000 0.41710  0.81710  0.85880  Biso   1.000  F
  F108     1.0000 0.46240  0.79310  0.83450  Biso   1.000  F
  C131     1.0000 0.41370  0.79640  0.77420  Biso   1.000  C
  C132     1.0000 0.39080  0.80990  0.78680  Biso   1.000  C
  C133     1.0000 0.39190  0.81730  0.81660  Biso   1.000  C
  C134     1.0000 0.41580  0.81110  0.83110  Biso   1.000  C
  C135     1.0000 0.43870  0.79760  0.81850  Biso   1.000  C
  O28      1.0000 0.47043  0.28705  0.25402  Biso   1.000  O
  F109     1.0000 0.41180  0.29080  0.24770  Biso   1.000  F
  F110     1.0000 0.36720  0.31580  0.27160  Biso   1.000  F
  F111     1.0000 0.41710  0.31710  0.35880  Biso   1.000  F
  F112     1.0000 0.46240  0.29310  0.33450  Biso   1.000  F
  C136     1.0000 0.41370  0.29640  0.27420  Biso   1.000  C
  C137     1.0000 0.39080  0.30990  0.28680  Biso   1.000  C
  C138     1.0000 0.39190  0.31730  0.31660  Biso   1.000  C
  C139     1.0000 0.41580  0.31110  0.33110  Biso   1.000  C
  C140     1.0000 0.43870  0.29760  0.31850  Biso   1.000  C
  O29      1.0000 0.97043  0.21295  0.74598  Biso   1.000  O
  F113     1.0000 0.91180  0.20920  0.75230  Biso   1.000  F
  F114     1.0000 0.86720  0.18420  0.72840  Biso   1.000  F
  F115     1.0000 0.91710  0.18290  0.64120  Biso   1.000  F
  F116     1.0000 0.96240  0.20690  0.66550  Biso   1.000  F
  C141     1.0000 0.91370  0.20360  0.72580  Biso   1.000  C
  C142     1.0000 0.89080  0.19010  0.71320  Biso   1.000  C
  C143     1.0000 0.89190  0.18270  0.68340  Biso   1.000  C
  C144     1.0000 0.91580  0.18890  0.66890  Biso   1.000  C
  C145     1.0000 0.93870  0.20240  0.68150  Biso   1.000  C
  O30      1.0000 0.97043  0.71295  0.24598  Biso   1.000  O
  F117     1.0000 0.91180  0.70920  0.25230  Biso   1.000  F
  F118     1.0000 0.86720  0.68420  0.22840  Biso   1.000  F
  F119     1.0000 0.91710  0.68290  0.14120  Biso   1.000  F
  F120     1.0000 0.96240  0.70690  0.16550  Biso   1.000  F
  C146     1.0000 0.91370  0.70360  0.22580  Biso   1.000  C
  C147     1.0000 0.89080  0.69010  0.21320  Biso   1.000  C
  C148     1.0000 0.89190  0.68270  0.18340  Biso   1.000  C
  C149     1.0000 0.91580  0.68890  0.16890  Biso   1.000  C
  C150     1.0000 0.93870  0.70240  0.18150  Biso   1.000  C
  O31      1.0000 0.47043  0.21295  0.24598  Biso   1.000  O
  F121     1.0000 0.41180  0.20920  0.25230  Biso   1.000  F
  F122     1.0000 0.36720  0.18420  0.22840  Biso   1.000  F
  F123     1.0000 0.41710  0.18290  0.14120  Biso   1.000  F
  F124     1.0000 0.46240  0.20690  0.16550  Biso   1.000  F
  C151     1.0000 0.41370  0.20360  0.22580  Biso   1.000  C
  C152     1.0000 0.39080  0.19010  0.21320  Biso   1.000  C
  C153     1.0000 0.39190  0.18270  0.18340  Biso   1.000  C
  C154     1.0000 0.41580  0.18890  0.16890  Biso   1.000  C
  C155     1.0000 0.43870  0.20240  0.18150  Biso   1.000  C
  O32      1.0000 0.47043  0.71295  0.74598  Biso   1.000  O
  F125     1.0000 0.41180  0.70920  0.75230  Biso   1.000  F
  F126     1.0000 0.36720  0.68420  0.72840  Biso   1.000  F
  F127     1.0000 0.41710  0.68290  0.64120  Biso   1.000  F
  F128     1.0000 0.46240  0.70690  0.66550  Biso   1.000  F
  C156     1.0000 0.41370  0.70360  0.72580  Biso   1.000  C
  C157     1.0000 0.39080  0.69010  0.71320  Biso   1.000  C
  C158     1.0000 0.39190  0.68270  0.68340  Biso   1.000  C
  C159     1.0000 0.41580  0.68890  0.66890  Biso   1.000  C
  C160     1.0000 0.43870  0.70240  0.68150  Biso   1.000  C
  O33      1.0000 0.25402  0.02957  0.21295  Biso   1.000  O
  F129     1.0000 0.24770  0.08820  0.20920  Biso   1.000  F
  F130     1.0000 0.27160  0.13280  0.18420  Biso   1.000  F
  F131     1.0000 0.35880  0.08290  0.18290  Biso   1.000  F
  F132     1.0000 0.33450  0.03760  0.20690  Biso   1.000  F
  C161     1.0000 0.27420  0.08630  0.20360  Biso   1.000  C
  C162     1.0000 0.28680  0.10920  0.19010  Biso   1.000  C
  C163     1.0000 0.31660  0.10810  0.18270  Biso   1.000  C
  C164     1.0000 0.33110  0.08420  0.18890  Biso   1.000  C
  C165     1.0000 0.31850  0.06130  0.20240  Biso   1.000  C
  O34      1.0000 0.25402  0.52957  0.71295  Biso   1.000  O
  F133     1.0000 0.24770  0.58820  0.70920  Biso   1.000  F
  F134     1.0000 0.27160  0.63280  0.68420  Biso   1.000  F
  F135     1.0000 0.35880  0.58290  0.68290  Biso   1.000  F
  F136     1.0000 0.33450  0.53760  0.70690  Biso   1.000  F
  C166     1.0000 0.27420  0.58630  0.70360  Biso   1.000  C
  C167     1.0000 0.28680  0.60920  0.69010  Biso   1.000  C
  C168     1.0000 0.31660  0.60810  0.68270  Biso   1.000  C
  C169     1.0000 0.33110  0.58420  0.68890  Biso   1.000  C
  C170     1.0000 0.31850  0.56130  0.70240  Biso   1.000  C
  O35      1.0000 0.75402  0.02957  0.71295  Biso   1.000  O
  F137     1.0000 0.74770  0.08820  0.70920  Biso   1.000  F
  F138     1.0000 0.77160  0.13280  0.68420  Biso   1.000  F
  F139     1.0000 0.85880  0.08290  0.68290  Biso   1.000  F
  F140     1.0000 0.83450  0.03760  0.70690  Biso   1.000  F
  C171     1.0000 0.77420  0.08630  0.70360  Biso   1.000  C
  C172     1.0000 0.78680  0.10920  0.69010  Biso   1.000  C
  C173     1.0000 0.81660  0.10810  0.68270  Biso   1.000  C
  C174     1.0000 0.83110  0.08420  0.68890  Biso   1.000  C
  C175     1.0000 0.81850  0.06130  0.70240  Biso   1.000  C
  O36      1.0000 0.75402  0.52957  0.21295  Biso   1.000  O
  F141     1.0000 0.74770  0.58820  0.20920  Biso   1.000  F
  F142     1.0000 0.77160  0.63280  0.18420  Biso   1.000  F
  F143     1.0000 0.85880  0.58290  0.18290  Biso   1.000  F
  F144     1.0000 0.83450  0.53760  0.20690  Biso   1.000  F
  C176     1.0000 0.77420  0.58630  0.20360  Biso   1.000  C
  C177     1.0000 0.78680  0.60920  0.19010  Biso   1.000  C
  C178     1.0000 0.81660  0.60810  0.18270  Biso   1.000  C
  C179     1.0000 0.83110  0.58420  0.18890  Biso   1.000  C
  C180     1.0000 0.81850  0.56130  0.20240  Biso   1.000  C
  O37      1.0000 0.74598  0.02957  0.78705  Biso   1.000  O
  F145     1.0000 0.75230  0.08820  0.79080  Biso   1.000  F
  F146     1.0000 0.72840  0.13280  0.81580  Biso   1.000  F
  F147     1.0000 0.64120  0.08290  0.81710  Biso   1.000  F
  F148     1.0000 0.66550  0.03760  0.79310  Biso   1.000  F
  C181     1.0000 0.72580  0.08630  0.79640  Biso   1.000  C
  C182     1.0000 0.71320  0.10920  0.80990  Biso   1.000  C
  C183     1.0000 0.68340  0.10810  0.81730  Biso   1.000  C
  C184     1.0000 0.66890  0.08420  0.81110  Biso   1.000  C
  C185     1.0000 0.68150  0.06130  0.79760  Biso   1.000  C
  O38      1.0000 0.74598  0.52957  0.28705  Biso   1.000  O
  F149     1.0000 0.75230  0.58820  0.29080  Biso   1.000  F
  F150     1.0000 0.72840  0.63280  0.31580  Biso   1.000  F
  F151     1.0000 0.64120  0.58290  0.31710  Biso   1.000  F
  F152     1.0000 0.66550  0.53760  0.29310  Biso   1.000  F
  C186     1.0000 0.72580  0.58630  0.29640  Biso   1.000  C
  C187     1.0000 0.71320  0.60920  0.30990  Biso   1.000  C
  C188     1.0000 0.68340  0.60810  0.31730  Biso   1.000  C
  C189     1.0000 0.66890  0.58420  0.31110  Biso   1.000  C
  C190     1.0000 0.68150  0.56130  0.29760  Biso   1.000  C
  O39      1.0000 0.24598  0.02957  0.28705  Biso   1.000  O
  F153     1.0000 0.25230  0.08820  0.29080  Biso   1.000  F
  F154     1.0000 0.22840  0.13280  0.31580  Biso   1.000  F
  F155     1.0000 0.14120  0.08290  0.31710  Biso   1.000  F
  F156     1.0000 0.16550  0.03760  0.29310  Biso   1.000  F
  C191     1.0000 0.22580  0.08630  0.29640  Biso   1.000  C
  C192     1.0000 0.21320  0.10920  0.30990  Biso   1.000  C
  C193     1.0000 0.18340  0.10810  0.31730  Biso   1.000  C
  C194     1.0000 0.16890  0.08420  0.31110  Biso   1.000  C
  C195     1.0000 0.18150  0.06130  0.29760  Biso   1.000  C
  O40      1.0000 0.24598  0.52957  0.78705  Biso   1.000  O
  F157     1.0000 0.25230  0.58820  0.79080  Biso   1.000  F
  F158     1.0000 0.22840  0.63280  0.81580  Biso   1.000  F
  F159     1.0000 0.14120  0.58290  0.81710  Biso   1.000  F
  F160     1.0000 0.16550  0.53760  0.79310  Biso   1.000  F
  C196     1.0000 0.22580  0.58630  0.79640  Biso   1.000  C
  C197     1.0000 0.21320  0.60920  0.80990  Biso   1.000  C
  C198     1.0000 0.18340  0.60810  0.81730  Biso   1.000  C
  C199     1.0000 0.16890  0.58420  0.81110  Biso   1.000  C
  C200     1.0000 0.18150  0.56130  0.79760  Biso   1.000  C
  O41      1.0000 0.25402  0.97043  0.78705  Biso   1.000  O
  F161     1.0000 0.24770  0.91180  0.79080  Biso   1.000  F
  F162     1.0000 0.27160  0.86720  0.81580  Biso   1.000  F
  F163     1.0000 0.35880  0.91710  0.81710  Biso   1.000  F
  F164     1.0000 0.33450  0.96240  0.79310  Biso   1.000  F
  C201     1.0000 0.27420  0.91370  0.79640  Biso   1.000  C
  C202     1.0000 0.28680  0.89080  0.80990  Biso   1.000  C
  C203     1.0000 0.31660  0.89190  0.81730  Biso   1.000  C
  C204     1.0000 0.33110  0.91580  0.81110  Biso   1.000  C
  C205     1.0000 0.31850  0.93870  0.79760  Biso   1.000  C
  O42      1.0000 0.25402  0.47043  0.28705  Biso   1.000  O
  F165     1.0000 0.24770  0.41180  0.29080  Biso   1.000  F
  F166     1.0000 0.27160  0.36720  0.31580  Biso   1.000  F
  F167     1.0000 0.35880  0.41710  0.31710  Biso   1.000  F
  F168     1.0000 0.33450  0.46240  0.29310  Biso   1.000  F
  C206     1.0000 0.27420  0.41370  0.29640  Biso   1.000  C
  C207     1.0000 0.28680  0.39080  0.30990  Biso   1.000  C
  C208     1.0000 0.31660  0.39190  0.31730  Biso   1.000  C
  C209     1.0000 0.33110  0.41580  0.31110  Biso   1.000  C
  C210     1.0000 0.31850  0.43870  0.29760  Biso   1.000  C
  O43      1.0000 0.75402  0.97043  0.28705  Biso   1.000  O
  F169     1.0000 0.74770  0.91180  0.29080  Biso   1.000  F
  F170     1.0000 0.77160  0.86720  0.31580  Biso   1.000  F
  F171     1.0000 0.85880  0.91710  0.31710  Biso   1.000  F
  F172     1.0000 0.83450  0.96240  0.29310  Biso   1.000  F
  C211     1.0000 0.77420  0.91370  0.29640  Biso   1.000  C
  C212     1.0000 0.78680  0.89080  0.30990  Biso   1.000  C
  C213     1.0000 0.81660  0.89190  0.31730  Biso   1.000  C
  C214     1.0000 0.83110  0.91580  0.31110  Biso   1.000  C
  C215     1.0000 0.81850  0.93870  0.29760  Biso   1.000  C
  O44      1.0000 0.75402  0.47043  0.78705  Biso   1.000  O
  F173     1.0000 0.74770  0.41180  0.79080  Biso   1.000  F
  F174     1.0000 0.77160  0.36720  0.81580  Biso   1.000  F
  F175     1.0000 0.85880  0.41710  0.81710  Biso   1.000  F
  F176     1.0000 0.83450  0.46240  0.79310  Biso   1.000  F
  C216     1.0000 0.77420  0.41370  0.79640  Biso   1.000  C
  C217     1.0000 0.78680  0.39080  0.80990  Biso   1.000  C
  C218     1.0000 0.81660  0.39190  0.81730  Biso   1.000  C
  C219     1.0000 0.83110  0.41580  0.81110  Biso   1.000  C
  C220     1.0000 0.81850  0.43870  0.79760  Biso   1.000  C
  O45      1.0000 0.74598  0.97043  0.21295  Biso   1.000  O
  F177     1.0000 0.75230  0.91180  0.20920  Biso   1.000  F
  F178     1.0000 0.72840  0.86720  0.18420  Biso   1.000  F
  F179     1.0000 0.64120  0.91710  0.18290  Biso   1.000  F
  F180     1.0000 0.66550  0.96240  0.20690  Biso   1.000  F
  C221     1.0000 0.72580  0.91370  0.20360  Biso   1.000  C
  C222     1.0000 0.71320  0.89080  0.19010  Biso   1.000  C
  C223     1.0000 0.68340  0.89190  0.18270  Biso   1.000  C
  C224     1.0000 0.66890  0.91580  0.18890  Biso   1.000  C
  C225     1.0000 0.68150  0.93870  0.20240  Biso   1.000  C
  O46      1.0000 0.74598  0.47043  0.71295  Biso   1.000  O
  F181     1.0000 0.75230  0.41180  0.70920  Biso   1.000  F
  F182     1.0000 0.72840  0.36720  0.68420  Biso   1.000  F
  F183     1.0000 0.64120  0.41710  0.68290  Biso   1.000  F
  F184     1.0000 0.66550  0.46240  0.70690  Biso   1.000  F
  C226     1.0000 0.72580  0.41370  0.70360  Biso   1.000  C
  C227     1.0000 0.71320  0.39080  0.69010  Biso   1.000  C
  C228     1.0000 0.68340  0.39190  0.68270  Biso   1.000  C
  C229     1.0000 0.66890  0.41580  0.68890  Biso   1.000  C
  C230     1.0000 0.68150  0.43870  0.70240  Biso   1.000  C
  O47      1.0000 0.24598  0.97043  0.71295  Biso   1.000  O
  F185     1.0000 0.25230  0.91180  0.70920  Biso   1.000  F
  F186     1.0000 0.22840  0.86720  0.68420  Biso   1.000  F
  F187     1.0000 0.14120  0.91710  0.68290  Biso   1.000  F
  F188     1.0000 0.16550  0.96240  0.70690  Biso   1.000  F
  C231     1.0000 0.22580  0.91370  0.70360  Biso   1.000  C
  C232     1.0000 0.21320  0.89080  0.69010  Biso   1.000  C
  C233     1.0000 0.18340  0.89190  0.68270  Biso   1.000  C
  C234     1.0000 0.16890  0.91580  0.68890  Biso   1.000  C
  C235     1.0000 0.18150  0.93870  0.70240  Biso   1.000  C
  O48      1.0000 0.24598  0.47043  0.21295  Biso   1.000  O
  F189     1.0000 0.25230  0.41180  0.20920  Biso   1.000  F
  F190     1.0000 0.22840  0.36720  0.18420  Biso   1.000  F
  F191     1.0000 0.14120  0.41710  0.18290  Biso   1.000  F
  F192     1.0000 0.16550  0.46240  0.20690  Biso   1.000  F
  C236     1.0000 0.22580  0.41370  0.20360  Biso   1.000  C
  C237     1.0000 0.21320  0.39080  0.19010  Biso   1.000  C
  C238     1.0000 0.18340  0.39190  0.18270  Biso   1.000  C
  C239     1.0000 0.16890  0.41580  0.18890  Biso   1.000  C
  C240     1.0000 0.18150  0.43870  0.20240  Biso   1.000  C
  O49      1.0000 0.25402  0.21295  0.97043  Biso   1.000  O
  F193     1.0000 0.24770  0.20920  0.91180  Biso   1.000  F
  F194     1.0000 0.27160  0.18420  0.86720  Biso   1.000  F
  F195     1.0000 0.35880  0.18290  0.91710  Biso   1.000  F
  F196     1.0000 0.33450  0.20690  0.96240  Biso   1.000  F
  C241     1.0000 0.27420  0.20360  0.91370  Biso   1.000  C
  C242     1.0000 0.28680  0.19010  0.89080  Biso   1.000  C
  C243     1.0000 0.31660  0.18270  0.89190  Biso   1.000  C
  C244     1.0000 0.33110  0.18890  0.91580  Biso   1.000  C
  C245     1.0000 0.31850  0.20240  0.93870  Biso   1.000  C
  O50      1.0000 0.25402  0.71295  0.47043  Biso   1.000  O
  F197     1.0000 0.24770  0.70920  0.41180  Biso   1.000  F
  F198     1.0000 0.27160  0.68420  0.36720  Biso   1.000  F
  F199     1.0000 0.35880  0.68290  0.41710  Biso   1.000  F
  F200     1.0000 0.33450  0.70690  0.46240  Biso   1.000  F
  C246     1.0000 0.27420  0.70360  0.41370  Biso   1.000  C
  C247     1.0000 0.28680  0.69010  0.39080  Biso   1.000  C
  C248     1.0000 0.31660  0.68270  0.39190  Biso   1.000  C
  C249     1.0000 0.33110  0.68890  0.41580  Biso   1.000  C
  C250     1.0000 0.31850  0.70240  0.43870  Biso   1.000  C
  O51      1.0000 0.75402  0.21295  0.47043  Biso   1.000  O
  F201     1.0000 0.74770  0.20920  0.41180  Biso   1.000  F
  F202     1.0000 0.77160  0.18420  0.36720  Biso   1.000  F
  F203     1.0000 0.85880  0.18290  0.41710  Biso   1.000  F
  F204     1.0000 0.83450  0.20690  0.46240  Biso   1.000  F
  C251     1.0000 0.77420  0.20360  0.41370  Biso   1.000  C
  C252     1.0000 0.78680  0.19010  0.39080  Biso   1.000  C
  C253     1.0000 0.81660  0.18270  0.39190  Biso   1.000  C
  C254     1.0000 0.83110  0.18890  0.41580  Biso   1.000  C
  C255     1.0000 0.81850  0.20240  0.43870  Biso   1.000  C
  O52      1.0000 0.75402  0.71295  0.97043  Biso   1.000  O
  F205     1.0000 0.74770  0.70920  0.91180  Biso   1.000  F
  F206     1.0000 0.77160  0.68420  0.86720  Biso   1.000  F
  F207     1.0000 0.85880  0.68290  0.91710  Biso   1.000  F
  F208     1.0000 0.83450  0.70690  0.96240  Biso   1.000  F
  C256     1.0000 0.77420  0.70360  0.91370  Biso   1.000  C
  C257     1.0000 0.78680  0.69010  0.89080  Biso   1.000  C
  C258     1.0000 0.81660  0.68270  0.89190  Biso   1.000  C
  C259     1.0000 0.83110  0.68890  0.91580  Biso   1.000  C
  C260     1.0000 0.81850  0.70240  0.93870  Biso   1.000  C
  O53      1.0000 0.74598  0.78705  0.97043  Biso   1.000  O
  F209     1.0000 0.75230  0.79080  0.91180  Biso   1.000  F
  F210     1.0000 0.72840  0.81580  0.86720  Biso   1.000  F
  F211     1.0000 0.64120  0.81710  0.91710  Biso   1.000  F
  F212     1.0000 0.66550  0.79310  0.96240  Biso   1.000  F
  C261     1.0000 0.72580  0.79640  0.91370  Biso   1.000  C
  C262     1.0000 0.71320  0.80990  0.89080  Biso   1.000  C
  C263     1.0000 0.68340  0.81730  0.89190  Biso   1.000  C
  C264     1.0000 0.66890  0.81110  0.91580  Biso   1.000  C
  C265     1.0000 0.68150  0.79760  0.93870  Biso   1.000  C
  O54      1.0000 0.74598  0.28705  0.47043  Biso   1.000  O
  F213     1.0000 0.75230  0.29080  0.41180  Biso   1.000  F
  F214     1.0000 0.72840  0.31580  0.36720  Biso   1.000  F
  F215     1.0000 0.64120  0.31710  0.41710  Biso   1.000  F
  F216     1.0000 0.66550  0.29310  0.46240  Biso   1.000  F
  C266     1.0000 0.72580  0.29640  0.41370  Biso   1.000  C
  C267     1.0000 0.71320  0.30990  0.39080  Biso   1.000  C
  C268     1.0000 0.68340  0.31730  0.39190  Biso   1.000  C
  C269     1.0000 0.66890  0.31110  0.41580  Biso   1.000  C
  C270     1.0000 0.68150  0.29760  0.43870  Biso   1.000  C
  O55      1.0000 0.24598  0.78705  0.47043  Biso   1.000  O
  F217     1.0000 0.25230  0.79080  0.41180  Biso   1.000  F
  F218     1.0000 0.22840  0.81580  0.36720  Biso   1.000  F
  F219     1.0000 0.14120  0.81710  0.41710  Biso   1.000  F
  F220     1.0000 0.16550  0.79310  0.46240  Biso   1.000  F
  C271     1.0000 0.22580  0.79640  0.41370  Biso   1.000  C
  C272     1.0000 0.21320  0.80990  0.39080  Biso   1.000  C
  C273     1.0000 0.18340  0.81730  0.39190  Biso   1.000  C
  C274     1.0000 0.16890  0.81110  0.41580  Biso   1.000  C
  C275     1.0000 0.18150  0.79760  0.43870  Biso   1.000  C
  O56      1.0000 0.24598  0.28705  0.97043  Biso   1.000  O
  F221     1.0000 0.25230  0.29080  0.91180  Biso   1.000  F
  F222     1.0000 0.22840  0.31580  0.86720  Biso   1.000  F
  F223     1.0000 0.14120  0.31710  0.91710  Biso   1.000  F
  F224     1.0000 0.16550  0.29310  0.96240  Biso   1.000  F
  C276     1.0000 0.22580  0.29640  0.91370  Biso   1.000  C
  C277     1.0000 0.21320  0.30990  0.89080  Biso   1.000  C
  C278     1.0000 0.18340  0.31730  0.89190  Biso   1.000  C
  C279     1.0000 0.16890  0.31110  0.91580  Biso   1.000  C
  C280     1.0000 0.18150  0.29760  0.93870  Biso   1.000  C
  O57      1.0000 0.25402  0.78705  0.02957  Biso   1.000  O
  F225     1.0000 0.24770  0.79080  0.08820  Biso   1.000  F
  F226     1.0000 0.27160  0.81580  0.13280  Biso   1.000  F
  F227     1.0000 0.35880  0.81710  0.08290  Biso   1.000  F
  F228     1.0000 0.33450  0.79310  0.03760  Biso   1.000  F
  C281     1.0000 0.27420  0.79640  0.08630  Biso   1.000  C
  C282     1.0000 0.28680  0.80990  0.10920  Biso   1.000  C
  C283     1.0000 0.31660  0.81730  0.10810  Biso   1.000  C
  C284     1.0000 0.33110  0.81110  0.08420  Biso   1.000  C
  C285     1.0000 0.31850  0.79760  0.06130  Biso   1.000  C
  O58      1.0000 0.25402  0.28705  0.52957  Biso   1.000  O
  F229     1.0000 0.24770  0.29080  0.58820  Biso   1.000  F
  F230     1.0000 0.27160  0.31580  0.63280  Biso   1.000  F
  F231     1.0000 0.35880  0.31710  0.58290  Biso   1.000  F
  F232     1.0000 0.33450  0.29310  0.53760  Biso   1.000  F
  C286     1.0000 0.27420  0.29640  0.58630  Biso   1.000  C
  C287     1.0000 0.28680  0.30990  0.60920  Biso   1.000  C
  C288     1.0000 0.31660  0.31730  0.60810  Biso   1.000  C
  C289     1.0000 0.33110  0.31110  0.58420  Biso   1.000  C
  C290     1.0000 0.31850  0.29760  0.56130  Biso   1.000  C
  O59      1.0000 0.75402  0.78705  0.52957  Biso   1.000  O
  F233     1.0000 0.74770  0.79080  0.58820  Biso   1.000  F
  F234     1.0000 0.77160  0.81580  0.63280  Biso   1.000  F
  F235     1.0000 0.85880  0.81710  0.58290  Biso   1.000  F
  F236     1.0000 0.83450  0.79310  0.53760  Biso   1.000  F
  C291     1.0000 0.77420  0.79640  0.58630  Biso   1.000  C
  C292     1.0000 0.78680  0.80990  0.60920  Biso   1.000  C
  C293     1.0000 0.81660  0.81730  0.60810  Biso   1.000  C
  C294     1.0000 0.83110  0.81110  0.58420  Biso   1.000  C
  C295     1.0000 0.81850  0.79760  0.56130  Biso   1.000  C
  O60      1.0000 0.75402  0.28705  0.02957  Biso   1.000  O
  F237     1.0000 0.74770  0.29080  0.08820  Biso   1.000  F
  F238     1.0000 0.77160  0.31580  0.13280  Biso   1.000  F
  F239     1.0000 0.85880  0.31710  0.08290  Biso   1.000  F
  F240     1.0000 0.83450  0.29310  0.03760  Biso   1.000  F
  C296     1.0000 0.77420  0.29640  0.08630  Biso   1.000  C
  C297     1.0000 0.78680  0.30990  0.10920  Biso   1.000  C
  C298     1.0000 0.81660  0.31730  0.10810  Biso   1.000  C
  C299     1.0000 0.83110  0.31110  0.08420  Biso   1.000  C
  C300     1.0000 0.81850  0.29760  0.06130  Biso   1.000  C
  O61      1.0000 0.74598  0.21295  0.02957  Biso   1.000  O
  F241     1.0000 0.75230  0.20920  0.08820  Biso   1.000  F
  F242     1.0000 0.72840  0.18420  0.13280  Biso   1.000  F
  F243     1.0000 0.64120  0.18290  0.08290  Biso   1.000  F
  F244     1.0000 0.66550  0.20690  0.03760  Biso   1.000  F
  C301     1.0000 0.72580  0.20360  0.08630  Biso   1.000  C
  C302     1.0000 0.71320  0.19010  0.10920  Biso   1.000  C
  C303     1.0000 0.68340  0.18270  0.10810  Biso   1.000  C
  C304     1.0000 0.66890  0.18890  0.08420  Biso   1.000  C
  C305     1.0000 0.68150  0.20240  0.06130  Biso   1.000  C
  O62      1.0000 0.74598  0.71295  0.52957  Biso   1.000  O
  F245     1.0000 0.75230  0.70920  0.58820  Biso   1.000  F
  F246     1.0000 0.72840  0.68420  0.63280  Biso   1.000  F
  F247     1.0000 0.64120  0.68290  0.58290  Biso   1.000  F
  F248     1.0000 0.66550  0.70690  0.53760  Biso   1.000  F
  C306     1.0000 0.72580  0.70360  0.58630  Biso   1.000  C
  C307     1.0000 0.71320  0.69010  0.60920  Biso   1.000  C
  C308     1.0000 0.68340  0.68270  0.60810  Biso   1.000  C
  C309     1.0000 0.66890  0.68890  0.58420  Biso   1.000  C
  C310     1.0000 0.68150  0.70240  0.56130  Biso   1.000  C
  O63      1.0000 0.24598  0.21295  0.52957  Biso   1.000  O
  F249     1.0000 0.25230  0.20920  0.58820  Biso   1.000  F
  F250     1.0000 0.22840  0.18420  0.63280  Biso   1.000  F
  F251     1.0000 0.14120  0.18290  0.58290  Biso   1.000  F
  F252     1.0000 0.16550  0.20690  0.53760  Biso   1.000  F
  C311     1.0000 0.22580  0.20360  0.58630  Biso   1.000  C
  C312     1.0000 0.21320  0.19010  0.60920  Biso   1.000  C
  C313     1.0000 0.18340  0.18270  0.60810  Biso   1.000  C
  C314     1.0000 0.16890  0.18890  0.58420  Biso   1.000  C
  C315     1.0000 0.18150  0.20240  0.56130  Biso   1.000  C
  O64      1.0000 0.24598  0.71295  0.02957  Biso   1.000  O
  F253     1.0000 0.25230  0.70920  0.08820  Biso   1.000  F
  F254     1.0000 0.22840  0.68420  0.13280  Biso   1.000  F
  F255     1.0000 0.14120  0.68290  0.08290  Biso   1.000  F
  F256     1.0000 0.16550  0.70690  0.03760  Biso   1.000  F
  C316     1.0000 0.22580  0.70360  0.08630  Biso   1.000  C
  C317     1.0000 0.21320  0.69010  0.10920  Biso   1.000  C
  C318     1.0000 0.18340  0.68270  0.10810  Biso   1.000  C
  C319     1.0000 0.16890  0.68890  0.08420  Biso   1.000  C
  C320     1.0000 0.18150  0.70240  0.06130  Biso   1.000  C
  O65      1.0000 0.21295  0.02957  0.74598  Biso   1.000  O
  F257     1.0000 0.20920  0.08820  0.75230  Biso   1.000  F
  F258     1.0000 0.18420  0.13280  0.72840  Biso   1.000  F
  F259     1.0000 0.18290  0.08290  0.64120  Biso   1.000  F
  F260     1.0000 0.20690  0.03760  0.66550  Biso   1.000  F
  C321     1.0000 0.20360  0.08630  0.72580  Biso   1.000  C
  C322     1.0000 0.19010  0.10920  0.71320  Biso   1.000  C
  C323     1.0000 0.18270  0.10810  0.68340  Biso   1.000  C
  C324     1.0000 0.18890  0.08420  0.66890  Biso   1.000  C
  C325     1.0000 0.20240  0.06130  0.68150  Biso   1.000  C
  O66      1.0000 0.21295  0.52957  0.24598  Biso   1.000  O
  F261     1.0000 0.20920  0.58820  0.25230  Biso   1.000  F
  F262     1.0000 0.18420  0.63280  0.22840  Biso   1.000  F
  F263     1.0000 0.18290  0.58290  0.14120  Biso   1.000  F
  F264     1.0000 0.20690  0.53760  0.16550  Biso   1.000  F
  C326     1.0000 0.20360  0.58630  0.22580  Biso   1.000  C
  C327     1.0000 0.19010  0.60920  0.21320  Biso   1.000  C
  C328     1.0000 0.18270  0.60810  0.18340  Biso   1.000  C
  C329     1.0000 0.18890  0.58420  0.16890  Biso   1.000  C
  C330     1.0000 0.20240  0.56130  0.18150  Biso   1.000  C
  O67      1.0000 0.71295  0.02957  0.24598  Biso   1.000  O
  F265     1.0000 0.70920  0.08820  0.25230  Biso   1.000  F
  F266     1.0000 0.68420  0.13280  0.22840  Biso   1.000  F
  F267     1.0000 0.68290  0.08290  0.14120  Biso   1.000  F
  F268     1.0000 0.70690  0.03760  0.16550  Biso   1.000  F
  C331     1.0000 0.70360  0.08630  0.22580  Biso   1.000  C
  C332     1.0000 0.69010  0.10920  0.21320  Biso   1.000  C
  C333     1.0000 0.68270  0.10810  0.18340  Biso   1.000  C
  C334     1.0000 0.68890  0.08420  0.16890  Biso   1.000  C
  C335     1.0000 0.70240  0.06130  0.18150  Biso   1.000  C
  O68      1.0000 0.71295  0.52957  0.74598  Biso   1.000  O
  F269     1.0000 0.70920  0.58820  0.75230  Biso   1.000  F
  F270     1.0000 0.68420  0.63280  0.72840  Biso   1.000  F
  F271     1.0000 0.68290  0.58290  0.64120  Biso   1.000  F
  F272     1.0000 0.70690  0.53760  0.66550  Biso   1.000  F
  C336     1.0000 0.70360  0.58630  0.72580  Biso   1.000  C
  C337     1.0000 0.69010  0.60920  0.71320  Biso   1.000  C
  C338     1.0000 0.68270  0.60810  0.68340  Biso   1.000  C
  C339     1.0000 0.68890  0.58420  0.66890  Biso   1.000  C
  C340     1.0000 0.70240  0.56130  0.68150  Biso   1.000  C
  O69      1.0000 0.78705  0.02957  0.25402  Biso   1.000  O
  F273     1.0000 0.79080  0.08820  0.24770  Biso   1.000  F
  F274     1.0000 0.81580  0.13280  0.27160  Biso   1.000  F
  F275     1.0000 0.81710  0.08290  0.35880  Biso   1.000  F
  F276     1.0000 0.79310  0.03760  0.33450  Biso   1.000  F
  C341     1.0000 0.79640  0.08630  0.27420  Biso   1.000  C
  C342     1.0000 0.80990  0.10920  0.28680  Biso   1.000  C
  C343     1.0000 0.81730  0.10810  0.31660  Biso   1.000  C
  C344     1.0000 0.81110  0.08420  0.33110  Biso   1.000  C
  C345     1.0000 0.79760  0.06130  0.31850  Biso   1.000  C
  O70      1.0000 0.78705  0.52957  0.75402  Biso   1.000  O
  F277     1.0000 0.79080  0.58820  0.74770  Biso   1.000  F
  F278     1.0000 0.81580  0.63280  0.77160  Biso   1.000  F
  F279     1.0000 0.81710  0.58290  0.85880  Biso   1.000  F
  F280     1.0000 0.79310  0.53760  0.83450  Biso   1.000  F
  C346     1.0000 0.79640  0.58630  0.77420  Biso   1.000  C
  C347     1.0000 0.80990  0.60920  0.78680  Biso   1.000  C
  C348     1.0000 0.81730  0.60810  0.81660  Biso   1.000  C
  C349     1.0000 0.81110  0.58420  0.83110  Biso   1.000  C
  C350     1.0000 0.79760  0.56130  0.81850  Biso   1.000  C
  O71      1.0000 0.28705  0.02957  0.75402  Biso   1.000  O
  F281     1.0000 0.29080  0.08820  0.74770  Biso   1.000  F
  F282     1.0000 0.31580  0.13280  0.77160  Biso   1.000  F
  F283     1.0000 0.31710  0.08290  0.85880  Biso   1.000  F
  F284     1.0000 0.29310  0.03760  0.83450  Biso   1.000  F
  C351     1.0000 0.29640  0.08630  0.77420  Biso   1.000  C
  C352     1.0000 0.30990  0.10920  0.78680  Biso   1.000  C
  C353     1.0000 0.31730  0.10810  0.81660  Biso   1.000  C
  C354     1.0000 0.31110  0.08420  0.83110  Biso   1.000  C
  C355     1.0000 0.29760  0.06130  0.81850  Biso   1.000  C
  O72      1.0000 0.28705  0.52957  0.25402  Biso   1.000  O
  F285     1.0000 0.29080  0.58820  0.24770  Biso   1.000  F
  F286     1.0000 0.31580  0.63280  0.27160  Biso   1.000  F
  F287     1.0000 0.31710  0.58290  0.35880  Biso   1.000  F
  F288     1.0000 0.29310  0.53760  0.33450  Biso   1.000  F
  C356     1.0000 0.29640  0.58630  0.27420  Biso   1.000  C
  C357     1.0000 0.30990  0.60920  0.28680  Biso   1.000  C
  C358     1.0000 0.31730  0.60810  0.31660  Biso   1.000  C
  C359     1.0000 0.31110  0.58420  0.33110  Biso   1.000  C
  C360     1.0000 0.29760  0.56130  0.31850  Biso   1.000  C
  O73      1.0000 0.78705  0.97043  0.74598  Biso   1.000  O
  F289     1.0000 0.79080  0.91180  0.75230  Biso   1.000  F
  F290     1.0000 0.81580  0.86720  0.72840  Biso   1.000  F
  F291     1.0000 0.81710  0.91710  0.64120  Biso   1.000  F
  F292     1.0000 0.79310  0.96240  0.66550  Biso   1.000  F
  C361     1.0000 0.79640  0.91370  0.72580  Biso   1.000  C
  C362     1.0000 0.80990  0.89080  0.71320  Biso   1.000  C
  C363     1.0000 0.81730  0.89190  0.68340  Biso   1.000  C
  C364     1.0000 0.81110  0.91580  0.66890  Biso   1.000  C
  C365     1.0000 0.79760  0.93870  0.68150  Biso   1.000  C
  O74      1.0000 0.78705  0.47043  0.24598  Biso   1.000  O
  F293     1.0000 0.79080  0.41180  0.25230  Biso   1.000  F
  F294     1.0000 0.81580  0.36720  0.22840  Biso   1.000  F
  F295     1.0000 0.81710  0.41710  0.14120  Biso   1.000  F
  F296     1.0000 0.79310  0.46240  0.16550  Biso   1.000  F
  C366     1.0000 0.79640  0.41370  0.22580  Biso   1.000  C
  C367     1.0000 0.80990  0.39080  0.21320  Biso   1.000  C
  C368     1.0000 0.81730  0.39190  0.18340  Biso   1.000  C
  C369     1.0000 0.81110  0.41580  0.16890  Biso   1.000  C
  C370     1.0000 0.79760  0.43870  0.18150  Biso   1.000  C
  O75      1.0000 0.28705  0.97043  0.24598  Biso   1.000  O
  F297     1.0000 0.29080  0.91180  0.25230  Biso   1.000  F
  F298     1.0000 0.31580  0.86720  0.22840  Biso   1.000  F
  F299     1.0000 0.31710  0.91710  0.14120  Biso   1.000  F
  F300     1.0000 0.29310  0.96240  0.16550  Biso   1.000  F
  C371     1.0000 0.29640  0.91370  0.22580  Biso   1.000  C
  C372     1.0000 0.30990  0.89080  0.21320  Biso   1.000  C
  C373     1.0000 0.31730  0.89190  0.18340  Biso   1.000  C
  C374     1.0000 0.31110  0.91580  0.16890  Biso   1.000  C
  C375     1.0000 0.29760  0.93870  0.18150  Biso   1.000  C
  O76      1.0000 0.28705  0.47043  0.74598  Biso   1.000  O
  F301     1.0000 0.29080  0.41180  0.75230  Biso   1.000  F
  F302     1.0000 0.31580  0.36720  0.72840  Biso   1.000  F
  F303     1.0000 0.31710  0.41710  0.64120  Biso   1.000  F
  F304     1.0000 0.29310  0.46240  0.66550  Biso   1.000  F
  C376     1.0000 0.29640  0.41370  0.72580  Biso   1.000  C
  C377     1.0000 0.30990  0.39080  0.71320  Biso   1.000  C
  C378     1.0000 0.31730  0.39190  0.68340  Biso   1.000  C
  C379     1.0000 0.31110  0.41580  0.66890  Biso   1.000  C
  C380     1.0000 0.29760  0.43870  0.68150  Biso   1.000  C
  O77      1.0000 0.21295  0.97043  0.25402  Biso   1.000  O
  F305     1.0000 0.20920  0.91180  0.24770  Biso   1.000  F
  F306     1.0000 0.18420  0.86720  0.27160  Biso   1.000  F
  F307     1.0000 0.18290  0.91710  0.35880  Biso   1.000  F
  F308     1.0000 0.20690  0.96240  0.33450  Biso   1.000  F
  C381     1.0000 0.20360  0.91370  0.27420  Biso   1.000  C
  C382     1.0000 0.19010  0.89080  0.28680  Biso   1.000  C
  C383     1.0000 0.18270  0.89190  0.31660  Biso   1.000  C
  C384     1.0000 0.18890  0.91580  0.33110  Biso   1.000  C
  C385     1.0000 0.20240  0.93870  0.31850  Biso   1.000  C
  O78      1.0000 0.21295  0.47043  0.75402  Biso   1.000  O
  F309     1.0000 0.20920  0.41180  0.74770  Biso   1.000  F
  F310     1.0000 0.18420  0.36720  0.77160  Biso   1.000  F
  F311     1.0000 0.18290  0.41710  0.85880  Biso   1.000  F
  F312     1.0000 0.20690  0.46240  0.83450  Biso   1.000  F
  C386     1.0000 0.20360  0.41370  0.77420  Biso   1.000  C
  C387     1.0000 0.19010  0.39080  0.78680  Biso   1.000  C
  C388     1.0000 0.18270  0.39190  0.81660  Biso   1.000  C
  C389     1.0000 0.18890  0.41580  0.83110  Biso   1.000  C
  C390     1.0000 0.20240  0.43870  0.81850  Biso   1.000  C
  O79      1.0000 0.71295  0.97043  0.75402  Biso   1.000  O
  F313     1.0000 0.70920  0.91180  0.74770  Biso   1.000  F
  F314     1.0000 0.68420  0.86720  0.77160  Biso   1.000  F
  F315     1.0000 0.68290  0.91710  0.85880  Biso   1.000  F
  F316     1.0000 0.70690  0.96240  0.83450  Biso   1.000  F
  C391     1.0000 0.70360  0.91370  0.77420  Biso   1.000  C
  C392     1.0000 0.69010  0.89080  0.78680  Biso   1.000  C
  C393     1.0000 0.68270  0.89190  0.81660  Biso   1.000  C
  C394     1.0000 0.68890  0.91580  0.83110  Biso   1.000  C
  C395     1.0000 0.70240  0.93870  0.81850  Biso   1.000  C
  O80      1.0000 0.71295  0.47043  0.25402  Biso   1.000  O
  F317     1.0000 0.70920  0.41180  0.24770  Biso   1.000  F
  F318     1.0000 0.68420  0.36720  0.27160  Biso   1.000  F
  F319     1.0000 0.68290  0.41710  0.35880  Biso   1.000  F
  F320     1.0000 0.70690  0.46240  0.33450  Biso   1.000  F
  C396     1.0000 0.70360  0.41370  0.27420  Biso   1.000  C
  C397     1.0000 0.69010  0.39080  0.28680  Biso   1.000  C
  C398     1.0000 0.68270  0.39190  0.31660  Biso   1.000  C
  C399     1.0000 0.68890  0.41580  0.33110  Biso   1.000  C
  C400     1.0000 0.70240  0.43870  0.31850  Biso   1.000  C
  O81      1.0000 0.02957  0.25402  0.78705  Biso   1.000  O
  F321     1.0000 0.08820  0.24770  0.79080  Biso   1.000  F
  F322     1.0000 0.13280  0.27160  0.81580  Biso   1.000  F
  F323     1.0000 0.08290  0.35880  0.81710  Biso   1.000  F
  F324     1.0000 0.03760  0.33450  0.79310  Biso   1.000  F
  C401     1.0000 0.08630  0.27420  0.79640  Biso   1.000  C
  C402     1.0000 0.10920  0.28680  0.80990  Biso   1.000  C
  C403     1.0000 0.10810  0.31660  0.81730  Biso   1.000  C
  C404     1.0000 0.08420  0.33110  0.81110  Biso   1.000  C
  C405     1.0000 0.06130  0.31850  0.79760  Biso   1.000  C
  O82      1.0000 0.02957  0.75402  0.28705  Biso   1.000  O
  F325     1.0000 0.08820  0.74770  0.29080  Biso   1.000  F
  F326     1.0000 0.13280  0.77160  0.31580  Biso   1.000  F
  F327     1.0000 0.08290  0.85880  0.31710  Biso   1.000  F
  F328     1.0000 0.03760  0.83450  0.29310  Biso   1.000  F
  C406     1.0000 0.08630  0.77420  0.29640  Biso   1.000  C
  C407     1.0000 0.10920  0.78680  0.30990  Biso   1.000  C
  C408     1.0000 0.10810  0.81660  0.31730  Biso   1.000  C
  C409     1.0000 0.08420  0.83110  0.31110  Biso   1.000  C
  C410     1.0000 0.06130  0.81850  0.29760  Biso   1.000  C
  O83      1.0000 0.52957  0.25402  0.28705  Biso   1.000  O
  F329     1.0000 0.58820  0.24770  0.29080  Biso   1.000  F
  F330     1.0000 0.63280  0.27160  0.31580  Biso   1.000  F
  F331     1.0000 0.58290  0.35880  0.31710  Biso   1.000  F
  F332     1.0000 0.53760  0.33450  0.29310  Biso   1.000  F
  C411     1.0000 0.58630  0.27420  0.29640  Biso   1.000  C
  C412     1.0000 0.60920  0.28680  0.30990  Biso   1.000  C
  C413     1.0000 0.60810  0.31660  0.31730  Biso   1.000  C
  C414     1.0000 0.58420  0.33110  0.31110  Biso   1.000  C
  C415     1.0000 0.56130  0.31850  0.29760  Biso   1.000  C
  O84      1.0000 0.52957  0.75402  0.78705  Biso   1.000  O
  F333     1.0000 0.58820  0.74770  0.79080  Biso   1.000  F
  F334     1.0000 0.63280  0.77160  0.81580  Biso   1.000  F
  F335     1.0000 0.58290  0.85880  0.81710  Biso   1.000  F
  F336     1.0000 0.53760  0.83450  0.79310  Biso   1.000  F
  C416     1.0000 0.58630  0.77420  0.79640  Biso   1.000  C
  C417     1.0000 0.60920  0.78680  0.80990  Biso   1.000  C
  C418     1.0000 0.60810  0.81660  0.81730  Biso   1.000  C
  C419     1.0000 0.58420  0.83110  0.81110  Biso   1.000  C
  C420     1.0000 0.56130  0.81850  0.79760  Biso   1.000  C
  O85      1.0000 0.02957  0.74598  0.21295  Biso   1.000  O
  F337     1.0000 0.08820  0.75230  0.20920  Biso   1.000  F
  F338     1.0000 0.13280  0.72840  0.18420  Biso   1.000  F
  F339     1.0000 0.08290  0.64120  0.18290  Biso   1.000  F
  F340     1.0000 0.03760  0.66550  0.20690  Biso   1.000  F
  C421     1.0000 0.08630  0.72580  0.20360  Biso   1.000  C
  C422     1.0000 0.10920  0.71320  0.19010  Biso   1.000  C
  C423     1.0000 0.10810  0.68340  0.18270  Biso   1.000  C
  C424     1.0000 0.08420  0.66890  0.18890  Biso   1.000  C
  C425     1.0000 0.06130  0.68150  0.20240  Biso   1.000  C
  O86      1.0000 0.02957  0.24598  0.71295  Biso   1.000  O
  F341     1.0000 0.08820  0.25230  0.70920  Biso   1.000  F
  F342     1.0000 0.13280  0.22840  0.68420  Biso   1.000  F
  F343     1.0000 0.08290  0.14120  0.68290  Biso   1.000  F
  F344     1.0000 0.03760  0.16550  0.70690  Biso   1.000  F
  C426     1.0000 0.08630  0.22580  0.70360  Biso   1.000  C
  C427     1.0000 0.10920  0.21320  0.69010  Biso   1.000  C
  C428     1.0000 0.10810  0.18340  0.68270  Biso   1.000  C
  C429     1.0000 0.08420  0.16890  0.68890  Biso   1.000  C
  C430     1.0000 0.06130  0.18150  0.70240  Biso   1.000  C
  O87      1.0000 0.52957  0.74598  0.71295  Biso   1.000  O
  F345     1.0000 0.58820  0.75230  0.70920  Biso   1.000  F
  F346     1.0000 0.63280  0.72840  0.68420  Biso   1.000  F
  F347     1.0000 0.58290  0.64120  0.68290  Biso   1.000  F
  F348     1.0000 0.53760  0.66550  0.70690  Biso   1.000  F
  C431     1.0000 0.58630  0.72580  0.70360  Biso   1.000  C
  C432     1.0000 0.60920  0.71320  0.69010  Biso   1.000  C
  C433     1.0000 0.60810  0.68340  0.68270  Biso   1.000  C
  C434     1.0000 0.58420  0.66890  0.68890  Biso   1.000  C
  C435     1.0000 0.56130  0.68150  0.70240  Biso   1.000  C
  O88      1.0000 0.52957  0.24598  0.21295  Biso   1.000  O
  F349     1.0000 0.58820  0.25230  0.20920  Biso   1.000  F
  F350     1.0000 0.63280  0.22840  0.18420  Biso   1.000  F
  F351     1.0000 0.58290  0.14120  0.18290  Biso   1.000  F
  F352     1.0000 0.53760  0.16550  0.20690  Biso   1.000  F
  C436     1.0000 0.58630  0.22580  0.20360  Biso   1.000  C
  C437     1.0000 0.60920  0.21320  0.19010  Biso   1.000  C
  C438     1.0000 0.60810  0.18340  0.18270  Biso   1.000  C
  C439     1.0000 0.58420  0.16890  0.18890  Biso   1.000  C
  C440     1.0000 0.56130  0.18150  0.20240  Biso   1.000  C
  O89      1.0000 0.97043  0.25402  0.21295  Biso   1.000  O
  F353     1.0000 0.91180  0.24770  0.20920  Biso   1.000  F
  F354     1.0000 0.86720  0.27160  0.18420  Biso   1.000  F
  F355     1.0000 0.91710  0.35880  0.18290  Biso   1.000  F
  F356     1.0000 0.96240  0.33450  0.20690  Biso   1.000  F
  C441     1.0000 0.91370  0.27420  0.20360  Biso   1.000  C
  C442     1.0000 0.89080  0.28680  0.19010  Biso   1.000  C
  C443     1.0000 0.89190  0.31660  0.18270  Biso   1.000  C
  C444     1.0000 0.91580  0.33110  0.18890  Biso   1.000  C
  C445     1.0000 0.93870  0.31850  0.20240  Biso   1.000  C
  O90      1.0000 0.97043  0.75402  0.71295  Biso   1.000  O
  F357     1.0000 0.91180  0.74770  0.70920  Biso   1.000  F
  F358     1.0000 0.86720  0.77160  0.68420  Biso   1.000  F
  F359     1.0000 0.91710  0.85880  0.68290  Biso   1.000  F
  F360     1.0000 0.96240  0.83450  0.70690  Biso   1.000  F
  C446     1.0000 0.91370  0.77420  0.70360  Biso   1.000  C
  C447     1.0000 0.89080  0.78680  0.69010  Biso   1.000  C
  C448     1.0000 0.89190  0.81660  0.68270  Biso   1.000  C
  C449     1.0000 0.91580  0.83110  0.68890  Biso   1.000  C
  C450     1.0000 0.93870  0.81850  0.70240  Biso   1.000  C
  O91      1.0000 0.47043  0.25402  0.71295  Biso   1.000  O
  F361     1.0000 0.41180  0.24770  0.70920  Biso   1.000  F
  F362     1.0000 0.36720  0.27160  0.68420  Biso   1.000  F
  F363     1.0000 0.41710  0.35880  0.68290  Biso   1.000  F
  F364     1.0000 0.46240  0.33450  0.70690  Biso   1.000  F
  C451     1.0000 0.41370  0.27420  0.70360  Biso   1.000  C
  C452     1.0000 0.39080  0.28680  0.69010  Biso   1.000  C
  C453     1.0000 0.39190  0.31660  0.68270  Biso   1.000  C
  C454     1.0000 0.41580  0.33110  0.68890  Biso   1.000  C
  C455     1.0000 0.43870  0.31850  0.70240  Biso   1.000  C
  O92      1.0000 0.47043  0.75402  0.21295  Biso   1.000  O
  F365     1.0000 0.41180  0.74770  0.20920  Biso   1.000  F
  F366     1.0000 0.36720  0.77160  0.18420  Biso   1.000  F
  F367     1.0000 0.41710  0.85880  0.18290  Biso   1.000  F
  F368     1.0000 0.46240  0.83450  0.20690  Biso   1.000  F
  C456     1.0000 0.41370  0.77420  0.20360  Biso   1.000  C
  C457     1.0000 0.39080  0.78680  0.19010  Biso   1.000  C
  C458     1.0000 0.39190  0.81660  0.18270  Biso   1.000  C
  C459     1.0000 0.41580  0.83110  0.18890  Biso   1.000  C
  C460     1.0000 0.43870  0.81850  0.20240  Biso   1.000  C
  O93      1.0000 0.97043  0.74598  0.78705  Biso   1.000  O
  F369     1.0000 0.91180  0.75230  0.79080  Biso   1.000  F
  F370     1.0000 0.86720  0.72840  0.81580  Biso   1.000  F
  F371     1.0000 0.91710  0.64120  0.81710  Biso   1.000  F
  F372     1.0000 0.96240  0.66550  0.79310  Biso   1.000  F
  C461     1.0000 0.91370  0.72580  0.79640  Biso   1.000  C
  C462     1.0000 0.89080  0.71320  0.80990  Biso   1.000  C
  C463     1.0000 0.89190  0.68340  0.81730  Biso   1.000  C
  C464     1.0000 0.91580  0.66890  0.81110  Biso   1.000  C
  C465     1.0000 0.93870  0.68150  0.79760  Biso   1.000  C
  O94      1.0000 0.97043  0.24598  0.28705  Biso   1.000  O
  F373     1.0000 0.91180  0.25230  0.29080  Biso   1.000  F
  F374     1.0000 0.86720  0.22840  0.31580  Biso   1.000  F
  F375     1.0000 0.91710  0.14120  0.31710  Biso   1.000  F
  F376     1.0000 0.96240  0.16550  0.29310  Biso   1.000  F
  C466     1.0000 0.91370  0.22580  0.29640  Biso   1.000  C
  C467     1.0000 0.89080  0.21320  0.30990  Biso   1.000  C
  C468     1.0000 0.89190  0.18340  0.31730  Biso   1.000  C
  C469     1.0000 0.91580  0.16890  0.31110  Biso   1.000  C
  C470     1.0000 0.93870  0.18150  0.29760  Biso   1.000  C
  O95      1.0000 0.47043  0.74598  0.28705  Biso   1.000  O
  F377     1.0000 0.41180  0.75230  0.29080  Biso   1.000  F
  F378     1.0000 0.36720  0.72840  0.31580  Biso   1.000  F
  F379     1.0000 0.41710  0.64120  0.31710  Biso   1.000  F
  F380     1.0000 0.46240  0.66550  0.29310  Biso   1.000  F
  C471     1.0000 0.41370  0.72580  0.29640  Biso   1.000  C
  C472     1.0000 0.39080  0.71320  0.30990  Biso   1.000  C
  C473     1.0000 0.39190  0.68340  0.31730  Biso   1.000  C
  C474     1.0000 0.41580  0.66890  0.31110  Biso   1.000  C
  C475     1.0000 0.43870  0.68150  0.29760  Biso   1.000  C
  O96      1.0000 0.47043  0.24598  0.78705  Biso   1.000  O
  F381     1.0000 0.41180  0.25230  0.79080  Biso   1.000  F
  F382     1.0000 0.36720  0.22840  0.81580  Biso   1.000  F
  F383     1.0000 0.41710  0.14120  0.81710  Biso   1.000  F
  F384     1.0000 0.46240  0.16550  0.79310  Biso   1.000  F
  C476     1.0000 0.41370  0.22580  0.79640  Biso   1.000  C
  C477     1.0000 0.39080  0.21320  0.80990  Biso   1.000  C
  C478     1.0000 0.39190  0.18340  0.81730  Biso   1.000  C
  C479     1.0000 0.41580  0.16890  0.81110  Biso   1.000  C
  C480     1.0000 0.43870  0.18150  0.79760  Biso   1.000  C
  O97      1.0000 0.78705  0.74598  0.97043  Biso   1.000  O
  F385     1.0000 0.79080  0.75230  0.91180  Biso   1.000  F
  F386     1.0000 0.81580  0.72840  0.86720  Biso   1.000  F
  F387     1.0000 0.81710  0.64120  0.91710  Biso   1.000  F
  F388     1.0000 0.79310  0.66550  0.96240  Biso   1.000  F
  C481     1.0000 0.79640  0.72580  0.91370  Biso   1.000  C
  C482     1.0000 0.80990  0.71320  0.89080  Biso   1.000  C
  C483     1.0000 0.81110  0.66890  0.91580  Biso   1.000  C
  C484     1.0000 0.79760  0.68150  0.93870  Biso   1.000  C
  O98      1.0000 0.78705  0.24598  0.47043  Biso   1.000  O
  F389     1.0000 0.79080  0.25230  0.41180  Biso   1.000  F
  F390     1.0000 0.81580  0.22840  0.36720  Biso   1.000  F
  F391     1.0000 0.81710  0.14120  0.41710  Biso   1.000  F
  F392     1.0000 0.79310  0.16550  0.46240  Biso   1.000  F
  C485     1.0000 0.79640  0.22580  0.41370  Biso   1.000  C
  C486     1.0000 0.80990  0.21320  0.39080  Biso   1.000  C
  C487     1.0000 0.81110  0.16890  0.41580  Biso   1.000  C
  C488     1.0000 0.79760  0.18150  0.43870  Biso   1.000  C
  O99      1.0000 0.28705  0.74598  0.47043  Biso   1.000  O
  F393     1.0000 0.29080  0.75230  0.41180  Biso   1.000  F
  F394     1.0000 0.31580  0.72840  0.36720  Biso   1.000  F
  F395     1.0000 0.31710  0.64120  0.41710  Biso   1.000  F
  F396     1.0000 0.29310  0.66550  0.46240  Biso   1.000  F
  C489     1.0000 0.29640  0.72580  0.41370  Biso   1.000  C
  C490     1.0000 0.30990  0.71320  0.39080  Biso   1.000  C
  C491     1.0000 0.31110  0.66890  0.41580  Biso   1.000  C
  C492     1.0000 0.29760  0.68150  0.43870  Biso   1.000  C
  O100     1.0000 0.28705  0.24598  0.97043  Biso   1.000  O
  F397     1.0000 0.29080  0.25230  0.91180  Biso   1.000  F
  F398     1.0000 0.31580  0.22840  0.86720  Biso   1.000  F
  F399     1.0000 0.31710  0.14120  0.91710  Biso   1.000  F
  F400     1.0000 0.29310  0.16550  0.96240  Biso   1.000  F
  C493     1.0000 0.29640  0.22580  0.91370  Biso   1.000  C
  C494     1.0000 0.30990  0.21320  0.89080  Biso   1.000  C
  C495     1.0000 0.31110  0.16890  0.91580  Biso   1.000  C
  C496     1.0000 0.29760  0.18150  0.93870  Biso   1.000  C
  O101     1.0000 0.21295  0.25402  0.97043  Biso   1.000  O
  F401     1.0000 0.20920  0.24770  0.91180  Biso   1.000  F
  F402     1.0000 0.18420  0.27160  0.86720  Biso   1.000  F
  F403     1.0000 0.18290  0.35880  0.91710  Biso   1.000  F
  F404     1.0000 0.20690  0.33450  0.96240  Biso   1.000  F
  C497     1.0000 0.20360  0.27420  0.91370  Biso   1.000  C
  C498     1.0000 0.19010  0.28680  0.89080  Biso   1.000  C
  C499     1.0000 0.18890  0.33110  0.91580  Biso   1.000  C
  C500     1.0000 0.20240  0.31850  0.93870  Biso   1.000  C
  O102     1.0000 0.21295  0.75402  0.47043  Biso   1.000  O
  F405     1.0000 0.20920  0.74770  0.41180  Biso   1.000  F
  F406     1.0000 0.18420  0.77160  0.36720  Biso   1.000  F
  F407     1.0000 0.18290  0.85880  0.41710  Biso   1.000  F
  F408     1.0000 0.20690  0.83450  0.46240  Biso   1.000  F
  C501     1.0000 0.20360  0.77420  0.41370  Biso   1.000  C
  C502     1.0000 0.19010  0.78680  0.39080  Biso   1.000  C
  C503     1.0000 0.18890  0.83110  0.41580  Biso   1.000  C
  C504     1.0000 0.20240  0.81850  0.43870  Biso   1.000  C
  O103     1.0000 0.71295  0.25402  0.47043  Biso   1.000  O
  F409     1.0000 0.70920  0.24770  0.41180  Biso   1.000  F
  F410     1.0000 0.68420  0.27160  0.36720  Biso   1.000  F
  F411     1.0000 0.68290  0.35880  0.41710  Biso   1.000  F
  F412     1.0000 0.70690  0.33450  0.46240  Biso   1.000  F
  C505     1.0000 0.70360  0.27420  0.41370  Biso   1.000  C
  C506     1.0000 0.69010  0.28680  0.39080  Biso   1.000  C
  C507     1.0000 0.68890  0.33110  0.41580  Biso   1.000  C
  C508     1.0000 0.70240  0.31850  0.43870  Biso   1.000  C
  O104     1.0000 0.71295  0.75402  0.97043  Biso   1.000  O
  F413     1.0000 0.70920  0.74770  0.91180  Biso   1.000  F
  F414     1.0000 0.68420  0.77160  0.86720  Biso   1.000  F
  F415     1.0000 0.68290  0.85880  0.91710  Biso   1.000  F
  F416     1.0000 0.70690  0.83450  0.96240  Biso   1.000  F
  C509     1.0000 0.70360  0.77420  0.91370  Biso   1.000  C
  C510     1.0000 0.69010  0.78680  0.89080  Biso   1.000  C
  C511     1.0000 0.68890  0.83110  0.91580  Biso   1.000  C
  C512     1.0000 0.70240  0.81850  0.93870  Biso   1.000  C
  O105     1.0000 0.21295  0.74598  0.02957  Biso   1.000  O
  F417     1.0000 0.20920  0.75230  0.08820  Biso   1.000  F
  F418     1.0000 0.18420  0.72840  0.13280  Biso   1.000  F
  F419     1.0000 0.18290  0.64120  0.08290  Biso   1.000  F
  F420     1.0000 0.20690  0.66550  0.03760  Biso   1.000  F
  C513     1.0000 0.20360  0.72580  0.08630  Biso   1.000  C
  C514     1.0000 0.19010  0.71320  0.10920  Biso   1.000  C
  C515     1.0000 0.18890  0.66890  0.08420  Biso   1.000  C
  C516     1.0000 0.20240  0.68150  0.06130  Biso   1.000  C
  O106     1.0000 0.21295  0.24598  0.52957  Biso   1.000  O
  F421     1.0000 0.20920  0.25230  0.58820  Biso   1.000  F
  F422     1.0000 0.18420  0.22840  0.63280  Biso   1.000  F
  F423     1.0000 0.18290  0.14120  0.58290  Biso   1.000  F
  F424     1.0000 0.20690  0.16550  0.53760  Biso   1.000  F
  C517     1.0000 0.20360  0.22580  0.58630  Biso   1.000  C
  C518     1.0000 0.19010  0.21320  0.60920  Biso   1.000  C
  C519     1.0000 0.18890  0.16890  0.58420  Biso   1.000  C
  C520     1.0000 0.20240  0.18150  0.56130  Biso   1.000  C
  O107     1.0000 0.71295  0.74598  0.52957  Biso   1.000  O
  F425     1.0000 0.70920  0.75230  0.58820  Biso   1.000  F
  F426     1.0000 0.68420  0.72840  0.63280  Biso   1.000  F
  F427     1.0000 0.68290  0.64120  0.58290  Biso   1.000  F
  F428     1.0000 0.70690  0.66550  0.53760  Biso   1.000  F
  C521     1.0000 0.70360  0.72580  0.58630  Biso   1.000  C
  C522     1.0000 0.69010  0.71320  0.60920  Biso   1.000  C
  C523     1.0000 0.68890  0.66890  0.58420  Biso   1.000  C
  C524     1.0000 0.70240  0.68150  0.56130  Biso   1.000  C
  O108     1.0000 0.71295  0.24598  0.02957  Biso   1.000  O
  F429     1.0000 0.70920  0.25230  0.08820  Biso   1.000  F
  F430     1.0000 0.68420  0.22840  0.13280  Biso   1.000  F
  F431     1.0000 0.68290  0.14120  0.08290  Biso   1.000  F
  F432     1.0000 0.70690  0.16550  0.03760  Biso   1.000  F
  C525     1.0000 0.70360  0.22580  0.08630  Biso   1.000  C
  C526     1.0000 0.69010  0.21320  0.10920  Biso   1.000  C
  C527     1.0000 0.68890  0.16890  0.08420  Biso   1.000  C
  C528     1.0000 0.70240  0.18150  0.06130  Biso   1.000  C
  O109     1.0000 0.78705  0.25402  0.02957  Biso   1.000  O
  F433     1.0000 0.79080  0.24770  0.08820  Biso   1.000  F
  F434     1.0000 0.81580  0.27160  0.13280  Biso   1.000  F
  F435     1.0000 0.81710  0.35880  0.08290  Biso   1.000  F
  F436     1.0000 0.79310  0.33450  0.03760  Biso   1.000  F
  C529     1.0000 0.79640  0.27420  0.08630  Biso   1.000  C
  C530     1.0000 0.80990  0.28680  0.10920  Biso   1.000  C
  C531     1.0000 0.81110  0.33110  0.08420  Biso   1.000  C
  C532     1.0000 0.79760  0.31850  0.06130  Biso   1.000  C
  O110     1.0000 0.78705  0.75402  0.52957  Biso   1.000  O
  F437     1.0000 0.79080  0.74770  0.58820  Biso   1.000  F
  F438     1.0000 0.81580  0.77160  0.63280  Biso   1.000  F
  F439     1.0000 0.81710  0.85880  0.58290  Biso   1.000  F
  F440     1.0000 0.79310  0.83450  0.53760  Biso   1.000  F
  C533     1.0000 0.79640  0.77420  0.58630  Biso   1.000  C
  C534     1.0000 0.80990  0.78680  0.60920  Biso   1.000  C
  C535     1.0000 0.81110  0.83110  0.58420  Biso   1.000  C
  C536     1.0000 0.79760  0.81850  0.56130  Biso   1.000  C
  O111     1.0000 0.28705  0.25402  0.52957  Biso   1.000  O
  F441     1.0000 0.29080  0.24770  0.58820  Biso   1.000  F
  F442     1.0000 0.31580  0.27160  0.63280  Biso   1.000  F
  F443     1.0000 0.31710  0.35880  0.58290  Biso   1.000  F
  F444     1.0000 0.29310  0.33450  0.53760  Biso   1.000  F
  C537     1.0000 0.29640  0.27420  0.58630  Biso   1.000  C
  C538     1.0000 0.30990  0.28680  0.60920  Biso   1.000  C
  C539     1.0000 0.31110  0.33110  0.58420  Biso   1.000  C
  C540     1.0000 0.29760  0.31850  0.56130  Biso   1.000  C
  O112     1.0000 0.28705  0.75402  0.02957  Biso   1.000  O
  F445     1.0000 0.29080  0.74770  0.08820  Biso   1.000  F
  F446     1.0000 0.31580  0.77160  0.13280  Biso   1.000  F
  F447     1.0000 0.31710  0.85880  0.08290  Biso   1.000  F
  F448     1.0000 0.29310  0.83450  0.03760  Biso   1.000  F
  C541     1.0000 0.29640  0.77420  0.08630  Biso   1.000  C
  C542     1.0000 0.30990  0.78680  0.10920  Biso   1.000  C
  C543     1.0000 0.31110  0.83110  0.08420  Biso   1.000  C
  C544     1.0000 0.29760  0.81850  0.06130  Biso   1.000  C
  O113     1.0000 0.97043  0.78705  0.74598  Biso   1.000  O
  F449     1.0000 0.91180  0.79080  0.75230  Biso   1.000  F
  F450     1.0000 0.86720  0.81580  0.72840  Biso   1.000  F
  F451     1.0000 0.91710  0.81710  0.64120  Biso   1.000  F
  F452     1.0000 0.96240  0.79310  0.66550  Biso   1.000  F
  C545     1.0000 0.91370  0.79640  0.72580  Biso   1.000  C
  C546     1.0000 0.89080  0.80990  0.71320  Biso   1.000  C
  C547     1.0000 0.91580  0.81110  0.66890  Biso   1.000  C
  C548     1.0000 0.93870  0.79760  0.68150  Biso   1.000  C
  O114     1.0000 0.97043  0.28705  0.24598  Biso   1.000  O
  F453     1.0000 0.91180  0.29080  0.25230  Biso   1.000  F
  F454     1.0000 0.86720  0.31580  0.22840  Biso   1.000  F
  F455     1.0000 0.91710  0.31710  0.14120  Biso   1.000  F
  F456     1.0000 0.96240  0.29310  0.16550  Biso   1.000  F
  C549     1.0000 0.91370  0.29640  0.22580  Biso   1.000  C
  C550     1.0000 0.89080  0.30990  0.21320  Biso   1.000  C
  C551     1.0000 0.91580  0.31110  0.16890  Biso   1.000  C
  C552     1.0000 0.93870  0.29760  0.18150  Biso   1.000  C
  O115     1.0000 0.47043  0.78705  0.24598  Biso   1.000  O
  F457     1.0000 0.41180  0.79080  0.25230  Biso   1.000  F
  F458     1.0000 0.36720  0.81580  0.22840  Biso   1.000  F
  F459     1.0000 0.41710  0.81710  0.14120  Biso   1.000  F
  F460     1.0000 0.46240  0.79310  0.16550  Biso   1.000  F
  C553     1.0000 0.41370  0.79640  0.22580  Biso   1.000  C
  C554     1.0000 0.39080  0.80990  0.21320  Biso   1.000  C
  C555     1.0000 0.41580  0.81110  0.16890  Biso   1.000  C
  C556     1.0000 0.43870  0.79760  0.18150  Biso   1.000  C
  O116     1.0000 0.47043  0.28705  0.74598  Biso   1.000  O
  F461     1.0000 0.41180  0.29080  0.75230  Biso   1.000  F
  F462     1.0000 0.36720  0.31580  0.72840  Biso   1.000  F
  F463     1.0000 0.41710  0.31710  0.64120  Biso   1.000  F
  F464     1.0000 0.46240  0.29310  0.66550  Biso   1.000  F
  C557     1.0000 0.41370  0.29640  0.72580  Biso   1.000  C
  C558     1.0000 0.39080  0.30990  0.71320  Biso   1.000  C
  C559     1.0000 0.41580  0.31110  0.66890  Biso   1.000  C
  C560     1.0000 0.43870  0.29760  0.68150  Biso   1.000  C
  O117     1.0000 0.97043  0.21295  0.25402  Biso   1.000  O
  F465     1.0000 0.91180  0.20920  0.24770  Biso   1.000  F
  F466     1.0000 0.86720  0.18420  0.27160  Biso   1.000  F
  F467     1.0000 0.91710  0.18290  0.35880  Biso   1.000  F
  F468     1.0000 0.96240  0.20690  0.33450  Biso   1.000  F
  C561     1.0000 0.91370  0.20360  0.27420  Biso   1.000  C
  C562     1.0000 0.89080  0.19010  0.28680  Biso   1.000  C
  C563     1.0000 0.91580  0.18890  0.33110  Biso   1.000  C
  C564     1.0000 0.93870  0.20240  0.31850  Biso   1.000  C
  O118     1.0000 0.97043  0.71295  0.75402  Biso   1.000  O
  F469     1.0000 0.91180  0.70920  0.74770  Biso   1.000  F
  F470     1.0000 0.86720  0.68420  0.77160  Biso   1.000  F
  F471     1.0000 0.91710  0.68290  0.85880  Biso   1.000  F
  F472     1.0000 0.96240  0.70690  0.83450  Biso   1.000  F
  C565     1.0000 0.91370  0.70360  0.77420  Biso   1.000  C
  C566     1.0000 0.89080  0.69010  0.78680  Biso   1.000  C
  C567     1.0000 0.91580  0.68890  0.83110  Biso   1.000  C
  C568     1.0000 0.93870  0.70240  0.81850  Biso   1.000  C
  O119     1.0000 0.47043  0.21295  0.75402  Biso   1.000  O
  F473     1.0000 0.41180  0.20920  0.74770  Biso   1.000  F
  F474     1.0000 0.36720  0.18420  0.77160  Biso   1.000  F
  F475     1.0000 0.41710  0.18290  0.85880  Biso   1.000  F
  F476     1.0000 0.46240  0.20690  0.83450  Biso   1.000  F
  C569     1.0000 0.41370  0.20360  0.77420  Biso   1.000  C
  C570     1.0000 0.39080  0.19010  0.78680  Biso   1.000  C
  C571     1.0000 0.41580  0.18890  0.83110  Biso   1.000  C
  C572     1.0000 0.43870  0.20240  0.81850  Biso   1.000  C
  O120     1.0000 0.47043  0.71295  0.25402  Biso   1.000  O
  F477     1.0000 0.41180  0.70920  0.24770  Biso   1.000  F
  F478     1.0000 0.36720  0.68420  0.27160  Biso   1.000  F
  F479     1.0000 0.41710  0.68290  0.35880  Biso   1.000  F
  F480     1.0000 0.46240  0.70690  0.33450  Biso   1.000  F
  C573     1.0000 0.41370  0.70360  0.27420  Biso   1.000  C
  C574     1.0000 0.39080  0.69010  0.28680  Biso   1.000  C
  C575     1.0000 0.41580  0.68890  0.33110  Biso   1.000  C
  C576     1.0000 0.43870  0.70240  0.31850  Biso   1.000  C
  O121     1.0000 0.02957  0.21295  0.74598  Biso   1.000  O
  F481     1.0000 0.08820  0.20920  0.75230  Biso   1.000  F
  F482     1.0000 0.13280  0.18420  0.72840  Biso   1.000  F
  F483     1.0000 0.08290  0.18290  0.64120  Biso   1.000  F
  F484     1.0000 0.03760  0.20690  0.66550  Biso   1.000  F
  C577     1.0000 0.08630  0.20360  0.72580  Biso   1.000  C
  C578     1.0000 0.10920  0.19010  0.71320  Biso   1.000  C
  C579     1.0000 0.08420  0.18890  0.66890  Biso   1.000  C
  C580     1.0000 0.06130  0.20240  0.68150  Biso   1.000  C
  O122     1.0000 0.02957  0.71295  0.24598  Biso   1.000  O
  F485     1.0000 0.08820  0.70920  0.25230  Biso   1.000  F
  F486     1.0000 0.13280  0.68420  0.22840  Biso   1.000  F
  F487     1.0000 0.08290  0.68290  0.14120  Biso   1.000  F
  F488     1.0000 0.03760  0.70690  0.16550  Biso   1.000  F
  C581     1.0000 0.08630  0.70360  0.22580  Biso   1.000  C
  C582     1.0000 0.10920  0.69010  0.21320  Biso   1.000  C
  C583     1.0000 0.08420  0.68890  0.16890  Biso   1.000  C
  C584     1.0000 0.06130  0.70240  0.18150  Biso   1.000  C
  O123     1.0000 0.52957  0.21295  0.24598  Biso   1.000  O
  F489     1.0000 0.58820  0.20920  0.25230  Biso   1.000  F
  F490     1.0000 0.63280  0.18420  0.22840  Biso   1.000  F
  F491     1.0000 0.58290  0.18290  0.14120  Biso   1.000  F
  F492     1.0000 0.53760  0.20690  0.16550  Biso   1.000  F
  C585     1.0000 0.58630  0.20360  0.22580  Biso   1.000  C
  C586     1.0000 0.60920  0.19010  0.21320  Biso   1.000  C
  C587     1.0000 0.58420  0.18890  0.16890  Biso   1.000  C
  C588     1.0000 0.56130  0.20240  0.18150  Biso   1.000  C
  O124     1.0000 0.52957  0.71295  0.74598  Biso   1.000  O
  F493     1.0000 0.58820  0.70920  0.75230  Biso   1.000  F
  F494     1.0000 0.63280  0.68420  0.72840  Biso   1.000  F
  F495     1.0000 0.58290  0.68290  0.64120  Biso   1.000  F
  F496     1.0000 0.53760  0.70690  0.66550  Biso   1.000  F
  C589     1.0000 0.58630  0.70360  0.72580  Biso   1.000  C
  C590     1.0000 0.60920  0.69010  0.71320  Biso   1.000  C
  C591     1.0000 0.58420  0.68890  0.66890  Biso   1.000  C
  C592     1.0000 0.56130  0.70240  0.68150  Biso   1.000  C
  O125     1.0000 0.02957  0.78705  0.25402  Biso   1.000  O
  F497     1.0000 0.08820  0.79080  0.24770  Biso   1.000  F
  F498     1.0000 0.13280  0.81580  0.27160  Biso   1.000  F
  F499     1.0000 0.08290  0.81710  0.35880  Biso   1.000  F
  F500     1.0000 0.03760  0.79310  0.33450  Biso   1.000  F
  C593     1.0000 0.08630  0.79640  0.27420  Biso   1.000  C
  C594     1.0000 0.10920  0.80990  0.28680  Biso   1.000  C
  C595     1.0000 0.08420  0.81110  0.33110  Biso   1.000  C
  C596     1.0000 0.06130  0.79760  0.31850  Biso   1.000  C
  O126     1.0000 0.02957  0.28705  0.75402  Biso   1.000  O
  F501     1.0000 0.08820  0.29080  0.74770  Biso   1.000  F
  F502     1.0000 0.13280  0.31580  0.77160  Biso   1.000  F
  F503     1.0000 0.08290  0.31710  0.85880  Biso   1.000  F
  F504     1.0000 0.03760  0.29310  0.83450  Biso   1.000  F
  C597     1.0000 0.08630  0.29640  0.77420  Biso   1.000  C
  C598     1.0000 0.10920  0.30990  0.78680  Biso   1.000  C
  C599     1.0000 0.08420  0.31110  0.83110  Biso   1.000  C
  C600     1.0000 0.06130  0.29760  0.81850  Biso   1.000  C
  O127     1.0000 0.52957  0.78705  0.75402  Biso   1.000  O
  F505     1.0000 0.58820  0.79080  0.74770  Biso   1.000  F
  F506     1.0000 0.63280  0.81580  0.77160  Biso   1.000  F
  F507     1.0000 0.58290  0.81710  0.85880  Biso   1.000  F
  F508     1.0000 0.53760  0.79310  0.83450  Biso   1.000  F
  C601     1.0000 0.58630  0.79640  0.77420  Biso   1.000  C
  C602     1.0000 0.60920  0.80990  0.78680  Biso   1.000  C
  C603     1.0000 0.58420  0.81110  0.83110  Biso   1.000  C
  C604     1.0000 0.56130  0.79760  0.81850  Biso   1.000  C
  O128     1.0000 0.52957  0.28705  0.25402  Biso   1.000  O
  F509     1.0000 0.58820  0.29080  0.24770  Biso   1.000  F
  F510     1.0000 0.63280  0.31580  0.27160  Biso   1.000  F
  F511     1.0000 0.58290  0.31710  0.35880  Biso   1.000  F
  F512     1.0000 0.53760  0.29310  0.33450  Biso   1.000  F
  C605     1.0000 0.58630  0.29640  0.27420  Biso   1.000  C
  C606     1.0000 0.60920  0.30990  0.28680  Biso   1.000  C
  C607     1.0000 0.58420  0.31110  0.33110  Biso   1.000  C
  C608     1.0000 0.56130  0.29760  0.31850  Biso   1.000  C
  O129     1.0000 0.74598  0.97043  0.78705  Biso   1.000  O
  F513     1.0000 0.75230  0.91180  0.79080  Biso   1.000  F
  F514     1.0000 0.72840  0.86720  0.81580  Biso   1.000  F
  F515     1.0000 0.64120  0.91710  0.81710  Biso   1.000  F
  F516     1.0000 0.66550  0.96240  0.79310  Biso   1.000  F
  C609     1.0000 0.72580  0.91370  0.79640  Biso   1.000  C
  C610     1.0000 0.71320  0.89080  0.80990  Biso   1.000  C
  C611     1.0000 0.66890  0.91580  0.81110  Biso   1.000  C
  C612     1.0000 0.68150  0.93870  0.79760  Biso   1.000  C
  O130     1.0000 0.74598  0.47043  0.28705  Biso   1.000  O
  F517     1.0000 0.75230  0.41180  0.29080  Biso   1.000  F
  F518     1.0000 0.72840  0.36720  0.31580  Biso   1.000  F
  F519     1.0000 0.64120  0.41710  0.31710  Biso   1.000  F
  F520     1.0000 0.66550  0.46240  0.29310  Biso   1.000  F
  C613     1.0000 0.72580  0.41370  0.29640  Biso   1.000  C
  C614     1.0000 0.71320  0.39080  0.30990  Biso   1.000  C
  C615     1.0000 0.66890  0.41580  0.31110  Biso   1.000  C
  C616     1.0000 0.68150  0.43870  0.29760  Biso   1.000  C
  O131     1.0000 0.24598  0.97043  0.28705  Biso   1.000  O
  F521     1.0000 0.25230  0.91180  0.29080  Biso   1.000  F
  F522     1.0000 0.22840  0.86720  0.31580  Biso   1.000  F
  F523     1.0000 0.14120  0.91710  0.31710  Biso   1.000  F
  F524     1.0000 0.16550  0.96240  0.29310  Biso   1.000  F
  C617     1.0000 0.22580  0.91370  0.29640  Biso   1.000  C
  C618     1.0000 0.21320  0.89080  0.30990  Biso   1.000  C
  C619     1.0000 0.16890  0.91580  0.31110  Biso   1.000  C
  C620     1.0000 0.18150  0.93870  0.29760  Biso   1.000  C
  O132     1.0000 0.24598  0.47043  0.78705  Biso   1.000  O
  F525     1.0000 0.25230  0.41180  0.79080  Biso   1.000  F
  F526     1.0000 0.22840  0.36720  0.81580  Biso   1.000  F
  F527     1.0000 0.14120  0.41710  0.81710  Biso   1.000  F
  F528     1.0000 0.16550  0.46240  0.79310  Biso   1.000  F
  C621     1.0000 0.22580  0.41370  0.79640  Biso   1.000  C
  C622     1.0000 0.21320  0.39080  0.80990  Biso   1.000  C
  C623     1.0000 0.16890  0.41580  0.81110  Biso   1.000  C
  C624     1.0000 0.18150  0.43870  0.79760  Biso   1.000  C
  O133     1.0000 0.25402  0.97043  0.21295  Biso   1.000  O
  F529     1.0000 0.24770  0.91180  0.20920  Biso   1.000  F
  F530     1.0000 0.27160  0.86720  0.18420  Biso   1.000  F
  F531     1.0000 0.35880  0.91710  0.18290  Biso   1.000  F
  F532     1.0000 0.33450  0.96240  0.20690  Biso   1.000  F
  C625     1.0000 0.27420  0.91370  0.20360  Biso   1.000  C
  C626     1.0000 0.28680  0.89080  0.19010  Biso   1.000  C
  C627     1.0000 0.33110  0.91580  0.18890  Biso   1.000  C
  C628     1.0000 0.31850  0.93870  0.20240  Biso   1.000  C
  O134     1.0000 0.25402  0.47043  0.71295  Biso   1.000  O
  F533     1.0000 0.24770  0.41180  0.70920  Biso   1.000  F
  F534     1.0000 0.27160  0.36720  0.68420  Biso   1.000  F
  F535     1.0000 0.35880  0.41710  0.68290  Biso   1.000  F
  F536     1.0000 0.33450  0.46240  0.70690  Biso   1.000  F
  C629     1.0000 0.27420  0.41370  0.70360  Biso   1.000  C
  C630     1.0000 0.28680  0.39080  0.69010  Biso   1.000  C
  C631     1.0000 0.33110  0.41580  0.68890  Biso   1.000  C
  C632     1.0000 0.31850  0.43870  0.70240  Biso   1.000  C
  O135     1.0000 0.75402  0.97043  0.71295  Biso   1.000  O
  F537     1.0000 0.74770  0.91180  0.70920  Biso   1.000  F
  F538     1.0000 0.77160  0.86720  0.68420  Biso   1.000  F
  F539     1.0000 0.85880  0.91710  0.68290  Biso   1.000  F
  F540     1.0000 0.83450  0.96240  0.70690  Biso   1.000  F
  C633     1.0000 0.77420  0.91370  0.70360  Biso   1.000  C
  C634     1.0000 0.78680  0.89080  0.69010  Biso   1.000  C
  C635     1.0000 0.83110  0.91580  0.68890  Biso   1.000  C
  C636     1.0000 0.81850  0.93870  0.70240  Biso   1.000  C
  O136     1.0000 0.75402  0.47043  0.21295  Biso   1.000  O
  F541     1.0000 0.74770  0.41180  0.20920  Biso   1.000  F
  F542     1.0000 0.77160  0.36720  0.18420  Biso   1.000  F
  F543     1.0000 0.85880  0.41710  0.18290  Biso   1.000  F
  F544     1.0000 0.83450  0.46240  0.20690  Biso   1.000  F
  C637     1.0000 0.77420  0.41370  0.20360  Biso   1.000  C
  C638     1.0000 0.78680  0.39080  0.19010  Biso   1.000  C
  C639     1.0000 0.83110  0.41580  0.18890  Biso   1.000  C
  C640     1.0000 0.81850  0.43870  0.20240  Biso   1.000  C
  O137     1.0000 0.74598  0.02957  0.21295  Biso   1.000  O
  F545     1.0000 0.75230  0.08820  0.20920  Biso   1.000  F
  F546     1.0000 0.72840  0.13280  0.18420  Biso   1.000  F
  F547     1.0000 0.64120  0.08290  0.18290  Biso   1.000  F
  F548     1.0000 0.66550  0.03760  0.20690  Biso   1.000  F
  C641     1.0000 0.72580  0.08630  0.20360  Biso   1.000  C
  C642     1.0000 0.71320  0.10920  0.19010  Biso   1.000  C
  C643     1.0000 0.66890  0.08420  0.18890  Biso   1.000  C
  C644     1.0000 0.68150  0.06130  0.20240  Biso   1.000  C
  O138     1.0000 0.74598  0.52957  0.71295  Biso   1.000  O
  F549     1.0000 0.75230  0.58820  0.70920  Biso   1.000  F
  F550     1.0000 0.72840  0.63280  0.68420  Biso   1.000  F
  F551     1.0000 0.64120  0.58290  0.68290  Biso   1.000  F
  F552     1.0000 0.66550  0.53760  0.70690  Biso   1.000  F
  C645     1.0000 0.72580  0.58630  0.70360  Biso   1.000  C
  C646     1.0000 0.71320  0.60920  0.69010  Biso   1.000  C
  C647     1.0000 0.66890  0.58420  0.68890  Biso   1.000  C
  C648     1.0000 0.68150  0.56130  0.70240  Biso   1.000  C
  O139     1.0000 0.24598  0.02957  0.71295  Biso   1.000  O
  F553     1.0000 0.25230  0.08820  0.70920  Biso   1.000  F
  F554     1.0000 0.22840  0.13280  0.68420  Biso   1.000  F
  F555     1.0000 0.14120  0.08290  0.68290  Biso   1.000  F
  F556     1.0000 0.16550  0.03760  0.70690  Biso   1.000  F
  C649     1.0000 0.22580  0.08630  0.70360  Biso   1.000  C
  C650     1.0000 0.21320  0.10920  0.69010  Biso   1.000  C
  C651     1.0000 0.16890  0.08420  0.68890  Biso   1.000  C
  C652     1.0000 0.18150  0.06130  0.70240  Biso   1.000  C
  O140     1.0000 0.24598  0.52957  0.21295  Biso   1.000  O
  F557     1.0000 0.25230  0.58820  0.20920  Biso   1.000  F
  F558     1.0000 0.22840  0.63280  0.18420  Biso   1.000  F
  F559     1.0000 0.14120  0.58290  0.18290  Biso   1.000  F
  F560     1.0000 0.16550  0.53760  0.20690  Biso   1.000  F
  C653     1.0000 0.22580  0.58630  0.20360  Biso   1.000  C
  C654     1.0000 0.21320  0.60920  0.19010  Biso   1.000  C
  C655     1.0000 0.16890  0.58420  0.18890  Biso   1.000  C
  C656     1.0000 0.18150  0.56130  0.20240  Biso   1.000  C
  O141     1.0000 0.25402  0.02957  0.78705  Biso   1.000  O
  F561     1.0000 0.24770  0.08820  0.79080  Biso   1.000  F
  F562     1.0000 0.27160  0.13280  0.81580  Biso   1.000  F
  F563     1.0000 0.35880  0.08290  0.81710  Biso   1.000  F
  F564     1.0000 0.33450  0.03760  0.79310  Biso   1.000  F
  C657     1.0000 0.27420  0.08630  0.79640  Biso   1.000  C
  C658     1.0000 0.28680  0.10920  0.80990  Biso   1.000  C
  C659     1.0000 0.33110  0.08420  0.81110  Biso   1.000  C
  C660     1.0000 0.31850  0.06130  0.79760  Biso   1.000  C
  O142     1.0000 0.25402  0.52957  0.28705  Biso   1.000  O
  F565     1.0000 0.24770  0.58820  0.29080  Biso   1.000  F
  F566     1.0000 0.27160  0.63280  0.31580  Biso   1.000  F
  F567     1.0000 0.35880  0.58290  0.31710  Biso   1.000  F
  F568     1.0000 0.33450  0.53760  0.29310  Biso   1.000  F
  C661     1.0000 0.27420  0.58630  0.29640  Biso   1.000  C
  C662     1.0000 0.28680  0.60920  0.30990  Biso   1.000  C
  C663     1.0000 0.33110  0.58420  0.31110  Biso   1.000  C
  C664     1.0000 0.31850  0.56130  0.29760  Biso   1.000  C
  O143     1.0000 0.75402  0.02957  0.28705  Biso   1.000  O
  F569     1.0000 0.74770  0.08820  0.29080  Biso   1.000  F
  F570     1.0000 0.77160  0.13280  0.31580  Biso   1.000  F
  F571     1.0000 0.85880  0.08290  0.31710  Biso   1.000  F
  F572     1.0000 0.83450  0.03760  0.29310  Biso   1.000  F
  C665     1.0000 0.77420  0.08630  0.29640  Biso   1.000  C
  C666     1.0000 0.78680  0.10920  0.30990  Biso   1.000  C
  C667     1.0000 0.83110  0.08420  0.31110  Biso   1.000  C
  C668     1.0000 0.81850  0.06130  0.29760  Biso   1.000  C
  O144     1.0000 0.75402  0.52957  0.78705  Biso   1.000  O
  F573     1.0000 0.74770  0.58820  0.79080  Biso   1.000  F
  F574     1.0000 0.77160  0.63280  0.81580  Biso   1.000  F
  F575     1.0000 0.85880  0.58290  0.81710  Biso   1.000  F
  F576     1.0000 0.83450  0.53760  0.79310  Biso   1.000  F
  C669     1.0000 0.77420  0.58630  0.79640  Biso   1.000  C
  C670     1.0000 0.78680  0.60920  0.80990  Biso   1.000  C
  C671     1.0000 0.83110  0.58420  0.81110  Biso   1.000  C
  C672     1.0000 0.81850  0.56130  0.79760  Biso   1.000  C
  O145     1.0000 0.74598  0.78705  0.02957  Biso   1.000  O
  F577     1.0000 0.75230  0.79080  0.08820  Biso   1.000  F
  F578     1.0000 0.72840  0.81580  0.13280  Biso   1.000  F
  F579     1.0000 0.64120  0.81710  0.08290  Biso   1.000  F
  F580     1.0000 0.66550  0.79310  0.03760  Biso   1.000  F
  C673     1.0000 0.72580  0.79640  0.08630  Biso   1.000  C
  C674     1.0000 0.71320  0.80990  0.10920  Biso   1.000  C
  C675     1.0000 0.66890  0.81110  0.08420  Biso   1.000  C
  C676     1.0000 0.68150  0.79760  0.06130  Biso   1.000  C
  O146     1.0000 0.74598  0.28705  0.52957  Biso   1.000  O
  F581     1.0000 0.75230  0.29080  0.58820  Biso   1.000  F
  F582     1.0000 0.72840  0.31580  0.63280  Biso   1.000  F
  F583     1.0000 0.64120  0.31710  0.58290  Biso   1.000  F
  F584     1.0000 0.66550  0.29310  0.53760  Biso   1.000  F
  C677     1.0000 0.72580  0.29640  0.58630  Biso   1.000  C
  C678     1.0000 0.71320  0.30990  0.60920  Biso   1.000  C
  C679     1.0000 0.66890  0.31110  0.58420  Biso   1.000  C
  C680     1.0000 0.68150  0.29760  0.56130  Biso   1.000  C
  O147     1.0000 0.24598  0.78705  0.52957  Biso   1.000  O
  F585     1.0000 0.25230  0.79080  0.58820  Biso   1.000  F
  F586     1.0000 0.22840  0.81580  0.63280  Biso   1.000  F
  F587     1.0000 0.14120  0.81710  0.58290  Biso   1.000  F
  F588     1.0000 0.16550  0.79310  0.53760  Biso   1.000  F
  C681     1.0000 0.22580  0.79640  0.58630  Biso   1.000  C
  C682     1.0000 0.21320  0.80990  0.60920  Biso   1.000  C
  C683     1.0000 0.16890  0.81110  0.58420  Biso   1.000  C
  C684     1.0000 0.18150  0.79760  0.56130  Biso   1.000  C
  O148     1.0000 0.24598  0.28705  0.02957  Biso   1.000  O
  F589     1.0000 0.25230  0.29080  0.08820  Biso   1.000  F
  F590     1.0000 0.22840  0.31580  0.13280  Biso   1.000  F
  F591     1.0000 0.14120  0.31710  0.08290  Biso   1.000  F
  F592     1.0000 0.16550  0.29310  0.03760  Biso   1.000  F
  C685     1.0000 0.22580  0.29640  0.08630  Biso   1.000  C
  C686     1.0000 0.21320  0.30990  0.10920  Biso   1.000  C
  C687     1.0000 0.16890  0.31110  0.08420  Biso   1.000  C
  C688     1.0000 0.18150  0.29760  0.06130  Biso   1.000  C
  O149     1.0000 0.25402  0.21295  0.02957  Biso   1.000  O
  F593     1.0000 0.24770  0.20920  0.08820  Biso   1.000  F
  F594     1.0000 0.27160  0.18420  0.13280  Biso   1.000  F
  F595     1.0000 0.35880  0.18290  0.08290  Biso   1.000  F
  F596     1.0000 0.33450  0.20690  0.03760  Biso   1.000  F
  C689     1.0000 0.27420  0.20360  0.08630  Biso   1.000  C
  C690     1.0000 0.28680  0.19010  0.10920  Biso   1.000  C
  C691     1.0000 0.33110  0.18890  0.08420  Biso   1.000  C
  C692     1.0000 0.31850  0.20240  0.06130  Biso   1.000  C
  O150     1.0000 0.25402  0.71295  0.52957  Biso   1.000  O
  F597     1.0000 0.24770  0.70920  0.58820  Biso   1.000  F
  F598     1.0000 0.27160  0.68420  0.63280  Biso   1.000  F
  F599     1.0000 0.35880  0.68290  0.58290  Biso   1.000  F
  F600     1.0000 0.33450  0.70690  0.53760  Biso   1.000  F
  C693     1.0000 0.27420  0.70360  0.58630  Biso   1.000  C
  C694     1.0000 0.28680  0.69010  0.60920  Biso   1.000  C
  C695     1.0000 0.33110  0.68890  0.58420  Biso   1.000  C
  C696     1.0000 0.31850  0.70240  0.56130  Biso   1.000  C
  O151     1.0000 0.75402  0.21295  0.52957  Biso   1.000  O
  F601     1.0000 0.74770  0.20920  0.58820  Biso   1.000  F
  F602     1.0000 0.77160  0.18420  0.63280  Biso   1.000  F
  F603     1.0000 0.85880  0.18290  0.58290  Biso   1.000  F
  F604     1.0000 0.83450  0.20690  0.53760  Biso   1.000  F
  C697     1.0000 0.77420  0.20360  0.58630  Biso   1.000  C
  C698     1.0000 0.78680  0.19010  0.60920  Biso   1.000  C
  C699     1.0000 0.83110  0.18890  0.58420  Biso   1.000  C
  C700     1.0000 0.81850  0.20240  0.56130  Biso   1.000  C
  O152     1.0000 0.75402  0.71295  0.02957  Biso   1.000  O
  F605     1.0000 0.74770  0.70920  0.08820  Biso   1.000  F
  F606     1.0000 0.77160  0.68420  0.13280  Biso   1.000  F
  F607     1.0000 0.85880  0.68290  0.08290  Biso   1.000  F
  F608     1.0000 0.83450  0.70690  0.03760  Biso   1.000  F
  C701     1.0000 0.77420  0.70360  0.08630  Biso   1.000  C
  C702     1.0000 0.78680  0.69010  0.10920  Biso   1.000  C
  C703     1.0000 0.83110  0.68890  0.08420  Biso   1.000  C
  C704     1.0000 0.81850  0.70240  0.06130  Biso   1.000  C
  O153     1.0000 0.74598  0.21295  0.97043  Biso   1.000  O
  F609     1.0000 0.75230  0.20920  0.91180  Biso   1.000  F
  F610     1.0000 0.72840  0.18420  0.86720  Biso   1.000  F
  F611     1.0000 0.64120  0.18290  0.91710  Biso   1.000  F
  F612     1.0000 0.66550  0.20690  0.96240  Biso   1.000  F
  C705     1.0000 0.72580  0.20360  0.91370  Biso   1.000  C
  C706     1.0000 0.71320  0.19010  0.89080  Biso   1.000  C
  C707     1.0000 0.66890  0.18890  0.91580  Biso   1.000  C
  C708     1.0000 0.68150  0.20240  0.93870  Biso   1.000  C
  O154     1.0000 0.74598  0.71295  0.47043  Biso   1.000  O
  F613     1.0000 0.75230  0.70920  0.41180  Biso   1.000  F
  F614     1.0000 0.72840  0.68420  0.36720  Biso   1.000  F
  F615     1.0000 0.64120  0.68290  0.41710  Biso   1.000  F
  F616     1.0000 0.66550  0.70690  0.46240  Biso   1.000  F
  C709     1.0000 0.72580  0.70360  0.41370  Biso   1.000  C
  C710     1.0000 0.71320  0.69010  0.39080  Biso   1.000  C
  C711     1.0000 0.66890  0.68890  0.41580  Biso   1.000  C
  C712     1.0000 0.68150  0.70240  0.43870  Biso   1.000  C
  O155     1.0000 0.24598  0.21295  0.47043  Biso   1.000  O
  F617     1.0000 0.25230  0.20920  0.41180  Biso   1.000  F
  F618     1.0000 0.22840  0.18420  0.36720  Biso   1.000  F
  F619     1.0000 0.14120  0.18290  0.41710  Biso   1.000  F
  F620     1.0000 0.16550  0.20690  0.46240  Biso   1.000  F
  C713     1.0000 0.22580  0.20360  0.41370  Biso   1.000  C
  C714     1.0000 0.21320  0.19010  0.39080  Biso   1.000  C
  C715     1.0000 0.16890  0.18890  0.41580  Biso   1.000  C
  C716     1.0000 0.18150  0.20240  0.43870  Biso   1.000  C
  O156     1.0000 0.24598  0.71295  0.97043  Biso   1.000  O
  F621     1.0000 0.25230  0.70920  0.91180  Biso   1.000  F
  F622     1.0000 0.22840  0.68420  0.86720  Biso   1.000  F
  F623     1.0000 0.14120  0.68290  0.91710  Biso   1.000  F
  F624     1.0000 0.16550  0.70690  0.96240  Biso   1.000  F
  C717     1.0000 0.22580  0.70360  0.91370  Biso   1.000  C
  C718     1.0000 0.21320  0.69010  0.89080  Biso   1.000  C
  C719     1.0000 0.16890  0.68890  0.91580  Biso   1.000  C
  C720     1.0000 0.18150  0.70240  0.93870  Biso   1.000  C
  O157     1.0000 0.25402  0.78705  0.97043  Biso   1.000  O
  F625     1.0000 0.24770  0.79080  0.91180  Biso   1.000  F
  F626     1.0000 0.27160  0.81580  0.86720  Biso   1.000  F
  F627     1.0000 0.35880  0.81710  0.91710  Biso   1.000  F
  F628     1.0000 0.33450  0.79310  0.96240  Biso   1.000  F
  C721     1.0000 0.27420  0.79640  0.91370  Biso   1.000  C
  C722     1.0000 0.28680  0.80990  0.89080  Biso   1.000  C
  C723     1.0000 0.33110  0.81110  0.91580  Biso   1.000  C
  C724     1.0000 0.31850  0.79760  0.93870  Biso   1.000  C
  O158     1.0000 0.25402  0.28705  0.47043  Biso   1.000  O
  F629     1.0000 0.24770  0.29080  0.41180  Biso   1.000  F
  F630     1.0000 0.27160  0.31580  0.36720  Biso   1.000  F
  F631     1.0000 0.35880  0.31710  0.41710  Biso   1.000  F
  F632     1.0000 0.33450  0.29310  0.46240  Biso   1.000  F
  C725     1.0000 0.27420  0.29640  0.41370  Biso   1.000  C
  C726     1.0000 0.28680  0.30990  0.39080  Biso   1.000  C
  C727     1.0000 0.33110  0.31110  0.41580  Biso   1.000  C
  C728     1.0000 0.31850  0.29760  0.43870  Biso   1.000  C
  O159     1.0000 0.75402  0.78705  0.47043  Biso   1.000  O
  F633     1.0000 0.74770  0.79080  0.41180  Biso   1.000  F
  F634     1.0000 0.77160  0.81580  0.36720  Biso   1.000  F
  F635     1.0000 0.85880  0.81710  0.41710  Biso   1.000  F
  F636     1.0000 0.83450  0.79310  0.46240  Biso   1.000  F
  C729     1.0000 0.77420  0.79640  0.41370  Biso   1.000  C
  C730     1.0000 0.78680  0.80990  0.39080  Biso   1.000  C
  C731     1.0000 0.83110  0.81110  0.41580  Biso   1.000  C
  C732     1.0000 0.81850  0.79760  0.43870  Biso   1.000  C
  O160     1.0000 0.75402  0.28705  0.97043  Biso   1.000  O
  F637     1.0000 0.74770  0.29080  0.91180  Biso   1.000  F
  F638     1.0000 0.77160  0.31580  0.86720  Biso   1.000  F
  F639     1.0000 0.85880  0.31710  0.91710  Biso   1.000  F
  F640     1.0000 0.83450  0.29310  0.96240  Biso   1.000  F
  C733     1.0000 0.77420  0.29640  0.91370  Biso   1.000  C
  C734     1.0000 0.78680  0.30990  0.89080  Biso   1.000  C
  C735     1.0000 0.83110  0.31110  0.91580  Biso   1.000  C
  C736     1.0000 0.81850  0.29760  0.93870  Biso   1.000  C
  O161     1.0000 0.78705  0.97043  0.25402  Biso   1.000  O
  F641     1.0000 0.79080  0.91180  0.24770  Biso   1.000  F
  F642     1.0000 0.81580  0.86720  0.27160  Biso   1.000  F
  F643     1.0000 0.81710  0.91710  0.35880  Biso   1.000  F
  F644     1.0000 0.79310  0.96240  0.33450  Biso   1.000  F
  C737     1.0000 0.79640  0.91370  0.27420  Biso   1.000  C
  C738     1.0000 0.80990  0.89080  0.28680  Biso   1.000  C
  C739     1.0000 0.81110  0.91580  0.33110  Biso   1.000  C
  C740     1.0000 0.79760  0.93870  0.31850  Biso   1.000  C
  O162     1.0000 0.78705  0.47043  0.75402  Biso   1.000  O
  F645     1.0000 0.79080  0.41180  0.74770  Biso   1.000  F
  F646     1.0000 0.81580  0.36720  0.77160  Biso   1.000  F
  F647     1.0000 0.81710  0.41710  0.85880  Biso   1.000  F
  F648     1.0000 0.79310  0.46240  0.83450  Biso   1.000  F
  C741     1.0000 0.79640  0.41370  0.77420  Biso   1.000  C
  C742     1.0000 0.80990  0.39080  0.78680  Biso   1.000  C
  C743     1.0000 0.81110  0.41580  0.83110  Biso   1.000  C
  C744     1.0000 0.79760  0.43870  0.81850  Biso   1.000  C
  O163     1.0000 0.28705  0.97043  0.75402  Biso   1.000  O
  F649     1.0000 0.29080  0.91180  0.74770  Biso   1.000  F
  F650     1.0000 0.31580  0.86720  0.77160  Biso   1.000  F
  F651     1.0000 0.31710  0.91710  0.85880  Biso   1.000  F
  F652     1.0000 0.29310  0.96240  0.83450  Biso   1.000  F
  C745     1.0000 0.29640  0.91370  0.77420  Biso   1.000  C
  C746     1.0000 0.30990  0.89080  0.78680  Biso   1.000  C
  C747     1.0000 0.31110  0.91580  0.83110  Biso   1.000  C
  C748     1.0000 0.29760  0.93870  0.81850  Biso   1.000  C
  O164     1.0000 0.28705  0.47043  0.25402  Biso   1.000  O
  F653     1.0000 0.29080  0.41180  0.24770  Biso   1.000  F
  F654     1.0000 0.31580  0.36720  0.27160  Biso   1.000  F
  F655     1.0000 0.31710  0.41710  0.35880  Biso   1.000  F
  F656     1.0000 0.29310  0.46240  0.33450  Biso   1.000  F
  C749     1.0000 0.29640  0.41370  0.27420  Biso   1.000  C
  C750     1.0000 0.30990  0.39080  0.28680  Biso   1.000  C
  C751     1.0000 0.31110  0.41580  0.33110  Biso   1.000  C
  C752     1.0000 0.29760  0.43870  0.31850  Biso   1.000  C
  O165     1.0000 0.21295  0.97043  0.74598  Biso   1.000  O
  F657     1.0000 0.20920  0.91180  0.75230  Biso   1.000  F
  F658     1.0000 0.18420  0.86720  0.72840  Biso   1.000  F
  F659     1.0000 0.18290  0.91710  0.64120  Biso   1.000  F
  F660     1.0000 0.20690  0.96240  0.66550  Biso   1.000  F
  C753     1.0000 0.20360  0.91370  0.72580  Biso   1.000  C
  C754     1.0000 0.19010  0.89080  0.71320  Biso   1.000  C
  C755     1.0000 0.18890  0.91580  0.66890  Biso   1.000  C
  C756     1.0000 0.20240  0.93870  0.68150  Biso   1.000  C
  O166     1.0000 0.21295  0.47043  0.24598  Biso   1.000  O
  F661     1.0000 0.20920  0.41180  0.25230  Biso   1.000  F
  F662     1.0000 0.18420  0.36720  0.22840  Biso   1.000  F
  F663     1.0000 0.18290  0.41710  0.14120  Biso   1.000  F
  F664     1.0000 0.20690  0.46240  0.16550  Biso   1.000  F
  C757     1.0000 0.20360  0.41370  0.22580  Biso   1.000  C
  C758     1.0000 0.19010  0.39080  0.21320  Biso   1.000  C
  C759     1.0000 0.18890  0.41580  0.16890  Biso   1.000  C
  C760     1.0000 0.20240  0.43870  0.18150  Biso   1.000  C
  O167     1.0000 0.71295  0.97043  0.24598  Biso   1.000  O
  F665     1.0000 0.70920  0.91180  0.25230  Biso   1.000  F
  F666     1.0000 0.68420  0.86720  0.22840  Biso   1.000  F
  F667     1.0000 0.68290  0.91710  0.14120  Biso   1.000  F
  F668     1.0000 0.70690  0.96240  0.16550  Biso   1.000  F
  C761     1.0000 0.70360  0.91370  0.22580  Biso   1.000  C
  C762     1.0000 0.69010  0.89080  0.21320  Biso   1.000  C
  C763     1.0000 0.68890  0.91580  0.16890  Biso   1.000  C
  C764     1.0000 0.70240  0.93870  0.18150  Biso   1.000  C
  O168     1.0000 0.71295  0.47043  0.74598  Biso   1.000  O
  F669     1.0000 0.70920  0.41180  0.75230  Biso   1.000  F
  F670     1.0000 0.68420  0.36720  0.72840  Biso   1.000  F
  F671     1.0000 0.68290  0.41710  0.64120  Biso   1.000  F
  F672     1.0000 0.70690  0.46240  0.66550  Biso   1.000  F
  C765     1.0000 0.70360  0.41370  0.72580  Biso   1.000  C
  C766     1.0000 0.69010  0.39080  0.71320  Biso   1.000  C
  C767     1.0000 0.68890  0.41580  0.66890  Biso   1.000  C
  C768     1.0000 0.70240  0.43870  0.68150  Biso   1.000  C
  O169     1.0000 0.21295  0.02957  0.25402  Biso   1.000  O
  F673     1.0000 0.20920  0.08820  0.24770  Biso   1.000  F
  F674     1.0000 0.18420  0.13280  0.27160  Biso   1.000  F
  F675     1.0000 0.18290  0.08290  0.35880  Biso   1.000  F
  F676     1.0000 0.20690  0.03760  0.33450  Biso   1.000  F
  C769     1.0000 0.20360  0.08630  0.27420  Biso   1.000  C
  C770     1.0000 0.19010  0.10920  0.28680  Biso   1.000  C
  C771     1.0000 0.18890  0.08420  0.33110  Biso   1.000  C
  C772     1.0000 0.20240  0.06130  0.31850  Biso   1.000  C
  O170     1.0000 0.21295  0.52957  0.75402  Biso   1.000  O
  F677     1.0000 0.20920  0.58820  0.74770  Biso   1.000  F
  F678     1.0000 0.18420  0.63280  0.77160  Biso   1.000  F
  F679     1.0000 0.18290  0.58290  0.85880  Biso   1.000  F
  F680     1.0000 0.20690  0.53760  0.83450  Biso   1.000  F
  C773     1.0000 0.20360  0.58630  0.77420  Biso   1.000  C
  C774     1.0000 0.19010  0.60920  0.78680  Biso   1.000  C
  C775     1.0000 0.18890  0.58420  0.83110  Biso   1.000  C
  C776     1.0000 0.20240  0.56130  0.81850  Biso   1.000  C
  O171     1.0000 0.71295  0.02957  0.75402  Biso   1.000  O
  F681     1.0000 0.70920  0.08820  0.74770  Biso   1.000  F
  F682     1.0000 0.68420  0.13280  0.77160  Biso   1.000  F
  F683     1.0000 0.68290  0.08290  0.85880  Biso   1.000  F
  F684     1.0000 0.70690  0.03760  0.83450  Biso   1.000  F
  C777     1.0000 0.70360  0.08630  0.77420  Biso   1.000  C
  C778     1.0000 0.69010  0.10920  0.78680  Biso   1.000  C
  C779     1.0000 0.68890  0.08420  0.83110  Biso   1.000  C
  C780     1.0000 0.70240  0.06130  0.81850  Biso   1.000  C
  O172     1.0000 0.71295  0.52957  0.25402  Biso   1.000  O
  F685     1.0000 0.70920  0.58820  0.24770  Biso   1.000  F
  F686     1.0000 0.68420  0.63280  0.27160  Biso   1.000  F
  F687     1.0000 0.68290  0.58290  0.35880  Biso   1.000  F
  F688     1.0000 0.70690  0.53760  0.33450  Biso   1.000  F
  C781     1.0000 0.70360  0.58630  0.27420  Biso   1.000  C
  C782     1.0000 0.69010  0.60920  0.28680  Biso   1.000  C
  C783     1.0000 0.68890  0.58420  0.33110  Biso   1.000  C
  C784     1.0000 0.70240  0.56130  0.31850  Biso   1.000  C
  O173     1.0000 0.78705  0.02957  0.74598  Biso   1.000  O
  F689     1.0000 0.79080  0.08820  0.75230  Biso   1.000  F
  F690     1.0000 0.81580  0.13280  0.72840  Biso   1.000  F
  F691     1.0000 0.81710  0.08290  0.64120  Biso   1.000  F
  F692     1.0000 0.79310  0.03760  0.66550  Biso   1.000  F
  C785     1.0000 0.79640  0.08630  0.72580  Biso   1.000  C
  C786     1.0000 0.80990  0.10920  0.71320  Biso   1.000  C
  C787     1.0000 0.81110  0.08420  0.66890  Biso   1.000  C
  C788     1.0000 0.79760  0.06130  0.68150  Biso   1.000  C
  O174     1.0000 0.78705  0.52957  0.24598  Biso   1.000  O
  F693     1.0000 0.79080  0.58820  0.25230  Biso   1.000  F
  F694     1.0000 0.81580  0.63280  0.22840  Biso   1.000  F
  F695     1.0000 0.81710  0.58290  0.14120  Biso   1.000  F
  F696     1.0000 0.79310  0.53760  0.16550  Biso   1.000  F
  C789     1.0000 0.79640  0.58630  0.22580  Biso   1.000  C
  C790     1.0000 0.80990  0.60920  0.21320  Biso   1.000  C
  C791     1.0000 0.81110  0.58420  0.16890  Biso   1.000  C
  C792     1.0000 0.79760  0.56130  0.18150  Biso   1.000  C
  O175     1.0000 0.28705  0.02957  0.24598  Biso   1.000  O
  F697     1.0000 0.29080  0.08820  0.25230  Biso   1.000  F
  F698     1.0000 0.31580  0.13280  0.22840  Biso   1.000  F
  F699     1.0000 0.31710  0.08290  0.14120  Biso   1.000  F
  F700     1.0000 0.29310  0.03760  0.16550  Biso   1.000  F
  C793     1.0000 0.29640  0.08630  0.22580  Biso   1.000  C
  C794     1.0000 0.30990  0.10920  0.21320  Biso   1.000  C
  C795     1.0000 0.31110  0.08420  0.16890  Biso   1.000  C
  C796     1.0000 0.29760  0.06130  0.18150  Biso   1.000  C
  O176     1.0000 0.28705  0.52957  0.74598  Biso   1.000  O
  F701     1.0000 0.29080  0.58820  0.75230  Biso   1.000  F
  F702     1.0000 0.31580  0.63280  0.72840  Biso   1.000  F
  F703     1.0000 0.31710  0.58290  0.64120  Biso   1.000  F
  F704     1.0000 0.29310  0.53760  0.66550  Biso   1.000  F
  C797     1.0000 0.29640  0.58630  0.72580  Biso   1.000  C
  C798     1.0000 0.30990  0.60920  0.71320  Biso   1.000  C
  C799     1.0000 0.31110  0.58420  0.66890  Biso   1.000  C
  C800     1.0000 0.29760  0.56130  0.68150  Biso   1.000  C
  O177     1.0000 0.97043  0.74598  0.21295  Biso   1.000  O
  F705     1.0000 0.91180  0.75230  0.20920  Biso   1.000  F
  F706     1.0000 0.86720  0.72840  0.18420  Biso   1.000  F
  F707     1.0000 0.91710  0.64120  0.18290  Biso   1.000  F
  F708     1.0000 0.96240  0.66550  0.20690  Biso   1.000  F
  C801     1.0000 0.91370  0.72580  0.20360  Biso   1.000  C
  C802     1.0000 0.89080  0.71320  0.19010  Biso   1.000  C
  C803     1.0000 0.91580  0.66890  0.18890  Biso   1.000  C
  C804     1.0000 0.93870  0.68150  0.20240  Biso   1.000  C
  O178     1.0000 0.97043  0.24598  0.71295  Biso   1.000  O
  F709     1.0000 0.91180  0.25230  0.70920  Biso   1.000  F
  F710     1.0000 0.86720  0.22840  0.68420  Biso   1.000  F
  F711     1.0000 0.91710  0.14120  0.68290  Biso   1.000  F
  F712     1.0000 0.96240  0.16550  0.70690  Biso   1.000  F
  C805     1.0000 0.91370  0.22580  0.70360  Biso   1.000  C
  C806     1.0000 0.89080  0.21320  0.69010  Biso   1.000  C
  C807     1.0000 0.91580  0.16890  0.68890  Biso   1.000  C
  C808     1.0000 0.93870  0.18150  0.70240  Biso   1.000  C
  O179     1.0000 0.47043  0.74598  0.71295  Biso   1.000  O
  F713     1.0000 0.41180  0.75230  0.70920  Biso   1.000  F
  F714     1.0000 0.36720  0.72840  0.68420  Biso   1.000  F
  F715     1.0000 0.41710  0.64120  0.68290  Biso   1.000  F
  F716     1.0000 0.46240  0.66550  0.70690  Biso   1.000  F
  C809     1.0000 0.41370  0.72580  0.70360  Biso   1.000  C
  C810     1.0000 0.39080  0.71320  0.69010  Biso   1.000  C
  C811     1.0000 0.41580  0.66890  0.68890  Biso   1.000  C
  C812     1.0000 0.43870  0.68150  0.70240  Biso   1.000  C
  O180     1.0000 0.47043  0.24598  0.21295  Biso   1.000  O
  F717     1.0000 0.41180  0.25230  0.20920  Biso   1.000  F
  F718     1.0000 0.36720  0.22840  0.18420  Biso   1.000  F
  F719     1.0000 0.41710  0.14120  0.18290  Biso   1.000  F
  F720     1.0000 0.46240  0.16550  0.20690  Biso   1.000  F
  C813     1.0000 0.41370  0.22580  0.20360  Biso   1.000  C
  C814     1.0000 0.39080  0.21320  0.19010  Biso   1.000  C
  C815     1.0000 0.41580  0.16890  0.18890  Biso   1.000  C
  C816     1.0000 0.43870  0.18150  0.20240  Biso   1.000  C
  O181     1.0000 0.97043  0.25402  0.78705  Biso   1.000  O
  F721     1.0000 0.91180  0.24770  0.79080  Biso   1.000  F
  F722     1.0000 0.86720  0.27160  0.81580  Biso   1.000  F
  F723     1.0000 0.91710  0.35880  0.81710  Biso   1.000  F
  F724     1.0000 0.96240  0.33450  0.79310  Biso   1.000  F
  C817     1.0000 0.91370  0.27420  0.79640  Biso   1.000  C
  C818     1.0000 0.89080  0.28680  0.80990  Biso   1.000  C
  C819     1.0000 0.91580  0.33110  0.81110  Biso   1.000  C
  C820     1.0000 0.93870  0.31850  0.79760  Biso   1.000  C
  O182     1.0000 0.97043  0.75402  0.28705  Biso   1.000  O
  F725     1.0000 0.91180  0.74770  0.29080  Biso   1.000  F
  F726     1.0000 0.86720  0.77160  0.31580  Biso   1.000  F
  F727     1.0000 0.91710  0.85880  0.31710  Biso   1.000  F
  F728     1.0000 0.96240  0.83450  0.29310  Biso   1.000  F
  C821     1.0000 0.91370  0.77420  0.29640  Biso   1.000  C
  C822     1.0000 0.89080  0.78680  0.30990  Biso   1.000  C
  C823     1.0000 0.91580  0.83110  0.31110  Biso   1.000  C
  C824     1.0000 0.93870  0.81850  0.29760  Biso   1.000  C
  O183     1.0000 0.47043  0.25402  0.28705  Biso   1.000  O
  F729     1.0000 0.41180  0.24770  0.29080  Biso   1.000  F
  F730     1.0000 0.36720  0.27160  0.31580  Biso   1.000  F
  F731     1.0000 0.41710  0.35880  0.31710  Biso   1.000  F
  F732     1.0000 0.46240  0.33450  0.29310  Biso   1.000  F
  C825     1.0000 0.41370  0.27420  0.29640  Biso   1.000  C
  C826     1.0000 0.39080  0.28680  0.30990  Biso   1.000  C
  C827     1.0000 0.41580  0.33110  0.31110  Biso   1.000  C
  C828     1.0000 0.43870  0.31850  0.29760  Biso   1.000  C
  O184     1.0000 0.47043  0.75402  0.78705  Biso   1.000  O
  F733     1.0000 0.41180  0.74770  0.79080  Biso   1.000  F
  F734     1.0000 0.36720  0.77160  0.81580  Biso   1.000  F
  F735     1.0000 0.41710  0.85880  0.81710  Biso   1.000  F
  F736     1.0000 0.46240  0.83450  0.79310  Biso   1.000  F
  C829     1.0000 0.41370  0.77420  0.79640  Biso   1.000  C
  C830     1.0000 0.39080  0.78680  0.80990  Biso   1.000  C
  C831     1.0000 0.41580  0.83110  0.81110  Biso   1.000  C
  C832     1.0000 0.43870  0.81850  0.79760  Biso   1.000  C
  O185     1.0000 0.02957  0.74598  0.78705  Biso   1.000  O
  F737     1.0000 0.08820  0.75230  0.79080  Biso   1.000  F
  F738     1.0000 0.13280  0.72840  0.81580  Biso   1.000  F
  F739     1.0000 0.08290  0.64120  0.81710  Biso   1.000  F
  F740     1.0000 0.03760  0.66550  0.79310  Biso   1.000  F
  C833     1.0000 0.08630  0.72580  0.79640  Biso   1.000  C
  C834     1.0000 0.10920  0.71320  0.80990  Biso   1.000  C
  C835     1.0000 0.08420  0.66890  0.81110  Biso   1.000  C
  C836     1.0000 0.06130  0.68150  0.79760  Biso   1.000  C
  O186     1.0000 0.02957  0.24598  0.28705  Biso   1.000  O
  F741     1.0000 0.08820  0.25230  0.29080  Biso   1.000  F
  F742     1.0000 0.13280  0.22840  0.31580  Biso   1.000  F
  F743     1.0000 0.08290  0.14120  0.31710  Biso   1.000  F
  F744     1.0000 0.03760  0.16550  0.29310  Biso   1.000  F
  C837     1.0000 0.08630  0.22580  0.29640  Biso   1.000  C
  C838     1.0000 0.10920  0.21320  0.30990  Biso   1.000  C
  C839     1.0000 0.08420  0.16890  0.31110  Biso   1.000  C
  C840     1.0000 0.06130  0.18150  0.29760  Biso   1.000  C
  O187     1.0000 0.52957  0.74598  0.28705  Biso   1.000  O
  F745     1.0000 0.58820  0.75230  0.29080  Biso   1.000  F
  F746     1.0000 0.63280  0.72840  0.31580  Biso   1.000  F
  F747     1.0000 0.58290  0.64120  0.31710  Biso   1.000  F
  F748     1.0000 0.53760  0.66550  0.29310  Biso   1.000  F
  C841     1.0000 0.58630  0.72580  0.29640  Biso   1.000  C
  C842     1.0000 0.60920  0.71320  0.30990  Biso   1.000  C
  C843     1.0000 0.58420  0.66890  0.31110  Biso   1.000  C
  C844     1.0000 0.56130  0.68150  0.29760  Biso   1.000  C
  O188     1.0000 0.52957  0.24598  0.78705  Biso   1.000  O
  F749     1.0000 0.58820  0.25230  0.79080  Biso   1.000  F
  F750     1.0000 0.63280  0.22840  0.81580  Biso   1.000  F
  F751     1.0000 0.58290  0.14120  0.81710  Biso   1.000  F
  F752     1.0000 0.53760  0.16550  0.79310  Biso   1.000  F
  C845     1.0000 0.58630  0.22580  0.79640  Biso   1.000  C
  C846     1.0000 0.60920  0.21320  0.80990  Biso   1.000  C
  C847     1.0000 0.58420  0.16890  0.81110  Biso   1.000  C
  C848     1.0000 0.56130  0.18150  0.79760  Biso   1.000  C
  O189     1.0000 0.02957  0.25402  0.21295  Biso   1.000  O
  F753     1.0000 0.08820  0.24770  0.20920  Biso   1.000  F
  F754     1.0000 0.13280  0.27160  0.18420  Biso   1.000  F
  F755     1.0000 0.08290  0.35880  0.18290  Biso   1.000  F
  F756     1.0000 0.03760  0.33450  0.20690  Biso   1.000  F
  C849     1.0000 0.08630  0.27420  0.20360  Biso   1.000  C
  C850     1.0000 0.10920  0.28680  0.19010  Biso   1.000  C
  C851     1.0000 0.08420  0.33110  0.18890  Biso   1.000  C
  C852     1.0000 0.06130  0.31850  0.20240  Biso   1.000  C
  O190     1.0000 0.02957  0.75402  0.71295  Biso   1.000  O
  F757     1.0000 0.08820  0.74770  0.70920  Biso   1.000  F
  F758     1.0000 0.13280  0.77160  0.68420  Biso   1.000  F
  F759     1.0000 0.08290  0.85880  0.68290  Biso   1.000  F
  F760     1.0000 0.03760  0.83450  0.70690  Biso   1.000  F
  C853     1.0000 0.08630  0.77420  0.70360  Biso   1.000  C
  C854     1.0000 0.10920  0.78680  0.69010  Biso   1.000  C
  C855     1.0000 0.08420  0.83110  0.68890  Biso   1.000  C
  C856     1.0000 0.06130  0.81850  0.70240  Biso   1.000  C
  O191     1.0000 0.52957  0.25402  0.71295  Biso   1.000  O
  F761     1.0000 0.58820  0.24770  0.70920  Biso   1.000  F
  F762     1.0000 0.63280  0.27160  0.68420  Biso   1.000  F
  F763     1.0000 0.58290  0.35880  0.68290  Biso   1.000  F
  F764     1.0000 0.53760  0.33450  0.70690  Biso   1.000  F
  C857     1.0000 0.58630  0.27420  0.70360  Biso   1.000  C
  C858     1.0000 0.60920  0.28680  0.69010  Biso   1.000  C
  C859     1.0000 0.58420  0.33110  0.68890  Biso   1.000  C
  C860     1.0000 0.56130  0.31850  0.70240  Biso   1.000  C
  O192     1.0000 0.52957  0.75402  0.21295  Biso   1.000  O
  F765     1.0000 0.58820  0.74770  0.20920  Biso   1.000  F
  F766     1.0000 0.63280  0.77160  0.18420  Biso   1.000  F
  F767     1.0000 0.58290  0.85880  0.18290  Biso   1.000  F
  F768     1.0000 0.53760  0.83450  0.20690  Biso   1.000  F
  C861     1.0000 0.58630  0.77420  0.20360  Biso   1.000  C
  C862     1.0000 0.60920  0.78680  0.19010  Biso   1.000  C
  C863     1.0000 0.58420  0.83110  0.18890  Biso   1.000  C
  C864     1.0000 0.56130  0.81850  0.20240  Biso   1.000  C
  Cu1      1.0000 0.22988  0.22988  0.00000  Biso   1.000  Cu
  Cu2      1.0000 0.22988  0.72988  0.50000  Biso   1.000  Cu
  Cu3      1.0000 0.72988  0.22988  0.50000  Biso   1.000  Cu
  Cu4      1.0000 0.72988  0.72988  0.00000  Biso   1.000  Cu
  Cu5      1.0000 0.77012  0.77012  0.00000  Biso   1.000  Cu
  Cu6      1.0000 0.77012  0.27012  0.50000  Biso   1.000  Cu
  Cu7      1.0000 0.27012  0.77012  0.50000  Biso   1.000  Cu
  Cu8      1.0000 0.27012  0.27012  0.00000  Biso   1.000  Cu
  Cu9      1.0000 0.77012  0.22988  0.00000  Biso   1.000  Cu
  Cu10     1.0000 0.77012  0.72988  0.50000  Biso   1.000  Cu
  Cu11     1.0000 0.27012  0.22988  0.50000  Biso   1.000  Cu
  Cu12     1.0000 0.27012  0.72988  0.00000  Biso   1.000  Cu
  Cu13     1.0000 0.22988  0.77012  0.00000  Biso   1.000  Cu
  Cu14     1.0000 0.22988  0.27012  0.50000  Biso   1.000  Cu
  Cu15     1.0000 0.72988  0.77012  0.50000  Biso   1.000  Cu
  Cu16     1.0000 0.72988  0.27012  0.00000  Biso   1.000  Cu
  Cu17     1.0000 0.00000  0.22988  0.22988  Biso   1.000  Cu
  Cu18     1.0000 0.00000  0.72988  0.72988  Biso   1.000  Cu
  Cu19     1.0000 0.50000  0.22988  0.72988  Biso   1.000  Cu
  Cu20     1.0000 0.50000  0.72988  0.22988  Biso   1.000  Cu
  Cu21     1.0000 0.00000  0.77012  0.77012  Biso   1.000  Cu
  Cu22     1.0000 0.00000  0.27012  0.27012  Biso   1.000  Cu
  Cu23     1.0000 0.50000  0.77012  0.27012  Biso   1.000  Cu
  Cu24     1.0000 0.50000  0.27012  0.77012  Biso   1.000  Cu
  Cu25     1.0000 0.00000  0.77012  0.22988  Biso   1.000  Cu
  Cu26     1.0000 0.00000  0.27012  0.72988  Biso   1.000  Cu
  Cu27     1.0000 0.50000  0.77012  0.72988  Biso   1.000  Cu
  Cu28     1.0000 0.50000  0.27012  0.22988  Biso   1.000  Cu
  Cu29     1.0000 0.00000  0.22988  0.77012  Biso   1.000  Cu
  Cu30     1.0000 0.00000  0.72988  0.27012  Biso   1.000  Cu
  Cu31     1.0000 0.50000  0.22988  0.27012  Biso   1.000  Cu
  Cu32     1.0000 0.50000  0.72988  0.77012  Biso   1.000  Cu
  Cu33     1.0000 0.22988  0.00000  0.22988  Biso   1.000  Cu
  Cu34     1.0000 0.22988  0.50000  0.72988  Biso   1.000  Cu
  Cu35     1.0000 0.72988  0.00000  0.72988  Biso   1.000  Cu
  Cu36     1.0000 0.72988  0.50000  0.22988  Biso   1.000  Cu
  Cu37     1.0000 0.77012  0.00000  0.77012  Biso   1.000  Cu
  Cu38     1.0000 0.77012  0.50000  0.27012  Biso   1.000  Cu
  Cu39     1.0000 0.27012  0.00000  0.27012  Biso   1.000  Cu
  Cu40     1.0000 0.27012  0.50000  0.77012  Biso   1.000  Cu
  Cu41     1.0000 0.22988  0.00000  0.77012  Biso   1.000  Cu
  Cu42     1.0000 0.22988  0.50000  0.27012  Biso   1.000  Cu
  Cu43     1.0000 0.72988  0.00000  0.27012  Biso   1.000  Cu
  Cu44     1.0000 0.72988  0.50000  0.77012  Biso   1.000  Cu
  Cu45     1.0000 0.77012  0.00000  0.22988  Biso   1.000  Cu
  Cu46     1.0000 0.77012  0.50000  0.72988  Biso   1.000  Cu
  Cu47     1.0000 0.27012  0.00000  0.72988  Biso   1.000  Cu
  Cu48     1.0000 0.27012  0.50000  0.22988  Biso   1.000  Cu
  C865     1.0000 0.22496  0.27504  0.03820  Biso   1.000  C
  C866     1.0000 0.20972  0.29028  0.06240  Biso   1.000  C
  C867     1.0000 0.16911  0.33089  0.13330  Biso   1.000  C
  C868     1.0000 0.22496  0.77504  0.53820  Biso   1.000  C
  C869     1.0000 0.20972  0.79028  0.56240  Biso   1.000  C
  C870     1.0000 0.16911  0.83089  0.63330  Biso   1.000  C
  C871     1.0000 0.77504  0.72496  0.03820  Biso   1.000  C
  C872     1.0000 0.79028  0.70972  0.06240  Biso   1.000  C
  C873     1.0000 0.83089  0.66911  0.13330  Biso   1.000  C
  C874     1.0000 0.77504  0.22496  0.53820  Biso   1.000  C
  C875     1.0000 0.79028  0.20972  0.56240  Biso   1.000  C
  C876     1.0000 0.83089  0.16911  0.63330  Biso   1.000  C
  C877     1.0000 0.27504  0.22496  0.03820  Biso   1.000  C
  C878     1.0000 0.29028  0.20972  0.06240  Biso   1.000  C
  C879     1.0000 0.33089  0.16911  0.13330  Biso   1.000  C
  C880     1.0000 0.77504  0.27504  0.96180  Biso   1.000  C
  C881     1.0000 0.79028  0.29028  0.93760  Biso   1.000  C
  C882     1.0000 0.83089  0.33089  0.86670  Biso   1.000  C
  C883     1.0000 0.77504  0.77504  0.46180  Biso   1.000  C
  C884     1.0000 0.79028  0.79028  0.43760  Biso   1.000  C
  C885     1.0000 0.83089  0.83089  0.36670  Biso   1.000  C
  C886     1.0000 0.27504  0.27504  0.46180  Biso   1.000  C
  C887     1.0000 0.29028  0.29028  0.43760  Biso   1.000  C
  C888     1.0000 0.33089  0.33089  0.36670  Biso   1.000  C
  C889     1.0000 0.22496  0.72496  0.96180  Biso   1.000  C
  C890     1.0000 0.20972  0.70972  0.93760  Biso   1.000  C
  C891     1.0000 0.16911  0.66911  0.86670  Biso   1.000  C
  C892     1.0000 0.22496  0.22496  0.46180  Biso   1.000  C
  C893     1.0000 0.20972  0.20972  0.43760  Biso   1.000  C
  C894     1.0000 0.16911  0.16911  0.36670  Biso   1.000  C
  C895     1.0000 0.03820  0.22496  0.27504  Biso   1.000  C
  C896     1.0000 0.06240  0.20972  0.29028  Biso   1.000  C
  C897     1.0000 0.13330  0.16911  0.33089  Biso   1.000  C
  C898     1.0000 0.53820  0.22496  0.77504  Biso   1.000  C
  C899     1.0000 0.56240  0.20972  0.79028  Biso   1.000  C
  C900     1.0000 0.63330  0.16911  0.83089  Biso   1.000  C
  C901     1.0000 0.03820  0.77504  0.72496  Biso   1.000  C
  C902     1.0000 0.06240  0.79028  0.70972  Biso   1.000  C
  C903     1.0000 0.13330  0.83089  0.66911  Biso   1.000  C
  C904     1.0000 0.03820  0.27504  0.22496  Biso   1.000  C
  C905     1.0000 0.06240  0.29028  0.20972  Biso   1.000  C
  C906     1.0000 0.13330  0.33089  0.16911  Biso   1.000  C
  C907     1.0000 0.53820  0.77504  0.22496  Biso   1.000  C
  C908     1.0000 0.56240  0.79028  0.20972  Biso   1.000  C
  C909     1.0000 0.63330  0.83089  0.16911  Biso   1.000  C
  C910     1.0000 0.96180  0.77504  0.27504  Biso   1.000  C
  C911     1.0000 0.93760  0.79028  0.29028  Biso   1.000  C
  C912     1.0000 0.86670  0.83089  0.33089  Biso   1.000  C
  C913     1.0000 0.46180  0.77504  0.77504  Biso   1.000  C
  C914     1.0000 0.43760  0.79028  0.79028  Biso   1.000  C
  C915     1.0000 0.36670  0.83089  0.83089  Biso   1.000  C
  C916     1.0000 0.46180  0.27504  0.27504  Biso   1.000  C
  C917     1.0000 0.43760  0.29028  0.29028  Biso   1.000  C
  C918     1.0000 0.36670  0.33089  0.33089  Biso   1.000  C
  C919     1.0000 0.96180  0.22496  0.72496  Biso   1.000  C
  C920     1.0000 0.93760  0.20972  0.70972  Biso   1.000  C
  C921     1.0000 0.86670  0.16911  0.66911  Biso   1.000  C
  C922     1.0000 0.46180  0.22496  0.22496  Biso   1.000  C
  C923     1.0000 0.43760  0.20972  0.20972  Biso   1.000  C
  C924     1.0000 0.36670  0.16911  0.16911  Biso   1.000  C
  C925     1.0000 0.27504  0.03820  0.22496  Biso   1.000  C
  C926     1.0000 0.29028  0.06240  0.20972  Biso   1.000  C
  C927     1.0000 0.33089  0.13330  0.16911  Biso   1.000  C
  C928     1.0000 0.27504  0.53820  0.72496  Biso   1.000  C
  C929     1.0000 0.29028  0.56240  0.70972  Biso   1.000  C
  C930     1.0000 0.33089  0.63330  0.66911  Biso   1.000  C
  C931     1.0000 0.72496  0.03820  0.77504  Biso   1.000  C
  C932     1.0000 0.70972  0.06240  0.79028  Biso   1.000  C
  C933     1.0000 0.66911  0.13330  0.83089  Biso   1.000  C
  C934     1.0000 0.72496  0.53820  0.27504  Biso   1.000  C
  C935     1.0000 0.70972  0.56240  0.29028  Biso   1.000  C
  C936     1.0000 0.66911  0.63330  0.33089  Biso   1.000  C
  C937     1.0000 0.22496  0.03820  0.27504  Biso   1.000  C
  C938     1.0000 0.20972  0.06240  0.29028  Biso   1.000  C
  C939     1.0000 0.16911  0.13330  0.33089  Biso   1.000  C
  C940     1.0000 0.27504  0.96180  0.77504  Biso   1.000  C
  C941     1.0000 0.29028  0.93760  0.79028  Biso   1.000  C
  C942     1.0000 0.33089  0.86670  0.83089  Biso   1.000  C
  C943     1.0000 0.27504  0.46180  0.27504  Biso   1.000  C
  C944     1.0000 0.29028  0.43760  0.29028  Biso   1.000  C
  C945     1.0000 0.33089  0.36670  0.33089  Biso   1.000  C
  C946     1.0000 0.72496  0.96180  0.22496  Biso   1.000  C
  C947     1.0000 0.70972  0.93760  0.20972  Biso   1.000  C
  C948     1.0000 0.66911  0.86670  0.16911  Biso   1.000  C
  C949     1.0000 0.72496  0.46180  0.72496  Biso   1.000  C
  C950     1.0000 0.70972  0.43760  0.70972  Biso   1.000  C
  C951     1.0000 0.66911  0.36670  0.66911  Biso   1.000  C
  C952     1.0000 0.22496  0.46180  0.22496  Biso   1.000  C
  C953     1.0000 0.20972  0.43760  0.20972  Biso   1.000  C
  C954     1.0000 0.16911  0.36670  0.16911  Biso   1.000  C
  C955     1.0000 0.27504  0.22496  0.96180  Biso   1.000  C
  C956     1.0000 0.29028  0.20972  0.93760  Biso   1.000  C
  C957     1.0000 0.33089  0.16911  0.86670  Biso   1.000  C
  C958     1.0000 0.27504  0.72496  0.46180  Biso   1.000  C
  C959     1.0000 0.29028  0.70972  0.43760  Biso   1.000  C
  C960     1.0000 0.33089  0.66911  0.36670  Biso   1.000  C
  C961     1.0000 0.72496  0.77504  0.96180  Biso   1.000  C
  C962     1.0000 0.70972  0.79028  0.93760  Biso   1.000  C
  C963     1.0000 0.66911  0.83089  0.86670  Biso   1.000  C
  C964     1.0000 0.72496  0.27504  0.46180  Biso   1.000  C
  C965     1.0000 0.70972  0.29028  0.43760  Biso   1.000  C
  C966     1.0000 0.66911  0.33089  0.36670  Biso   1.000  C
  C967     1.0000 0.22496  0.27504  0.96180  Biso   1.000  C
  C968     1.0000 0.20972  0.29028  0.93760  Biso   1.000  C
  C969     1.0000 0.16911  0.33089  0.86670  Biso   1.000  C
  C970     1.0000 0.27504  0.77504  0.03820  Biso   1.000  C
  C971     1.0000 0.29028  0.79028  0.06240  Biso   1.000  C
  C972     1.0000 0.33089  0.83089  0.13330  Biso   1.000  C
  C973     1.0000 0.27504  0.27504  0.53820  Biso   1.000  C
  C974     1.0000 0.29028  0.29028  0.56240  Biso   1.000  C
  C975     1.0000 0.33089  0.33089  0.63330  Biso   1.000  C
  C976     1.0000 0.72496  0.22496  0.03820  Biso   1.000  C
  C977     1.0000 0.70972  0.20972  0.06240  Biso   1.000  C
  C978     1.0000 0.66911  0.16911  0.13330  Biso   1.000  C
  C979     1.0000 0.72496  0.72496  0.53820  Biso   1.000  C
  C980     1.0000 0.70972  0.70972  0.56240  Biso   1.000  C
  C981     1.0000 0.66911  0.66911  0.63330  Biso   1.000  C
  C982     1.0000 0.22496  0.22496  0.53820  Biso   1.000  C
  C983     1.0000 0.20972  0.20972  0.56240  Biso   1.000  C
  C984     1.0000 0.16911  0.16911  0.63330  Biso   1.000  C
  C985     1.0000 0.22496  0.03820  0.72496  Biso   1.000  C
  C986     1.0000 0.20972  0.06240  0.70972  Biso   1.000  C
  C987     1.0000 0.16911  0.13330  0.66911  Biso   1.000  C
  C988     1.0000 0.22496  0.53820  0.22496  Biso   1.000  C
  C989     1.0000 0.20972  0.56240  0.20972  Biso   1.000  C
  C990     1.0000 0.16911  0.63330  0.16911  Biso   1.000  C
  C991     1.0000 0.77504  0.03820  0.27504  Biso   1.000  C
  C992     1.0000 0.79028  0.06240  0.29028  Biso   1.000  C
  C993     1.0000 0.83089  0.13330  0.33089  Biso   1.000  C
  C994     1.0000 0.77504  0.53820  0.77504  Biso   1.000  C
  C995     1.0000 0.79028  0.56240  0.79028  Biso   1.000  C
  C996     1.0000 0.83089  0.63330  0.83089  Biso   1.000  C
  C997     1.0000 0.27504  0.53820  0.27504  Biso   1.000  C
  C998     1.0000 0.29028  0.56240  0.29028  Biso   1.000  C
  C999     1.0000 0.33089  0.63330  0.33089  Biso   1.000  C
  C1000    1.0000 0.77504  0.96180  0.72496  Biso   1.000  C
  C1001    1.0000 0.79028  0.93760  0.70972  Biso   1.000  C
  C1002    1.0000 0.83089  0.86670  0.66911  Biso   1.000  C
  C1003    1.0000 0.77504  0.46180  0.22496  Biso   1.000  C
  C1004    1.0000 0.79028  0.43760  0.20972  Biso   1.000  C
  C1005    1.0000 0.83089  0.36670  0.16911  Biso   1.000  C
  C1006    1.0000 0.27504  0.96180  0.22496  Biso   1.000  C
  C1007    1.0000 0.29028  0.93760  0.20972  Biso   1.000  C
  C1008    1.0000 0.33089  0.86670  0.16911  Biso   1.000  C
  C1009    1.0000 0.22496  0.96180  0.27504  Biso   1.000  C
  C1010    1.0000 0.20972  0.93760  0.29028  Biso   1.000  C
  C1011    1.0000 0.16911  0.86670  0.33089  Biso   1.000  C
  C1012    1.0000 0.22496  0.46180  0.77504  Biso   1.000  C
  C1013    1.0000 0.20972  0.43760  0.79028  Biso   1.000  C
  C1014    1.0000 0.16911  0.36670  0.83089  Biso   1.000  C
  C1015    1.0000 0.03820  0.27504  0.77504  Biso   1.000  C
  C1016    1.0000 0.06240  0.29028  0.79028  Biso   1.000  C
  C1017    1.0000 0.13330  0.33089  0.83089  Biso   1.000  C
  C1018    1.0000 0.53820  0.27504  0.27504  Biso   1.000  C
  C1019    1.0000 0.56240  0.29028  0.29028  Biso   1.000  C
  C1020    1.0000 0.63330  0.33089  0.33089  Biso   1.000  C
  C1021    1.0000 0.03820  0.72496  0.22496  Biso   1.000  C
  C1022    1.0000 0.06240  0.70972  0.20972  Biso   1.000  C
  C1023    1.0000 0.13330  0.66911  0.16911  Biso   1.000  C
  C1024    1.0000 0.53820  0.72496  0.72496  Biso   1.000  C
  C1025    1.0000 0.56240  0.70972  0.70972  Biso   1.000  C
  C1026    1.0000 0.63330  0.66911  0.66911  Biso   1.000  C
  C1027    1.0000 0.53820  0.22496  0.22496  Biso   1.000  C
  C1028    1.0000 0.56240  0.20972  0.20972  Biso   1.000  C
  C1029    1.0000 0.63330  0.16911  0.16911  Biso   1.000  C
  C1030    1.0000 0.96180  0.27504  0.22496  Biso   1.000  C
  C1031    1.0000 0.93760  0.29028  0.20972  Biso   1.000  C
  C1032    1.0000 0.86670  0.33089  0.16911  Biso   1.000  C
  C1033    1.0000 0.46180  0.27504  0.72496  Biso   1.000  C
  C1034    1.0000 0.43760  0.29028  0.70972  Biso   1.000  C
  C1035    1.0000 0.36670  0.33089  0.66911  Biso   1.000  C
  C1036    1.0000 0.96180  0.72496  0.77504  Biso   1.000  C
  C1037    1.0000 0.93760  0.70972  0.79028  Biso   1.000  C
  C1038    1.0000 0.86670  0.66911  0.83089  Biso   1.000  C
  C1039    1.0000 0.96180  0.22496  0.27504  Biso   1.000  C
  C1040    1.0000 0.93760  0.20972  0.29028  Biso   1.000  C
  C1041    1.0000 0.86670  0.16911  0.33089  Biso   1.000  C
  C1042    1.0000 0.46180  0.72496  0.27504  Biso   1.000  C
  C1043    1.0000 0.43760  0.70972  0.29028  Biso   1.000  C
  C1044    1.0000 0.36670  0.66911  0.33089  Biso   1.000  C
  C1045    1.0000 0.77504  0.72496  0.96180  Biso   1.000  C
  C1046    1.0000 0.79028  0.70972  0.93760  Biso   1.000  C
  C1047    1.0000 0.83089  0.66911  0.86670  Biso   1.000  C
  C1048    1.0000 0.77504  0.22496  0.46180  Biso   1.000  C
  C1049    1.0000 0.79028  0.20972  0.43760  Biso   1.000  C
  C1050    1.0000 0.83089  0.16911  0.36670  Biso   1.000  C
  C1051    1.0000 0.22496  0.77504  0.46180  Biso   1.000  C
  C1052    1.0000 0.20972  0.79028  0.43760  Biso   1.000  C
  C1053    1.0000 0.16911  0.83089  0.36670  Biso   1.000  C
  C1054    1.0000 0.22496  0.72496  0.03820  Biso   1.000  C
  C1055    1.0000 0.20972  0.70972  0.06240  Biso   1.000  C
  C1056    1.0000 0.16911  0.66911  0.13330  Biso   1.000  C
  C1057    1.0000 0.77504  0.27504  0.03820  Biso   1.000  C
  C1058    1.0000 0.79028  0.29028  0.06240  Biso   1.000  C
  C1059    1.0000 0.83089  0.33089  0.13330  Biso   1.000  C
  C1060    1.0000 0.77504  0.77504  0.53820  Biso   1.000  C
  C1061    1.0000 0.79028  0.79028  0.56240  Biso   1.000  C
  C1062    1.0000 0.83089  0.83089  0.63330  Biso   1.000  C
  C1063    1.0000 0.96180  0.77504  0.72496  Biso   1.000  C
  C1064    1.0000 0.93760  0.79028  0.70972  Biso   1.000  C
  C1065    1.0000 0.86670  0.83089  0.66911  Biso   1.000  C
  C1066    1.0000 0.46180  0.77504  0.22496  Biso   1.000  C
  C1067    1.0000 0.43760  0.79028  0.20972  Biso   1.000  C
  C1068    1.0000 0.36670  0.83089  0.16911  Biso   1.000  C
  C1069    1.0000 0.46180  0.22496  0.77504  Biso   1.000  C
  C1070    1.0000 0.43760  0.20972  0.79028  Biso   1.000  C
  C1071    1.0000 0.36670  0.16911  0.83089  Biso   1.000  C
  C1072    1.0000 0.03820  0.22496  0.72496  Biso   1.000  C
  C1073    1.0000 0.06240  0.20972  0.70972  Biso   1.000  C
  C1074    1.0000 0.13330  0.16911  0.66911  Biso   1.000  C
  C1075    1.0000 0.03820  0.77504  0.27504  Biso   1.000  C
  C1076    1.0000 0.06240  0.79028  0.29028  Biso   1.000  C
  C1077    1.0000 0.13330  0.83089  0.33089  Biso   1.000  C
  C1078    1.0000 0.53820  0.77504  0.77504  Biso   1.000  C
  C1079    1.0000 0.56240  0.79028  0.79028  Biso   1.000  C
  C1080    1.0000 0.63330  0.83089  0.83089  Biso   1.000  C
  C1081    1.0000 0.72496  0.96180  0.77504  Biso   1.000  C
  C1082    1.0000 0.70972  0.93760  0.79028  Biso   1.000  C
  C1083    1.0000 0.66911  0.86670  0.83089  Biso   1.000  C
  C1084    1.0000 0.72496  0.46180  0.27504  Biso   1.000  C
  C1085    1.0000 0.70972  0.43760  0.29028  Biso   1.000  C
  C1086    1.0000 0.66911  0.36670  0.33089  Biso   1.000  C
  C1087    1.0000 0.27504  0.46180  0.72496  Biso   1.000  C
  C1088    1.0000 0.29028  0.43760  0.70972  Biso   1.000  C
  C1089    1.0000 0.33089  0.36670  0.66911  Biso   1.000  C
  C1090    1.0000 0.72496  0.03820  0.22496  Biso   1.000  C
  C1091    1.0000 0.70972  0.06240  0.20972  Biso   1.000  C
  C1092    1.0000 0.66911  0.13330  0.16911  Biso   1.000  C
  C1093    1.0000 0.72496  0.53820  0.72496  Biso   1.000  C
  C1094    1.0000 0.70972  0.56240  0.70972  Biso   1.000  C
  C1095    1.0000 0.66911  0.63330  0.66911  Biso   1.000  C
  C1096    1.0000 0.27504  0.03820  0.77504  Biso   1.000  C
  C1097    1.0000 0.29028  0.06240  0.79028  Biso   1.000  C
  C1098    1.0000 0.33089  0.13330  0.83089  Biso   1.000  C
  C1099    1.0000 0.72496  0.77504  0.03820  Biso   1.000  C
  C1100    1.0000 0.70972  0.79028  0.06240  Biso   1.000  C
  C1101    1.0000 0.66911  0.83089  0.13330  Biso   1.000  C
  C1102    1.0000 0.72496  0.27504  0.53820  Biso   1.000  C
  C1103    1.0000 0.70972  0.29028  0.56240  Biso   1.000  C
  C1104    1.0000 0.66911  0.33089  0.63330  Biso   1.000  C
  C1105    1.0000 0.27504  0.72496  0.53820  Biso   1.000  C
  C1106    1.0000 0.29028  0.70972  0.56240  Biso   1.000  C
  C1107    1.0000 0.33089  0.66911  0.63330  Biso   1.000  C
  C1108    1.0000 0.72496  0.22496  0.96180  Biso   1.000  C
  C1109    1.0000 0.70972  0.20972  0.93760  Biso   1.000  C
  C1110    1.0000 0.66911  0.16911  0.86670  Biso   1.000  C
  C1111    1.0000 0.72496  0.72496  0.46180  Biso   1.000  C
  C1112    1.0000 0.70972  0.70972  0.43760  Biso   1.000  C
  C1113    1.0000 0.66911  0.66911  0.36670  Biso   1.000  C
  C1114    1.0000 0.27504  0.77504  0.96180  Biso   1.000  C
  C1115    1.0000 0.29028  0.79028  0.93760  Biso   1.000  C
  C1116    1.0000 0.33089  0.83089  0.86670  Biso   1.000  C
  C1117    1.0000 0.77504  0.96180  0.27504  Biso   1.000  C
  C1118    1.0000 0.79028  0.93760  0.29028  Biso   1.000  C
  C1119    1.0000 0.83089  0.86670  0.33089  Biso   1.000  C
  C1120    1.0000 0.77504  0.46180  0.77504  Biso   1.000  C
  C1121    1.0000 0.79028  0.43760  0.79028  Biso   1.000  C
  C1122    1.0000 0.83089  0.36670  0.83089  Biso   1.000  C
  C1123    1.0000 0.22496  0.96180  0.72496  Biso   1.000  C
  C1124    1.0000 0.20972  0.93760  0.70972  Biso   1.000  C
  C1125    1.0000 0.16911  0.86670  0.66911  Biso   1.000  C
  C1126    1.0000 0.22496  0.53820  0.77504  Biso   1.000  C
  C1127    1.0000 0.20972  0.56240  0.79028  Biso   1.000  C
  C1128    1.0000 0.16911  0.63330  0.83089  Biso   1.000  C
  C1129    1.0000 0.77504  0.03820  0.72496  Biso   1.000  C
  C1130    1.0000 0.79028  0.06240  0.70972  Biso   1.000  C
  C1131    1.0000 0.83089  0.13330  0.66911  Biso   1.000  C
  C1132    1.0000 0.77504  0.53820  0.22496  Biso   1.000  C
  C1133    1.0000 0.79028  0.56240  0.20972  Biso   1.000  C
  C1134    1.0000 0.83089  0.63330  0.16911  Biso   1.000  C
  C1135    1.0000 0.96180  0.72496  0.22496  Biso   1.000  C
  C1136    1.0000 0.93760  0.70972  0.20972  Biso   1.000  C
  C1137    1.0000 0.86670  0.66911  0.16911  Biso   1.000  C
  C1138    1.0000 0.46180  0.72496  0.72496  Biso   1.000  C
  C1139    1.0000 0.43760  0.70972  0.70972  Biso   1.000  C
  C1140    1.0000 0.36670  0.66911  0.66911  Biso   1.000  C
  C1141    1.0000 0.96180  0.27504  0.77504  Biso   1.000  C
  C1142    1.0000 0.93760  0.29028  0.79028  Biso   1.000  C
  C1143    1.0000 0.86670  0.33089  0.83089  Biso   1.000  C
  C1144    1.0000 0.03820  0.72496  0.77504  Biso   1.000  C
  C1145    1.0000 0.06240  0.70972  0.79028  Biso   1.000  C
  C1146    1.0000 0.13330  0.66911  0.83089  Biso   1.000  C
  C1147    1.0000 0.53820  0.72496  0.27504  Biso   1.000  C
  C1148    1.0000 0.56240  0.70972  0.29028  Biso   1.000  C
  C1149    1.0000 0.63330  0.66911  0.33089  Biso   1.000  C
  C1150    1.0000 0.53820  0.27504  0.72496  Biso   1.000  C
  C1151    1.0000 0.56240  0.29028  0.70972  Biso   1.000  C
  C1152    1.0000 0.63330  0.33089  0.66911  Biso   1.000  C
  C1153    1.0000 0.14548  0.31940  0.14548  Biso   1.000  C
  H1       1.0000 0.13750  0.30330  0.13750  Biso   1.000  H
  C1154    1.0000 0.14548  0.81940  0.64548  Biso   1.000  C
  H2       1.0000 0.13750  0.80330  0.63750  Biso   1.000  H
  C1155    1.0000 0.64548  0.31940  0.64548  Biso   1.000  C
  H3       1.0000 0.63750  0.30330  0.63750  Biso   1.000  H
  C1156    1.0000 0.64548  0.81940  0.14548  Biso   1.000  C
  H4       1.0000 0.63750  0.80330  0.13750  Biso   1.000  H
  C1157    1.0000 0.85452  0.68060  0.14548  Biso   1.000  C
  H5       1.0000 0.86250  0.69670  0.13750  Biso   1.000  H
  C1158    1.0000 0.85452  0.18060  0.64548  Biso   1.000  C
  H6       1.0000 0.86250  0.19670  0.63750  Biso   1.000  H
  C1159    1.0000 0.35452  0.68060  0.64548  Biso   1.000  C
  H7       1.0000 0.36250  0.69670  0.63750  Biso   1.000  H
  C1160    1.0000 0.35452  0.18060  0.14548  Biso   1.000  C
  H8       1.0000 0.36250  0.19670  0.13750  Biso   1.000  H
  C1161    1.0000 0.85452  0.31940  0.85452  Biso   1.000  C
  H9       1.0000 0.86250  0.30330  0.86250  Biso   1.000  H
  C1162    1.0000 0.85452  0.81940  0.35452  Biso   1.000  C
  H10      1.0000 0.86250  0.80330  0.36250  Biso   1.000  H
  C1163    1.0000 0.35452  0.31940  0.35452  Biso   1.000  C
  H11      1.0000 0.36250  0.30330  0.36250  Biso   1.000  H
  C1164    1.0000 0.35452  0.81940  0.85452  Biso   1.000  C
  H12      1.0000 0.36250  0.80330  0.86250  Biso   1.000  H
  C1165    1.0000 0.14548  0.68060  0.85452  Biso   1.000  C
  H13      1.0000 0.13750  0.69670  0.86250  Biso   1.000  H
  C1166    1.0000 0.14548  0.18060  0.35452  Biso   1.000  C
  H14      1.0000 0.13750  0.19670  0.36250  Biso   1.000  H
  C1167    1.0000 0.64548  0.68060  0.35452  Biso   1.000  C
  H15      1.0000 0.63750  0.69670  0.36250  Biso   1.000  H
  C1168    1.0000 0.64548  0.18060  0.85452  Biso   1.000  C
  H16      1.0000 0.63750  0.19670  0.86250  Biso   1.000  H
  C1169    1.0000 0.14548  0.14548  0.31940  Biso   1.000  C
  H17      1.0000 0.13750  0.13750  0.30330  Biso   1.000  H
  C1170    1.0000 0.14548  0.64548  0.81940  Biso   1.000  C
  H18      1.0000 0.13750  0.63750  0.80330  Biso   1.000  H
  C1171    1.0000 0.64548  0.14548  0.81940  Biso   1.000  C
  H19      1.0000 0.63750  0.13750  0.80330  Biso   1.000  H
  C1172    1.0000 0.64548  0.64548  0.31940  Biso   1.000  C
  H20      1.0000 0.63750  0.63750  0.30330  Biso   1.000  H
  C1173    1.0000 0.14548  0.85452  0.68060  Biso   1.000  C
  H21      1.0000 0.13750  0.86250  0.69670  Biso   1.000  H
  C1174    1.0000 0.14548  0.35452  0.18060  Biso   1.000  C
  H22      1.0000 0.13750  0.36250  0.19670  Biso   1.000  H
  C1175    1.0000 0.64548  0.85452  0.18060  Biso   1.000  C
  H23      1.0000 0.63750  0.86250  0.19670  Biso   1.000  H
  C1176    1.0000 0.64548  0.35452  0.68060  Biso   1.000  C
  H24      1.0000 0.63750  0.36250  0.69670  Biso   1.000  H
  C1177    1.0000 0.85452  0.85452  0.31940  Biso   1.000  C
  H25      1.0000 0.86250  0.86250  0.30330  Biso   1.000  H
  C1178    1.0000 0.85452  0.35452  0.81940  Biso   1.000  C
  H26      1.0000 0.86250  0.36250  0.80330  Biso   1.000  H
  C1179    1.0000 0.35452  0.85452  0.81940  Biso   1.000  C
  H27      1.0000 0.36250  0.86250  0.80330  Biso   1.000  H
  C1180    1.0000 0.35452  0.35452  0.31940  Biso   1.000  C
  H28      1.0000 0.36250  0.36250  0.30330  Biso   1.000  H
  C1181    1.0000 0.85452  0.14548  0.68060  Biso   1.000  C
  H29      1.0000 0.86250  0.13750  0.69670  Biso   1.000  H
  C1182    1.0000 0.85452  0.64548  0.18060  Biso   1.000  C
  H30      1.0000 0.86250  0.63750  0.19670  Biso   1.000  H
  C1183    1.0000 0.35452  0.14548  0.18060  Biso   1.000  C
  H31      1.0000 0.36250  0.13750  0.19670  Biso   1.000  H
  C1184    1.0000 0.35452  0.64548  0.68060  Biso   1.000  C
  H32      1.0000 0.36250  0.63750  0.69670  Biso   1.000  H
  C1185    1.0000 0.31940  0.14548  0.14548  Biso   1.000  C
  H33      1.0000 0.30330  0.13750  0.13750  Biso   1.000  H
  C1186    1.0000 0.31940  0.64548  0.64548  Biso   1.000  C
  H34      1.0000 0.30330  0.63750  0.63750  Biso   1.000  H
  C1187    1.0000 0.81940  0.14548  0.64548  Biso   1.000  C
  H35      1.0000 0.80330  0.13750  0.63750  Biso   1.000  H
  C1188    1.0000 0.81940  0.64548  0.14548  Biso   1.000  C
  H36      1.0000 0.80330  0.63750  0.13750  Biso   1.000  H
  C1189    1.0000 0.68060  0.14548  0.85452  Biso   1.000  C
  H37      1.0000 0.69670  0.13750  0.86250  Biso   1.000  H
  C1190    1.0000 0.68060  0.64548  0.35452  Biso   1.000  C
  H38      1.0000 0.69670  0.63750  0.36250  Biso   1.000  H
  C1191    1.0000 0.18060  0.14548  0.35452  Biso   1.000  C
  H39      1.0000 0.19670  0.13750  0.36250  Biso   1.000  H
  C1192    1.0000 0.18060  0.64548  0.85452  Biso   1.000  C
  H40      1.0000 0.19670  0.63750  0.86250  Biso   1.000  H
  C1193    1.0000 0.31940  0.85452  0.85452  Biso   1.000  C
  H41      1.0000 0.30330  0.86250  0.86250  Biso   1.000  H
  C1194    1.0000 0.31940  0.35452  0.35452  Biso   1.000  C
  H42      1.0000 0.30330  0.36250  0.36250  Biso   1.000  H
  C1195    1.0000 0.81940  0.85452  0.35452  Biso   1.000  C
  H43      1.0000 0.80330  0.86250  0.36250  Biso   1.000  H
  C1196    1.0000 0.81940  0.35452  0.85452  Biso   1.000  C
  H44      1.0000 0.80330  0.36250  0.86250  Biso   1.000  H
  C1197    1.0000 0.68060  0.85452  0.14548  Biso   1.000  C
  H45      1.0000 0.69670  0.86250  0.13750  Biso   1.000  H
  C1198    1.0000 0.68060  0.35452  0.64548  Biso   1.000  C
  H46      1.0000 0.69670  0.36250  0.63750  Biso   1.000  H
  C1199    1.0000 0.18060  0.85452  0.64548  Biso   1.000  C
  H47      1.0000 0.19670  0.86250  0.63750  Biso   1.000  H
  C1200    1.0000 0.18060  0.35452  0.14548  Biso   1.000  C
  H48      1.0000 0.19670  0.36250  0.13750  Biso   1.000  H
  C1201    1.0000 0.31940  0.14548  0.85452  Biso   1.000  C
  H49      1.0000 0.30330  0.13750  0.86250  Biso   1.000  H
  C1202    1.0000 0.31940  0.64548  0.35452  Biso   1.000  C
  H50      1.0000 0.30330  0.63750  0.36250  Biso   1.000  H
  C1203    1.0000 0.81940  0.14548  0.35452  Biso   1.000  C
  H51      1.0000 0.80330  0.13750  0.36250  Biso   1.000  H
  C1204    1.0000 0.81940  0.64548  0.85452  Biso   1.000  C
  H52      1.0000 0.80330  0.63750  0.86250  Biso   1.000  H
  C1205    1.0000 0.68060  0.85452  0.85452  Biso   1.000  C
  H53      1.0000 0.69670  0.86250  0.86250  Biso   1.000  H
  C1206    1.0000 0.68060  0.35452  0.35452  Biso   1.000  C
  H54      1.0000 0.69670  0.36250  0.36250  Biso   1.000  H
  C1207    1.0000 0.18060  0.85452  0.35452  Biso   1.000  C
  H55      1.0000 0.19670  0.86250  0.36250  Biso   1.000  H
  C1208    1.0000 0.18060  0.35452  0.85452  Biso   1.000  C
  H56      1.0000 0.19670  0.36250  0.86250  Biso   1.000  H
  C1209    1.0000 0.31940  0.85452  0.14548  Biso   1.000  C
  H57      1.0000 0.30330  0.86250  0.13750  Biso   1.000  H
  C1210    1.0000 0.31940  0.35452  0.64548  Biso   1.000  C
  H58      1.0000 0.30330  0.36250  0.63750  Biso   1.000  H
  C1211    1.0000 0.81940  0.85452  0.64548  Biso   1.000  C
  H59      1.0000 0.80330  0.86250  0.63750  Biso   1.000  H
  C1212    1.0000 0.81940  0.35452  0.14548  Biso   1.000  C
  H60      1.0000 0.80330  0.36250  0.13750  Biso   1.000  H
  C1213    1.0000 0.68060  0.14548  0.14548  Biso   1.000  C
  H61      1.0000 0.69670  0.13750  0.13750  Biso   1.000  H
  C1214    1.0000 0.68060  0.64548  0.64548  Biso   1.000  C
  H62      1.0000 0.69670  0.63750  0.63750  Biso   1.000  H
  C1215    1.0000 0.18060  0.14548  0.64548  Biso   1.000  C
  H63      1.0000 0.19670  0.13750  0.63750  Biso   1.000  H
  C1216    1.0000 0.18060  0.64548  0.14548  Biso   1.000  C
  H64      1.0000 0.19670  0.63750  0.13750  Biso   1.000  H
  C1217    1.0000 0.14548  0.14548  0.68060  Biso   1.000  C
  H65      1.0000 0.13750  0.13750  0.69670  Biso   1.000  H
  C1218    1.0000 0.14548  0.64548  0.18060  Biso   1.000  C
  H66      1.0000 0.13750  0.63750  0.19670  Biso   1.000  H
  C1219    1.0000 0.64548  0.14548  0.18060  Biso   1.000  C
  H67      1.0000 0.63750  0.13750  0.19670  Biso   1.000  H
  C1220    1.0000 0.64548  0.64548  0.68060  Biso   1.000  C
  H68      1.0000 0.63750  0.63750  0.69670  Biso   1.000  H
  C1221    1.0000 0.85452  0.14548  0.31940  Biso   1.000  C
  H69      1.0000 0.86250  0.13750  0.30330  Biso   1.000  H
  C1222    1.0000 0.85452  0.64548  0.81940  Biso   1.000  C
  H70      1.0000 0.86250  0.63750  0.80330  Biso   1.000  H
  C1223    1.0000 0.35452  0.14548  0.81940  Biso   1.000  C
  H71      1.0000 0.36250  0.13750  0.80330  Biso   1.000  H
  C1224    1.0000 0.35452  0.64548  0.31940  Biso   1.000  C
  H72      1.0000 0.36250  0.63750  0.30330  Biso   1.000  H
  C1225    1.0000 0.85452  0.85452  0.68060  Biso   1.000  C
  H73      1.0000 0.86250  0.86250  0.69670  Biso   1.000  H
  C1226    1.0000 0.85452  0.35452  0.18060  Biso   1.000  C
  H74      1.0000 0.86250  0.36250  0.19670  Biso   1.000  H
  C1227    1.0000 0.35452  0.85452  0.18060  Biso   1.000  C
  H75      1.0000 0.36250  0.86250  0.19670  Biso   1.000  H
  C1228    1.0000 0.35452  0.35452  0.68060  Biso   1.000  C
  H76      1.0000 0.36250  0.36250  0.69670  Biso   1.000  H
  C1229    1.0000 0.14548  0.85452  0.31940  Biso   1.000  C
  H77      1.0000 0.13750  0.86250  0.30330  Biso   1.000  H
  C1230    1.0000 0.14548  0.35452  0.81940  Biso   1.000  C
  H78      1.0000 0.13750  0.36250  0.80330  Biso   1.000  H
  C1231    1.0000 0.64548  0.85452  0.81940  Biso   1.000  C
  H79      1.0000 0.63750  0.86250  0.80330  Biso   1.000  H
  C1232    1.0000 0.64548  0.35452  0.31940  Biso   1.000  C
  H80      1.0000 0.63750  0.36250  0.30330  Biso   1.000  H
  C1233    1.0000 0.14548  0.31940  0.85452  Biso   1.000  C
  H81      1.0000 0.13750  0.30330  0.86250  Biso   1.000  H
  C1234    1.0000 0.14548  0.81940  0.35452  Biso   1.000  C
  H82      1.0000 0.13750  0.80330  0.36250  Biso   1.000  H
  C1235    1.0000 0.64548  0.31940  0.35452  Biso   1.000  C
  H83      1.0000 0.63750  0.30330  0.36250  Biso   1.000  H
  C1236    1.0000 0.64548  0.81940  0.85452  Biso   1.000  C
  H84      1.0000 0.63750  0.80330  0.86250  Biso   1.000  H
  C1237    1.0000 0.14548  0.68060  0.14548  Biso   1.000  C
  H85      1.0000 0.13750  0.69670  0.13750  Biso   1.000  H
  C1238    1.0000 0.14548  0.18060  0.64548  Biso   1.000  C
  H86      1.0000 0.13750  0.19670  0.63750  Biso   1.000  H
  C1239    1.0000 0.64548  0.68060  0.64548  Biso   1.000  C
  H87      1.0000 0.63750  0.69670  0.63750  Biso   1.000  H
  C1240    1.0000 0.64548  0.18060  0.14548  Biso   1.000  C
  H88      1.0000 0.63750  0.19670  0.13750  Biso   1.000  H
  C1241    1.0000 0.85452  0.31940  0.14548  Biso   1.000  C
  H89      1.0000 0.86250  0.30330  0.13750  Biso   1.000  H
  C1242    1.0000 0.85452  0.81940  0.64548  Biso   1.000  C
  H90      1.0000 0.86250  0.80330  0.63750  Biso   1.000  H
  C1243    1.0000 0.35452  0.31940  0.64548  Biso   1.000  C
  H91      1.0000 0.36250  0.30330  0.63750  Biso   1.000  H
  C1244    1.0000 0.35452  0.81940  0.14548  Biso   1.000  C
  H92      1.0000 0.36250  0.80330  0.13750  Biso   1.000  H
  C1245    1.0000 0.85452  0.68060  0.85452  Biso   1.000  C
  H93      1.0000 0.86250  0.69670  0.86250  Biso   1.000  H
  C1246    1.0000 0.85452  0.18060  0.35452  Biso   1.000  C
  H94      1.0000 0.86250  0.19670  0.36250  Biso   1.000  H
  C1247    1.0000 0.35452  0.68060  0.35452  Biso   1.000  C
  H95      1.0000 0.36250  0.69670  0.36250  Biso   1.000  H
  C1248    1.0000 0.35452  0.18060  0.85452  Biso   1.000  C
  H96      1.0000 0.36250  0.19670  0.86250  Biso   1.000  H
