data_image0
_cell_length_a       34.3624
_cell_length_b       18.6807
_cell_length_c       25.8757
_cell_angle_alpha    90
_cell_angle_beta     90
_cell_angle_gamma    90

_symmetry_space_group_name_H-M    "P 1"
_symmetry_int_tables_number       1

loop_
  _symmetry_equiv_pos_as_xyz
  'x, y, z'

loop_
  _atom_site_label
  _atom_site_occupancy
  _atom_site_fract_x
  _atom_site_fract_y
  _atom_site_fract_z
  _atom_site_thermal_displace_type
  _atom_site_B_iso_or_equiv
  _atom_site_type_symbol
  Cu1      1.0000 0.22642  0.03468  0.66759  Biso   1.000  Cu
  Cu2      1.0000 0.26451  0.96321  0.74258  Biso   1.000  Cu
  C1       1.0000 0.11070  0.83870  0.89160  Biso   1.000  C
  O1       1.0000 0.18276  0.01170  0.71270  Biso   1.000  O
  C2       1.0000 0.11140  0.89050  0.84550  Biso   1.000  C
  O2       1.0000 0.21390  0.95460  0.77580  Biso   1.000  O
  O3       1.0000 0.14405  0.82500  0.90640  Biso   1.000  O
  C3       1.0000 0.14640  0.96070  0.78000  Biso   1.000  C
  O4       1.0000 0.07866  0.82260  0.90700  Biso   1.000  O
  C4       1.0000 0.18490  0.98050  0.75580  Biso   1.000  C
  C5       1.0000 0.14690  0.91200  0.82240  Biso   1.000  C
  H1       1.0000 0.17090  0.89410  0.83520  Biso   1.000  H
  C6       1.0000 0.11100  0.98600  0.76060  Biso   1.000  C
  H2       1.0000 0.11080  0.01850  0.73240  Biso   1.000  H
  O5       1.0000 0.04300  0.97870  0.75720  Biso   1.000  O
  C7       1.0000 0.00930  0.98710  0.78770  Biso   1.000  C
  H3       1.0000 0.01680  0.99470  0.82420  Biso   1.000  H
  H4       1.0000 0.99460  0.02970  0.77590  Biso   1.000  H
  C8       1.0000 0.98440  0.92340  0.78380  Biso   1.000  C
  H5       1.0000 0.98270  0.90790  0.74730  Biso   1.000  H
  H6       1.0000 0.99580  0.88380  0.80430  Biso   1.000  H
  C9       1.0000 0.94420  0.94070  0.80400  Biso   1.000  C
  H7       1.0000 0.92960  0.89610  0.81080  Biso   1.000  H
  H8       1.0000 0.92970  0.96940  0.77830  Biso   1.000  H
  O6       1.0000 0.94910  0.98180  0.85230  Biso   1.000  O
  C10      1.0000 0.91320  0.01310  0.87440  Biso   1.000  C
  C11      1.0000 0.91640  0.06570  0.91090  Biso   1.000  C
  H9       1.0000 0.94120  0.07410  0.92590  Biso   1.000  H
  C12      1.0000 0.85000  0.09280  0.90370  Biso   1.000  C
  H10      1.0000 0.82790  0.12030  0.91340  Biso   1.000  H
  C13      1.0000 0.87730  0.99880  0.85150  Biso   1.000  C
  H11      1.0000 0.87460  0.96210  0.82630  Biso   1.000  H
  C14      1.0000 0.07630  0.96240  0.78470  Biso   1.000  C
  C15      1.0000 0.07570  0.91500  0.82720  Biso   1.000  C
  H12      1.0000 0.05190  0.90050  0.84260  Biso   1.000  H
  O7       1.0000 0.92058  0.17750  0.98630  Biso   1.000  O
  O8       1.0000 0.85515  0.17770  0.98800  Biso   1.000  O
  O9       1.0000 0.77720  0.04330  0.86440  Biso   1.000  O
  O10      1.0000 0.80848  0.98270  0.80310  Biso   1.000  O
  C16      1.0000 0.88520  0.10780  0.92740  Biso   1.000  C
  C17      1.0000 0.84540  0.03970  0.86660  Biso   1.000  C
  C18      1.0000 0.80590  0.02440  0.84160  Biso   1.000  C
  C19      1.0000 0.88620  0.16490  0.97000  Biso   1.000  C
  C20      1.0000 0.23140  0.88640  0.65740  Biso   1.000  C
  O11      1.0000 0.22090  0.94150  0.63550  Biso   1.000  O
  C21      1.0000 0.22370  0.81680  0.63220  Biso   1.000  C
  O12      1.0000 0.25250  0.87790  0.69940  Biso   1.000  O
  C22      1.0000 0.20410  0.81580  0.58570  Biso   1.000  C
  H13      1.0000 0.19590  0.85910  0.56990  Biso   1.000  H
  O13      1.0000 0.22970  0.93950  0.27200  Biso   1.000  O
  O14      1.0000 0.26360  0.87860  0.21000  Biso   1.000  O
  C23      1.0000 0.21340  0.81180  0.31820  Biso   1.000  C
  H14      1.0000 0.20690  0.85620  0.33380  Biso   1.000  H
  C24      1.0000 0.23430  0.81453  0.27280  Biso   1.000  C
  C25      1.0000 0.24403  0.88520  0.24760  Biso   1.000  C
  C26      1.0000 0.99039  0.77040  0.92250  Biso   1.000  C
  N1       1.0000 0.00936  0.72960  0.96080  Biso   1.000  N
  C27      1.0000 0.98931  0.72960  0.00670  Biso   1.000  C
  C28      1.0000 0.94896  0.72960  0.00190  Biso   1.000  C
  C29      1.0000 0.92751  0.77040  0.96330  Biso   1.000  C
  C30      1.0000 0.95103  0.77040  0.91540  Biso   1.000  C
  O15      1.0000 0.17360  0.77370  0.51740  Biso   1.000  O
  O16      1.0000 0.17980  0.72360  0.38710  Biso   1.000  O
  C31      1.0000 0.15020  0.71780  0.49090  Biso   1.000  C
  C32      1.0000 0.15690  0.78410  0.40530  Biso   1.000  C
  H15      1.0000 0.00510  0.77040  0.89140  Biso   1.000  H
  H16      1.0000 0.00200  0.72960  0.03930  Biso   1.000  H
  H17      1.0000 0.93540  0.72960  0.03400  Biso   1.000  H
  H18      1.0000 0.89990  0.77040  0.96440  Biso   1.000  H
  H19      1.0000 0.93950  0.77040  0.88200  Biso   1.000  H
  H20      1.0000 0.11620  0.71220  0.42800  Biso   1.000  H
  H21      1.0000 0.11310  0.78670  0.45760  Biso   1.000  H
  H22      1.0000 0.13010  0.69880  0.51460  Biso   1.000  H
  H23      1.0000 0.16720  0.67770  0.48020  Biso   1.000  H
  H24      1.0000 0.17370  0.82160  0.42050  Biso   1.000  H
  H25      1.0000 0.14120  0.80510  0.37700  Biso   1.000  H
  C33      1.0000 0.94520  0.50600  0.78150  Biso   1.000  C
  C34      1.0000 0.91310  0.43260  0.84560  Biso   1.000  C
  C35      1.0000 0.91850  0.39660  0.89170  Biso   1.000  C
  C36      1.0000 0.85050  0.42470  0.91240  Biso   1.000  C
  C37      1.0000 0.87750  0.46350  0.83350  Biso   1.000  C
  C38      1.0000 0.98670  0.52000  0.76390  Biso   1.000  C
  C39      1.0000 0.14320  0.59240  0.81660  Biso   1.000  C
  C40      1.0000 0.11500  0.49280  0.76930  Biso   1.000  C
  C41      1.0000 0.08110  0.50410  0.79710  Biso   1.000  C
  C42      1.0000 0.08130  0.56100  0.83360  Biso   1.000  C
  C43      1.0000 0.01270  0.46960  0.79630  Biso   1.000  C
  H26      1.0000 0.93300  0.55050  0.79440  Biso   1.000  H
  H27      1.0000 0.92940  0.48710  0.75260  Biso   1.000  H
  H28      1.0000 0.94290  0.37540  0.90000  Biso   1.000  H
  H29      1.0000 0.82900  0.42200  0.93540  Biso   1.000  H
  H30      1.0000 0.87490  0.48780  0.80150  Biso   1.000  H
  H31      1.0000 0.99380  0.57090  0.77030  Biso   1.000  H
  H32      1.0000 0.98950  0.51010  0.72660  Biso   1.000  H
  H33      1.0000 0.16580  0.62040  0.82240  Biso   1.000  H
  H34      1.0000 0.11710  0.45570  0.74440  Biso   1.000  H
  H35      1.0000 0.05780  0.56720  0.85250  Biso   1.000  H
  H36      1.0000 0.01430  0.48570  0.83270  Biso   1.000  H
  H37      1.0000 0.00270  0.41990  0.79540  Biso   1.000  H
  O17      1.0000 0.05020  0.47430  0.77140  Biso   1.000  O
  O18      1.0000 0.94820  0.45330  0.82270  Biso   1.000  O
  Cu3      1.0000 0.27358  0.96532  0.16759  Biso   1.000  Cu
  Cu4      1.0000 0.23549  0.03679  0.24258  Biso   1.000  Cu
  C44      1.0000 0.38930  0.16130  0.39160  Biso   1.000  C
  O19      1.0000 0.31724  0.98830  0.21270  Biso   1.000  O
  C45      1.0000 0.38860  0.10950  0.34550  Biso   1.000  C
  O20      1.0000 0.28610  0.04540  0.27580  Biso   1.000  O
  O21      1.0000 0.35595  0.17500  0.40640  Biso   1.000  O
  C46      1.0000 0.35360  0.03930  0.28000  Biso   1.000  C
  O22      1.0000 0.42134  0.17740  0.40700  Biso   1.000  O
  C47      1.0000 0.31510  0.01950  0.25580  Biso   1.000  C
  C48      1.0000 0.35310  0.08800  0.32240  Biso   1.000  C
  H38      1.0000 0.32910  0.10590  0.33520  Biso   1.000  H
  C49      1.0000 0.38900  0.01400  0.26060  Biso   1.000  C
  H39      1.0000 0.38920  0.98150  0.23240  Biso   1.000  H
  O23      1.0000 0.45700  0.02130  0.25720  Biso   1.000  O
  C50      1.0000 0.49070  0.01290  0.28770  Biso   1.000  C
  H40      1.0000 0.48320  0.00530  0.32420  Biso   1.000  H
  H41      1.0000 0.50540  0.97030  0.27590  Biso   1.000  H
  C51      1.0000 0.51560  0.07660  0.28380  Biso   1.000  C
  H42      1.0000 0.51730  0.09210  0.24730  Biso   1.000  H
  H43      1.0000 0.50420  0.11620  0.30430  Biso   1.000  H
  C52      1.0000 0.55580  0.05930  0.30400  Biso   1.000  C
  H44      1.0000 0.57040  0.10390  0.31080  Biso   1.000  H
  H45      1.0000 0.57030  0.03060  0.27830  Biso   1.000  H
  O24      1.0000 0.55090  0.01820  0.35230  Biso   1.000  O
  C53      1.0000 0.58680  0.98690  0.37440  Biso   1.000  C
  C54      1.0000 0.58360  0.93430  0.41090  Biso   1.000  C
  H46      1.0000 0.55880  0.92590  0.42590  Biso   1.000  H
  C55      1.0000 0.65000  0.90720  0.40370  Biso   1.000  C
  H47      1.0000 0.67210  0.87970  0.41340  Biso   1.000  H
  C56      1.0000 0.62270  0.00120  0.35150  Biso   1.000  C
  H48      1.0000 0.62540  0.03790  0.32630  Biso   1.000  H
  C57      1.0000 0.42370  0.03760  0.28470  Biso   1.000  C
  C58      1.0000 0.42430  0.08500  0.32720  Biso   1.000  C
  H49      1.0000 0.44810  0.09950  0.34260  Biso   1.000  H
  O25      1.0000 0.57942  0.82250  0.48630  Biso   1.000  O
  O26      1.0000 0.64485  0.82230  0.48800  Biso   1.000  O
  O27      1.0000 0.72280  0.95670  0.36440  Biso   1.000  O
  O28      1.0000 0.69152  0.01730  0.30310  Biso   1.000  O
  C59      1.0000 0.61480  0.89220  0.42740  Biso   1.000  C
  C60      1.0000 0.65460  0.96030  0.36660  Biso   1.000  C
  C61      1.0000 0.69410  0.97560  0.34160  Biso   1.000  C
  C62      1.0000 0.61380  0.83510  0.47000  Biso   1.000  C
  C63      1.0000 0.26860  0.11360  0.15740  Biso   1.000  C
  O29      1.0000 0.27910  0.05850  0.13550  Biso   1.000  O
  C64      1.0000 0.27630  0.18320  0.13220  Biso   1.000  C
  O30      1.0000 0.24750  0.12210  0.19940  Biso   1.000  O
  C65      1.0000 0.29590  0.18420  0.08570  Biso   1.000  C
  H50      1.0000 0.30410  0.14090  0.06990  Biso   1.000  H
  O31      1.0000 0.27030  0.06050  0.77200  Biso   1.000  O
  O32      1.0000 0.23640  0.12140  0.71000  Biso   1.000  O
  C66      1.0000 0.28660  0.18820  0.81820  Biso   1.000  C
  H51      1.0000 0.29310  0.14380  0.83380  Biso   1.000  H
  C67      1.0000 0.26570  0.18547  0.77280  Biso   1.000  C
  C68      1.0000 0.25597  0.11480  0.74760  Biso   1.000  C
  C69      1.0000 0.50961  0.22960  0.42250  Biso   1.000  C
  N2       1.0000 0.49064  0.27040  0.46080  Biso   1.000  N
  C70      1.0000 0.51069  0.27040  0.50670  Biso   1.000  C
  C71      1.0000 0.55104  0.27040  0.50190  Biso   1.000  C
  C72      1.0000 0.57249  0.22960  0.46330  Biso   1.000  C
  C73      1.0000 0.54897  0.22960  0.41540  Biso   1.000  C
  O33      1.0000 0.32640  0.22630  0.01740  Biso   1.000  O
  O34      1.0000 0.32020  0.27640  0.88710  Biso   1.000  O
  C74      1.0000 0.34980  0.28220  0.99090  Biso   1.000  C
  C75      1.0000 0.34310  0.21590  0.90530  Biso   1.000  C
  H52      1.0000 0.49490  0.22960  0.39140  Biso   1.000  H
  H53      1.0000 0.49800  0.27040  0.53930  Biso   1.000  H
  H54      1.0000 0.56460  0.27040  0.53400  Biso   1.000  H
  H55      1.0000 0.60010  0.22960  0.46440  Biso   1.000  H
  H56      1.0000 0.56050  0.22960  0.38200  Biso   1.000  H
  H57      1.0000 0.38380  0.28780  0.92800  Biso   1.000  H
  H58      1.0000 0.38690  0.21330  0.95760  Biso   1.000  H
  H59      1.0000 0.36990  0.30120  0.01460  Biso   1.000  H
  H60      1.0000 0.33280  0.32230  0.98020  Biso   1.000  H
  H61      1.0000 0.32630  0.17840  0.92050  Biso   1.000  H
  H62      1.0000 0.35880  0.19490  0.87700  Biso   1.000  H
  C76      1.0000 0.55480  0.49400  0.28150  Biso   1.000  C
  C77      1.0000 0.58690  0.56740  0.34560  Biso   1.000  C
  C78      1.0000 0.58150  0.60340  0.39170  Biso   1.000  C
  C79      1.0000 0.64950  0.57530  0.41240  Biso   1.000  C
  C80      1.0000 0.62250  0.53650  0.33350  Biso   1.000  C
  C81      1.0000 0.51330  0.48000  0.26390  Biso   1.000  C
  C82      1.0000 0.35680  0.40760  0.31660  Biso   1.000  C
  C83      1.0000 0.38500  0.50720  0.26930  Biso   1.000  C
  C84      1.0000 0.41890  0.49590  0.29710  Biso   1.000  C
  C85      1.0000 0.41870  0.43900  0.33360  Biso   1.000  C
  C86      1.0000 0.48730  0.53040  0.29630  Biso   1.000  C
  H63      1.0000 0.56700  0.44950  0.29440  Biso   1.000  H
  H64      1.0000 0.57060  0.51290  0.25260  Biso   1.000  H
  H65      1.0000 0.55710  0.62460  0.40000  Biso   1.000  H
  H66      1.0000 0.67100  0.57800  0.43540  Biso   1.000  H
  H67      1.0000 0.62510  0.51220  0.30150  Biso   1.000  H
  H68      1.0000 0.50620  0.42910  0.27030  Biso   1.000  H
  H69      1.0000 0.51050  0.48990  0.22660  Biso   1.000  H
  H70      1.0000 0.33420  0.37960  0.32240  Biso   1.000  H
  H71      1.0000 0.38290  0.54430  0.24440  Biso   1.000  H
  H72      1.0000 0.44220  0.43280  0.35250  Biso   1.000  H
  H73      1.0000 0.48570  0.51430  0.33270  Biso   1.000  H
  H74      1.0000 0.49730  0.58010  0.29540  Biso   1.000  H
  O35      1.0000 0.44980  0.52570  0.27140  Biso   1.000  O
  O36      1.0000 0.55180  0.54670  0.32270  Biso   1.000  O
  Cu5      1.0000 0.77358  0.53468  0.33241  Biso   1.000  Cu
  Cu6      1.0000 0.73549  0.46321  0.25742  Biso   1.000  Cu
  C87      1.0000 0.88930  0.33870  0.10840  Biso   1.000  C
  O37      1.0000 0.81724  0.51170  0.28730  Biso   1.000  O
  C88      1.0000 0.88860  0.39050  0.15450  Biso   1.000  C
  O38      1.0000 0.78610  0.45460  0.22420  Biso   1.000  O
  O39      1.0000 0.85595  0.32500  0.09360  Biso   1.000  O
  C89      1.0000 0.85360  0.46070  0.22000  Biso   1.000  C
  O40      1.0000 0.92134  0.32260  0.09300  Biso   1.000  O
  C90      1.0000 0.81510  0.48050  0.24420  Biso   1.000  C
  C91      1.0000 0.85310  0.41200  0.17760  Biso   1.000  C
  H75      1.0000 0.82910  0.39410  0.16480  Biso   1.000  H
  C92      1.0000 0.88900  0.48600  0.23940  Biso   1.000  C
  H76      1.0000 0.88920  0.51850  0.26760  Biso   1.000  H
  O41      1.0000 0.95700  0.47870  0.24280  Biso   1.000  O
  C93      1.0000 0.99070  0.48710  0.21230  Biso   1.000  C
  H77      1.0000 0.98320  0.49470  0.17580  Biso   1.000  H
  H78      1.0000 0.00540  0.52970  0.22410  Biso   1.000  H
  C94      1.0000 0.01560  0.42340  0.21620  Biso   1.000  C
  H79      1.0000 0.01730  0.40790  0.25270  Biso   1.000  H
  H80      1.0000 0.00420  0.38380  0.19570  Biso   1.000  H
  C95      1.0000 0.05580  0.44070  0.19600  Biso   1.000  C
  H81      1.0000 0.07040  0.39610  0.18920  Biso   1.000  H
  H82      1.0000 0.07030  0.46940  0.22170  Biso   1.000  H
  O42      1.0000 0.05090  0.48180  0.14770  Biso   1.000  O
  C96      1.0000 0.08680  0.51310  0.12560  Biso   1.000  C
  C97      1.0000 0.08360  0.56570  0.08910  Biso   1.000  C
  H83      1.0000 0.05880  0.57410  0.07410  Biso   1.000  H
  C98      1.0000 0.15000  0.59280  0.09630  Biso   1.000  C
  H84      1.0000 0.17210  0.62030  0.08660  Biso   1.000  H
  C99      1.0000 0.12270  0.49880  0.14850  Biso   1.000  C
  H85      1.0000 0.12540  0.46210  0.17370  Biso   1.000  H
  C100     1.0000 0.92370  0.46240  0.21530  Biso   1.000  C
  C101     1.0000 0.92430  0.41500  0.17280  Biso   1.000  C
  H86      1.0000 0.94810  0.40050  0.15740  Biso   1.000  H
  O43      1.0000 0.07942  0.67750  0.01370  Biso   1.000  O
  O44      1.0000 0.14485  0.67770  0.01200  Biso   1.000  O
  O45      1.0000 0.22280  0.54330  0.13560  Biso   1.000  O
  O46      1.0000 0.19152  0.48270  0.19690  Biso   1.000  O
  C102     1.0000 0.11480  0.60780  0.07260  Biso   1.000  C
  C103     1.0000 0.15460  0.53970  0.13340  Biso   1.000  C
  C104     1.0000 0.19410  0.52440  0.15840  Biso   1.000  C
  C105     1.0000 0.11380  0.66490  0.03000  Biso   1.000  C
  C106     1.0000 0.76860  0.38640  0.34260  Biso   1.000  C
  O47      1.0000 0.77910  0.44150  0.36450  Biso   1.000  O
  C107     1.0000 0.77630  0.31680  0.36780  Biso   1.000  C
  O48      1.0000 0.74750  0.37790  0.30060  Biso   1.000  O
  C108     1.0000 0.79590  0.31580  0.41430  Biso   1.000  C
  H87      1.0000 0.80410  0.35910  0.43010  Biso   1.000  H
  O49      1.0000 0.77030  0.43950  0.72800  Biso   1.000  O
  O50      1.0000 0.73640  0.37860  0.79000  Biso   1.000  O
  C109     1.0000 0.78660  0.31180  0.68180  Biso   1.000  C
  H88      1.0000 0.79310  0.35620  0.66620  Biso   1.000  H
  C110     1.0000 0.76570  0.31453  0.72720  Biso   1.000  C
  C111     1.0000 0.75597  0.38520  0.75240  Biso   1.000  C
  C112     1.0000 0.00961  0.27040  0.07750  Biso   1.000  C
  N3       1.0000 0.99064  0.22960  0.03920  Biso   1.000  N
  C113     1.0000 0.01069  0.22960  0.99330  Biso   1.000  C
  C114     1.0000 0.05104  0.22960  0.99810  Biso   1.000  C
  C115     1.0000 0.07249  0.27040  0.03670  Biso   1.000  C
  C116     1.0000 0.04897  0.27040  0.08460  Biso   1.000  C
  O51      1.0000 0.82640  0.27370  0.48260  Biso   1.000  O
  O52      1.0000 0.82020  0.22360  0.61290  Biso   1.000  O
  C117     1.0000 0.84980  0.21780  0.50910  Biso   1.000  C
  C118     1.0000 0.84310  0.28410  0.59470  Biso   1.000  C
  H89      1.0000 0.99490  0.27040  0.10860  Biso   1.000  H
  H90      1.0000 0.99800  0.22960  0.96070  Biso   1.000  H
  H91      1.0000 0.06460  0.22960  0.96600  Biso   1.000  H
  H92      1.0000 0.10010  0.27040  0.03560  Biso   1.000  H
  H93      1.0000 0.06050  0.27040  0.11800  Biso   1.000  H
  H94      1.0000 0.88380  0.21220  0.57200  Biso   1.000  H
  H95      1.0000 0.88690  0.28670  0.54240  Biso   1.000  H
  H96      1.0000 0.86990  0.19880  0.48540  Biso   1.000  H
  H97      1.0000 0.83280  0.17770  0.51980  Biso   1.000  H
  H98      1.0000 0.82630  0.32160  0.57950  Biso   1.000  H
  H99      1.0000 0.85880  0.30510  0.62300  Biso   1.000  H
  C119     1.0000 0.05480  0.00600  0.21850  Biso   1.000  C
  C120     1.0000 0.08690  0.93260  0.15440  Biso   1.000  C
  C121     1.0000 0.08150  0.89660  0.10830  Biso   1.000  C
  C122     1.0000 0.14950  0.92470  0.08760  Biso   1.000  C
  C123     1.0000 0.12250  0.96350  0.16650  Biso   1.000  C
  C124     1.0000 0.01330  0.02000  0.23610  Biso   1.000  C
  C125     1.0000 0.85680  0.09240  0.18340  Biso   1.000  C
  C126     1.0000 0.88500  0.99280  0.23070  Biso   1.000  C
  C127     1.0000 0.91890  0.00410  0.20290  Biso   1.000  C
  C128     1.0000 0.91870  0.06100  0.16640  Biso   1.000  C
  C129     1.0000 0.98730  0.96960  0.20370  Biso   1.000  C
  H100     1.0000 0.06700  0.05050  0.20560  Biso   1.000  H
  H101     1.0000 0.07060  0.98710  0.24740  Biso   1.000  H
  H102     1.0000 0.05710  0.87540  0.10000  Biso   1.000  H
  H103     1.0000 0.17100  0.92200  0.06460  Biso   1.000  H
  H104     1.0000 0.12510  0.98780  0.19850  Biso   1.000  H
  H105     1.0000 0.00620  0.07090  0.22970  Biso   1.000  H
  H106     1.0000 0.01050  0.01010  0.27340  Biso   1.000  H
  H107     1.0000 0.83420  0.12040  0.17760  Biso   1.000  H
  H108     1.0000 0.88290  0.95570  0.25560  Biso   1.000  H
  H109     1.0000 0.94220  0.06720  0.14750  Biso   1.000  H
  H110     1.0000 0.98570  0.98570  0.16730  Biso   1.000  H
  H111     1.0000 0.99730  0.91990  0.20460  Biso   1.000  H
  O53      1.0000 0.94980  0.97430  0.22860  Biso   1.000  O
  O54      1.0000 0.05180  0.95330  0.17730  Biso   1.000  O
  Cu7      1.0000 0.72642  0.46532  0.83241  Biso   1.000  Cu
  Cu8      1.0000 0.76451  0.53679  0.75742  Biso   1.000  Cu
  C130     1.0000 0.61070  0.66130  0.60840  Biso   1.000  C
  O55      1.0000 0.68276  0.48830  0.78730  Biso   1.000  O
  C131     1.0000 0.61140  0.60950  0.65450  Biso   1.000  C
  O56      1.0000 0.71390  0.54540  0.72420  Biso   1.000  O
  O57      1.0000 0.64405  0.67500  0.59360  Biso   1.000  O
  C132     1.0000 0.64640  0.53930  0.72000  Biso   1.000  C
  O58      1.0000 0.57866  0.67740  0.59300  Biso   1.000  O
  C133     1.0000 0.68490  0.51950  0.74420  Biso   1.000  C
  C134     1.0000 0.64690  0.58800  0.67760  Biso   1.000  C
  H112     1.0000 0.67090  0.60590  0.66480  Biso   1.000  H
  C135     1.0000 0.61100  0.51400  0.73940  Biso   1.000  C
  H113     1.0000 0.61080  0.48150  0.76760  Biso   1.000  H
  O59      1.0000 0.54300  0.52130  0.74280  Biso   1.000  O
  C136     1.0000 0.50930  0.51290  0.71230  Biso   1.000  C
  H114     1.0000 0.51680  0.50530  0.67580  Biso   1.000  H
  H115     1.0000 0.49460  0.47030  0.72410  Biso   1.000  H
  C137     1.0000 0.48440  0.57660  0.71620  Biso   1.000  C
  H116     1.0000 0.48270  0.59210  0.75270  Biso   1.000  H
  H117     1.0000 0.49580  0.61620  0.69570  Biso   1.000  H
  C138     1.0000 0.44420  0.55930  0.69600  Biso   1.000  C
  H118     1.0000 0.42960  0.60390  0.68920  Biso   1.000  H
  H119     1.0000 0.42970  0.53060  0.72170  Biso   1.000  H
  O60      1.0000 0.44910  0.51820  0.64770  Biso   1.000  O
  C139     1.0000 0.41320  0.48690  0.62560  Biso   1.000  C
  C140     1.0000 0.41640  0.43430  0.58910  Biso   1.000  C
  H120     1.0000 0.44120  0.42590  0.57410  Biso   1.000  H
  C141     1.0000 0.35000  0.40720  0.59630  Biso   1.000  C
  H121     1.0000 0.32790  0.37970  0.58660  Biso   1.000  H
  C142     1.0000 0.37730  0.50120  0.64850  Biso   1.000  C
  H122     1.0000 0.37460  0.53790  0.67370  Biso   1.000  H
  C143     1.0000 0.57630  0.53760  0.71530  Biso   1.000  C
  C144     1.0000 0.57570  0.58500  0.67280  Biso   1.000  C
  H123     1.0000 0.55190  0.59950  0.65740  Biso   1.000  H
  O61      1.0000 0.42058  0.32250  0.51370  Biso   1.000  O
  O62      1.0000 0.35515  0.32230  0.51200  Biso   1.000  O
  O63      1.0000 0.27720  0.45670  0.63560  Biso   1.000  O
  O64      1.0000 0.30848  0.51730  0.69690  Biso   1.000  O
  C145     1.0000 0.38520  0.39220  0.57260  Biso   1.000  C
  C146     1.0000 0.34540  0.46030  0.63340  Biso   1.000  C
  C147     1.0000 0.30590  0.47560  0.65840  Biso   1.000  C
  C148     1.0000 0.38620  0.33510  0.53000  Biso   1.000  C
  C149     1.0000 0.73140  0.61360  0.84260  Biso   1.000  C
  O65      1.0000 0.72090  0.55850  0.86450  Biso   1.000  O
  C150     1.0000 0.72370  0.68320  0.86780  Biso   1.000  C
  O66      1.0000 0.75250  0.62210  0.80060  Biso   1.000  O
  C151     1.0000 0.70410  0.68420  0.91430  Biso   1.000  C
  H124     1.0000 0.69590  0.64090  0.93010  Biso   1.000  H
  O67      1.0000 0.72970  0.56050  0.22800  Biso   1.000  O
  O68      1.0000 0.76360  0.62140  0.29000  Biso   1.000  O
  C152     1.0000 0.71340  0.68820  0.18180  Biso   1.000  C
  H125     1.0000 0.70690  0.64380  0.16620  Biso   1.000  H
  C153     1.0000 0.73430  0.68547  0.22720  Biso   1.000  C
  C154     1.0000 0.74403  0.61480  0.25240  Biso   1.000  C
  C155     1.0000 0.49039  0.72960  0.57750  Biso   1.000  C
  N4       1.0000 0.50936  0.77040  0.53920  Biso   1.000  N
  C156     1.0000 0.48931  0.77040  0.49330  Biso   1.000  C
  C157     1.0000 0.44896  0.77040  0.49810  Biso   1.000  C
  C158     1.0000 0.42751  0.72960  0.53670  Biso   1.000  C
  C159     1.0000 0.45103  0.72960  0.58460  Biso   1.000  C
  O69      1.0000 0.67360  0.72630  0.98260  Biso   1.000  O
  O70      1.0000 0.67980  0.77640  0.11290  Biso   1.000  O
  C160     1.0000 0.65020  0.78220  0.00910  Biso   1.000  C
  C161     1.0000 0.65690  0.71590  0.09470  Biso   1.000  C
  H126     1.0000 0.50510  0.72960  0.60860  Biso   1.000  H
  H127     1.0000 0.50200  0.77040  0.46070  Biso   1.000  H
  H128     1.0000 0.43540  0.77040  0.46600  Biso   1.000  H
  H129     1.0000 0.39990  0.72960  0.53560  Biso   1.000  H
  H130     1.0000 0.43950  0.72960  0.61800  Biso   1.000  H
  H131     1.0000 0.61620  0.78780  0.07200  Biso   1.000  H
  H132     1.0000 0.61310  0.71330  0.04240  Biso   1.000  H
  H133     1.0000 0.63010  0.80120  0.98540  Biso   1.000  H
  H134     1.0000 0.66720  0.82230  0.01980  Biso   1.000  H
  H135     1.0000 0.67370  0.67840  0.07950  Biso   1.000  H
  H136     1.0000 0.64120  0.69490  0.12300  Biso   1.000  H
  C162     1.0000 0.44520  0.99400  0.71850  Biso   1.000  C
  C163     1.0000 0.41310  0.06740  0.65440  Biso   1.000  C
  C164     1.0000 0.41850  0.10340  0.60830  Biso   1.000  C
  C165     1.0000 0.35050  0.07530  0.58760  Biso   1.000  C
  C166     1.0000 0.37750  0.03650  0.66650  Biso   1.000  C
  C167     1.0000 0.48670  0.98000  0.73610  Biso   1.000  C
  C168     1.0000 0.64320  0.90760  0.68340  Biso   1.000  C
  C169     1.0000 0.61500  0.00720  0.73070  Biso   1.000  C
  C170     1.0000 0.58110  0.99590  0.70290  Biso   1.000  C
  C171     1.0000 0.58130  0.93900  0.66640  Biso   1.000  C
  C172     1.0000 0.51270  0.03040  0.70370  Biso   1.000  C
  H137     1.0000 0.43300  0.94950  0.70560  Biso   1.000  H
  H138     1.0000 0.42940  0.01290  0.74740  Biso   1.000  H
  H139     1.0000 0.44290  0.12460  0.60000  Biso   1.000  H
  H140     1.0000 0.32900  0.07800  0.56460  Biso   1.000  H
  H141     1.0000 0.37490  0.01220  0.69850  Biso   1.000  H
  H142     1.0000 0.49380  0.92910  0.72970  Biso   1.000  H
  H143     1.0000 0.48950  0.98990  0.77340  Biso   1.000  H
  H144     1.0000 0.66580  0.87960  0.67760  Biso   1.000  H
  H145     1.0000 0.61710  0.04430  0.75560  Biso   1.000  H
  H146     1.0000 0.55780  0.93280  0.64750  Biso   1.000  H
  H147     1.0000 0.51430  0.01430  0.66730  Biso   1.000  H
  H148     1.0000 0.50270  0.08010  0.70460  Biso   1.000  H
  O71      1.0000 0.55020  0.02570  0.72860  Biso   1.000  O
  O72      1.0000 0.44820  0.04670  0.67730  Biso   1.000  O
  Cu9      1.0000 0.77358  0.96532  0.33241  Biso   1.000  Cu
  Cu10     1.0000 0.73549  0.03679  0.25742  Biso   1.000  Cu
  C173     1.0000 0.88930  0.16130  0.10840  Biso   1.000  C
  O73      1.0000 0.81724  0.98830  0.28730  Biso   1.000  O
  C174     1.0000 0.88860  0.10950  0.15450  Biso   1.000  C
  O74      1.0000 0.78610  0.04540  0.22420  Biso   1.000  O
  O75      1.0000 0.85595  0.17500  0.09360  Biso   1.000  O
  C175     1.0000 0.85360  0.03930  0.22000  Biso   1.000  C
  O76      1.0000 0.92134  0.17740  0.09300  Biso   1.000  O
  C176     1.0000 0.81510  0.01950  0.24420  Biso   1.000  C
  C177     1.0000 0.85310  0.08800  0.17760  Biso   1.000  C
  H149     1.0000 0.82910  0.10590  0.16480  Biso   1.000  H
  C178     1.0000 0.88900  0.01400  0.23940  Biso   1.000  C
  H150     1.0000 0.88920  0.98150  0.26760  Biso   1.000  H
  O77      1.0000 0.95700  0.02130  0.24280  Biso   1.000  O
  C179     1.0000 0.99070  0.01290  0.21230  Biso   1.000  C
  H151     1.0000 0.98320  0.00530  0.17580  Biso   1.000  H
  H152     1.0000 0.00540  0.97030  0.22410  Biso   1.000  H
  C180     1.0000 0.01560  0.07660  0.21620  Biso   1.000  C
  H153     1.0000 0.01730  0.09210  0.25270  Biso   1.000  H
  H154     1.0000 0.00420  0.11620  0.19570  Biso   1.000  H
  C181     1.0000 0.05580  0.05930  0.19600  Biso   1.000  C
  H155     1.0000 0.07040  0.10390  0.18920  Biso   1.000  H
  H156     1.0000 0.07030  0.03060  0.22170  Biso   1.000  H
  O78      1.0000 0.05090  0.01820  0.14770  Biso   1.000  O
  C182     1.0000 0.08680  0.98690  0.12560  Biso   1.000  C
  C183     1.0000 0.08360  0.93430  0.08910  Biso   1.000  C
  H157     1.0000 0.05880  0.92590  0.07410  Biso   1.000  H
  C184     1.0000 0.15000  0.90720  0.09630  Biso   1.000  C
  H158     1.0000 0.17210  0.87970  0.08660  Biso   1.000  H
  C185     1.0000 0.12270  0.00120  0.14850  Biso   1.000  C
  H159     1.0000 0.12540  0.03790  0.17370  Biso   1.000  H
  C186     1.0000 0.92370  0.03760  0.21530  Biso   1.000  C
  C187     1.0000 0.92430  0.08500  0.17280  Biso   1.000  C
  H160     1.0000 0.94810  0.09950  0.15740  Biso   1.000  H
  O79      1.0000 0.07942  0.82250  0.01370  Biso   1.000  O
  O80      1.0000 0.14485  0.82230  0.01200  Biso   1.000  O
  O81      1.0000 0.22280  0.95670  0.13560  Biso   1.000  O
  O82      1.0000 0.19152  0.01730  0.19690  Biso   1.000  O
  C188     1.0000 0.11480  0.89220  0.07260  Biso   1.000  C
  C189     1.0000 0.15460  0.96030  0.13340  Biso   1.000  C
  C190     1.0000 0.19410  0.97560  0.15840  Biso   1.000  C
  C191     1.0000 0.11380  0.83510  0.03000  Biso   1.000  C
  C192     1.0000 0.76860  0.11360  0.34260  Biso   1.000  C
  O83      1.0000 0.77910  0.05850  0.36450  Biso   1.000  O
  C193     1.0000 0.77630  0.18320  0.36780  Biso   1.000  C
  O84      1.0000 0.74750  0.12210  0.30060  Biso   1.000  O
  C194     1.0000 0.79590  0.18420  0.41430  Biso   1.000  C
  H161     1.0000 0.80410  0.14090  0.43010  Biso   1.000  H
  O85      1.0000 0.77030  0.06050  0.72800  Biso   1.000  O
  O86      1.0000 0.73640  0.12140  0.79000  Biso   1.000  O
  C195     1.0000 0.78660  0.18820  0.68180  Biso   1.000  C
  H162     1.0000 0.79310  0.14380  0.66620  Biso   1.000  H
  C196     1.0000 0.76570  0.18547  0.72720  Biso   1.000  C
  C197     1.0000 0.75597  0.11480  0.75240  Biso   1.000  C
  C198     1.0000 0.00961  0.22960  0.07750  Biso   1.000  C
  N5       1.0000 0.99064  0.27040  0.03920  Biso   1.000  N
  C199     1.0000 0.01069  0.27040  0.99330  Biso   1.000  C
  C200     1.0000 0.05104  0.27040  0.99810  Biso   1.000  C
  C201     1.0000 0.07249  0.22960  0.03670  Biso   1.000  C
  C202     1.0000 0.04897  0.22960  0.08460  Biso   1.000  C
  O87      1.0000 0.82640  0.22630  0.48260  Biso   1.000  O
  O88      1.0000 0.82020  0.27640  0.61290  Biso   1.000  O
  C203     1.0000 0.84980  0.28220  0.50910  Biso   1.000  C
  C204     1.0000 0.84310  0.21590  0.59470  Biso   1.000  C
  H163     1.0000 0.99490  0.22960  0.10860  Biso   1.000  H
  H164     1.0000 0.99800  0.27040  0.96070  Biso   1.000  H
  H165     1.0000 0.06460  0.27040  0.96600  Biso   1.000  H
  H166     1.0000 0.10010  0.22960  0.03560  Biso   1.000  H
  H167     1.0000 0.06050  0.22960  0.11800  Biso   1.000  H
  H168     1.0000 0.88380  0.28780  0.57200  Biso   1.000  H
  H169     1.0000 0.88690  0.21330  0.54240  Biso   1.000  H
  H170     1.0000 0.86990  0.30120  0.48540  Biso   1.000  H
  H171     1.0000 0.83280  0.32230  0.51980  Biso   1.000  H
  H172     1.0000 0.82630  0.17840  0.57950  Biso   1.000  H
  H173     1.0000 0.85880  0.19490  0.62300  Biso   1.000  H
  C205     1.0000 0.05480  0.49400  0.21850  Biso   1.000  C
  C206     1.0000 0.08690  0.56740  0.15440  Biso   1.000  C
  C207     1.0000 0.08150  0.60340  0.10830  Biso   1.000  C
  C208     1.0000 0.14950  0.57530  0.08760  Biso   1.000  C
  C209     1.0000 0.12250  0.53650  0.16650  Biso   1.000  C
  C210     1.0000 0.01330  0.48000  0.23610  Biso   1.000  C
  C211     1.0000 0.85680  0.40760  0.18340  Biso   1.000  C
  C212     1.0000 0.88500  0.50720  0.23070  Biso   1.000  C
  C213     1.0000 0.91890  0.49590  0.20290  Biso   1.000  C
  C214     1.0000 0.91870  0.43900  0.16640  Biso   1.000  C
  C215     1.0000 0.98730  0.53040  0.20370  Biso   1.000  C
  H174     1.0000 0.06700  0.44950  0.20560  Biso   1.000  H
  H175     1.0000 0.07060  0.51290  0.24740  Biso   1.000  H
  H176     1.0000 0.05710  0.62460  0.10000  Biso   1.000  H
  H177     1.0000 0.17100  0.57800  0.06460  Biso   1.000  H
  H178     1.0000 0.12510  0.51220  0.19850  Biso   1.000  H
  H179     1.0000 0.00620  0.42910  0.22970  Biso   1.000  H
  H180     1.0000 0.01050  0.48990  0.27340  Biso   1.000  H
  H181     1.0000 0.83420  0.37960  0.17760  Biso   1.000  H
  H182     1.0000 0.88290  0.54430  0.25560  Biso   1.000  H
  H183     1.0000 0.94220  0.43280  0.14750  Biso   1.000  H
  H184     1.0000 0.98570  0.51430  0.16730  Biso   1.000  H
  H185     1.0000 0.99730  0.58010  0.20460  Biso   1.000  H
  O89      1.0000 0.94980  0.52570  0.22860  Biso   1.000  O
  O90      1.0000 0.05180  0.54670  0.17730  Biso   1.000  O
  Cu11     1.0000 0.72642  0.03468  0.83241  Biso   1.000  Cu
  Cu12     1.0000 0.76451  0.96321  0.75742  Biso   1.000  Cu
  C216     1.0000 0.61070  0.83870  0.60840  Biso   1.000  C
  O91      1.0000 0.68276  0.01170  0.78730  Biso   1.000  O
  C217     1.0000 0.61140  0.89050  0.65450  Biso   1.000  C
  O92      1.0000 0.71390  0.95460  0.72420  Biso   1.000  O
  O93      1.0000 0.64405  0.82500  0.59360  Biso   1.000  O
  C218     1.0000 0.64640  0.96070  0.72000  Biso   1.000  C
  O94      1.0000 0.57866  0.82260  0.59300  Biso   1.000  O
  C219     1.0000 0.68490  0.98050  0.74420  Biso   1.000  C
  C220     1.0000 0.64690  0.91200  0.67760  Biso   1.000  C
  H186     1.0000 0.67090  0.89410  0.66480  Biso   1.000  H
  C221     1.0000 0.61100  0.98600  0.73940  Biso   1.000  C
  H187     1.0000 0.61080  0.01850  0.76760  Biso   1.000  H
  O95      1.0000 0.54300  0.97870  0.74280  Biso   1.000  O
  C222     1.0000 0.50930  0.98710  0.71230  Biso   1.000  C
  H188     1.0000 0.51680  0.99470  0.67580  Biso   1.000  H
  H189     1.0000 0.49460  0.02970  0.72410  Biso   1.000  H
  C223     1.0000 0.48440  0.92340  0.71620  Biso   1.000  C
  H190     1.0000 0.48270  0.90790  0.75270  Biso   1.000  H
  H191     1.0000 0.49580  0.88380  0.69570  Biso   1.000  H
  C224     1.0000 0.44420  0.94070  0.69600  Biso   1.000  C
  H192     1.0000 0.42960  0.89610  0.68920  Biso   1.000  H
  H193     1.0000 0.42970  0.96940  0.72170  Biso   1.000  H
  O96      1.0000 0.44910  0.98180  0.64770  Biso   1.000  O
  C225     1.0000 0.41320  0.01310  0.62560  Biso   1.000  C
  C226     1.0000 0.41640  0.06570  0.58910  Biso   1.000  C
  H194     1.0000 0.44120  0.07410  0.57410  Biso   1.000  H
  C227     1.0000 0.35000  0.09280  0.59630  Biso   1.000  C
  H195     1.0000 0.32790  0.12030  0.58660  Biso   1.000  H
  C228     1.0000 0.37730  0.99880  0.64850  Biso   1.000  C
  H196     1.0000 0.37460  0.96210  0.67370  Biso   1.000  H
  C229     1.0000 0.57630  0.96240  0.71530  Biso   1.000  C
  C230     1.0000 0.57570  0.91500  0.67280  Biso   1.000  C
  H197     1.0000 0.55190  0.90050  0.65740  Biso   1.000  H
  O97      1.0000 0.42058  0.17750  0.51370  Biso   1.000  O
  O98      1.0000 0.35515  0.17770  0.51200  Biso   1.000  O
  O99      1.0000 0.27720  0.04330  0.63560  Biso   1.000  O
  O100     1.0000 0.30848  0.98270  0.69690  Biso   1.000  O
  C231     1.0000 0.38520  0.10780  0.57260  Biso   1.000  C
  C232     1.0000 0.34540  0.03970  0.63340  Biso   1.000  C
  C233     1.0000 0.30590  0.02440  0.65840  Biso   1.000  C
  C234     1.0000 0.38620  0.16490  0.53000  Biso   1.000  C
  C235     1.0000 0.73140  0.88640  0.84260  Biso   1.000  C
  O101     1.0000 0.72090  0.94150  0.86450  Biso   1.000  O
  C236     1.0000 0.72370  0.81680  0.86780  Biso   1.000  C
  O102     1.0000 0.75250  0.87790  0.80060  Biso   1.000  O
  C237     1.0000 0.70410  0.81580  0.91430  Biso   1.000  C
  H198     1.0000 0.69590  0.85910  0.93010  Biso   1.000  H
  O103     1.0000 0.72970  0.93950  0.22800  Biso   1.000  O
  O104     1.0000 0.76360  0.87860  0.29000  Biso   1.000  O
  C238     1.0000 0.71340  0.81180  0.18180  Biso   1.000  C
  H199     1.0000 0.70690  0.85620  0.16620  Biso   1.000  H
  C239     1.0000 0.73430  0.81453  0.22720  Biso   1.000  C
  C240     1.0000 0.74403  0.88520  0.25240  Biso   1.000  C
  C241     1.0000 0.49039  0.77040  0.57750  Biso   1.000  C
  N6       1.0000 0.50936  0.72960  0.53920  Biso   1.000  N
  C242     1.0000 0.48931  0.72960  0.49330  Biso   1.000  C
  C243     1.0000 0.44896  0.72960  0.49810  Biso   1.000  C
  C244     1.0000 0.42751  0.77040  0.53670  Biso   1.000  C
  C245     1.0000 0.45103  0.77040  0.58460  Biso   1.000  C
  O105     1.0000 0.67360  0.77370  0.98260  Biso   1.000  O
  O106     1.0000 0.67980  0.72360  0.11290  Biso   1.000  O
  C246     1.0000 0.65020  0.71780  0.00910  Biso   1.000  C
  C247     1.0000 0.65690  0.78410  0.09470  Biso   1.000  C
  H200     1.0000 0.50510  0.77040  0.60860  Biso   1.000  H
  H201     1.0000 0.50200  0.72960  0.46070  Biso   1.000  H
  H202     1.0000 0.43540  0.72960  0.46600  Biso   1.000  H
  H203     1.0000 0.39990  0.77040  0.53560  Biso   1.000  H
  H204     1.0000 0.43950  0.77040  0.61800  Biso   1.000  H
  H205     1.0000 0.61620  0.71220  0.07200  Biso   1.000  H
  H206     1.0000 0.61310  0.78670  0.04240  Biso   1.000  H
  H207     1.0000 0.63010  0.69880  0.98540  Biso   1.000  H
  H208     1.0000 0.66720  0.67770  0.01980  Biso   1.000  H
  H209     1.0000 0.67370  0.82160  0.07950  Biso   1.000  H
  H210     1.0000 0.64120  0.80510  0.12300  Biso   1.000  H
  C248     1.0000 0.44520  0.50600  0.71850  Biso   1.000  C
  C249     1.0000 0.41310  0.43260  0.65440  Biso   1.000  C
  C250     1.0000 0.41850  0.39660  0.60830  Biso   1.000  C
  C251     1.0000 0.35050  0.42470  0.58760  Biso   1.000  C
  C252     1.0000 0.37750  0.46350  0.66650  Biso   1.000  C
  C253     1.0000 0.48670  0.52000  0.73610  Biso   1.000  C
  C254     1.0000 0.64320  0.59240  0.68340  Biso   1.000  C
  C255     1.0000 0.61500  0.49280  0.73070  Biso   1.000  C
  C256     1.0000 0.58110  0.50410  0.70290  Biso   1.000  C
  C257     1.0000 0.58130  0.56100  0.66640  Biso   1.000  C
  C258     1.0000 0.51270  0.46960  0.70370  Biso   1.000  C
  H211     1.0000 0.43300  0.55050  0.70560  Biso   1.000  H
  H212     1.0000 0.42940  0.48710  0.74740  Biso   1.000  H
  H213     1.0000 0.44290  0.37540  0.60000  Biso   1.000  H
  H214     1.0000 0.32900  0.42200  0.56460  Biso   1.000  H
  H215     1.0000 0.37490  0.48780  0.69850  Biso   1.000  H
  H216     1.0000 0.49380  0.57090  0.72970  Biso   1.000  H
  H217     1.0000 0.48950  0.51010  0.77340  Biso   1.000  H
  H218     1.0000 0.66580  0.62040  0.67760  Biso   1.000  H
  H219     1.0000 0.61710  0.45570  0.75560  Biso   1.000  H
  H220     1.0000 0.55780  0.56720  0.64750  Biso   1.000  H
  H221     1.0000 0.51430  0.48570  0.66730  Biso   1.000  H
  H222     1.0000 0.50270  0.41990  0.70460  Biso   1.000  H
  O107     1.0000 0.55020  0.47430  0.72860  Biso   1.000  O
  O108     1.0000 0.44820  0.45330  0.67730  Biso   1.000  O
  Cu13     1.0000 0.22642  0.46532  0.66759  Biso   1.000  Cu
  Cu14     1.0000 0.26451  0.53679  0.74258  Biso   1.000  Cu
  C259     1.0000 0.11070  0.66130  0.89160  Biso   1.000  C
  O109     1.0000 0.18276  0.48830  0.71270  Biso   1.000  O
  C260     1.0000 0.11140  0.60950  0.84550  Biso   1.000  C
  O110     1.0000 0.21390  0.54540  0.77580  Biso   1.000  O
  O111     1.0000 0.14405  0.67500  0.90640  Biso   1.000  O
  C261     1.0000 0.14640  0.53930  0.78000  Biso   1.000  C
  O112     1.0000 0.07866  0.67740  0.90700  Biso   1.000  O
  C262     1.0000 0.18490  0.51950  0.75580  Biso   1.000  C
  C263     1.0000 0.14690  0.58800  0.82240  Biso   1.000  C
  H223     1.0000 0.17090  0.60590  0.83520  Biso   1.000  H
  C264     1.0000 0.11100  0.51400  0.76060  Biso   1.000  C
  H224     1.0000 0.11080  0.48150  0.73240  Biso   1.000  H
  O113     1.0000 0.04300  0.52130  0.75720  Biso   1.000  O
  C265     1.0000 0.00930  0.51290  0.78770  Biso   1.000  C
  H225     1.0000 0.01680  0.50530  0.82420  Biso   1.000  H
  H226     1.0000 0.99460  0.47030  0.77590  Biso   1.000  H
  C266     1.0000 0.98440  0.57660  0.78380  Biso   1.000  C
  H227     1.0000 0.98270  0.59210  0.74730  Biso   1.000  H
  H228     1.0000 0.99580  0.61620  0.80430  Biso   1.000  H
  C267     1.0000 0.94420  0.55930  0.80400  Biso   1.000  C
  H229     1.0000 0.92960  0.60390  0.81080  Biso   1.000  H
  H230     1.0000 0.92970  0.53060  0.77830  Biso   1.000  H
  O114     1.0000 0.94910  0.51820  0.85230  Biso   1.000  O
  C268     1.0000 0.91320  0.48690  0.87440  Biso   1.000  C
  C269     1.0000 0.91640  0.43430  0.91090  Biso   1.000  C
  H231     1.0000 0.94120  0.42590  0.92590  Biso   1.000  H
  C270     1.0000 0.85000  0.40720  0.90370  Biso   1.000  C
  H232     1.0000 0.82790  0.37970  0.91340  Biso   1.000  H
  C271     1.0000 0.87730  0.50120  0.85150  Biso   1.000  C
  H233     1.0000 0.87460  0.53790  0.82630  Biso   1.000  H
  C272     1.0000 0.07630  0.53760  0.78470  Biso   1.000  C
  C273     1.0000 0.07570  0.58500  0.82720  Biso   1.000  C
  H234     1.0000 0.05190  0.59950  0.84260  Biso   1.000  H
  O115     1.0000 0.92058  0.32250  0.98630  Biso   1.000  O
  O116     1.0000 0.85515  0.32230  0.98800  Biso   1.000  O
  O117     1.0000 0.77720  0.45670  0.86440  Biso   1.000  O
  O118     1.0000 0.80848  0.51730  0.80310  Biso   1.000  O
  C274     1.0000 0.88520  0.39220  0.92740  Biso   1.000  C
  C275     1.0000 0.84540  0.46030  0.86660  Biso   1.000  C
  C276     1.0000 0.80590  0.47560  0.84160  Biso   1.000  C
  C277     1.0000 0.88620  0.33510  0.97000  Biso   1.000  C
  C278     1.0000 0.23140  0.61360  0.65740  Biso   1.000  C
  O119     1.0000 0.22090  0.55850  0.63550  Biso   1.000  O
  C279     1.0000 0.22370  0.68320  0.63220  Biso   1.000  C
  O120     1.0000 0.25250  0.62210  0.69940  Biso   1.000  O
  C280     1.0000 0.20410  0.68420  0.58570  Biso   1.000  C
  H235     1.0000 0.19590  0.64090  0.56990  Biso   1.000  H
  O121     1.0000 0.22970  0.56050  0.27200  Biso   1.000  O
  O122     1.0000 0.26360  0.62140  0.21000  Biso   1.000  O
  C281     1.0000 0.21340  0.68820  0.31820  Biso   1.000  C
  H236     1.0000 0.20690  0.64380  0.33380  Biso   1.000  H
  C282     1.0000 0.23430  0.68547  0.27280  Biso   1.000  C
  C283     1.0000 0.24403  0.61480  0.24760  Biso   1.000  C
  C284     1.0000 0.99039  0.72960  0.92250  Biso   1.000  C
  N7       1.0000 0.00936  0.77040  0.96080  Biso   1.000  N
  C285     1.0000 0.98931  0.77040  0.00670  Biso   1.000  C
  C286     1.0000 0.94896  0.77040  0.00190  Biso   1.000  C
  C287     1.0000 0.92751  0.72960  0.96330  Biso   1.000  C
  C288     1.0000 0.95103  0.72960  0.91540  Biso   1.000  C
  O123     1.0000 0.17360  0.72630  0.51740  Biso   1.000  O
  O124     1.0000 0.17980  0.77640  0.38710  Biso   1.000  O
  C289     1.0000 0.15020  0.78220  0.49090  Biso   1.000  C
  C290     1.0000 0.15690  0.71590  0.40530  Biso   1.000  C
  H237     1.0000 0.00510  0.72960  0.89140  Biso   1.000  H
  H238     1.0000 0.00200  0.77040  0.03930  Biso   1.000  H
  H239     1.0000 0.93540  0.77040  0.03400  Biso   1.000  H
  H240     1.0000 0.89990  0.72960  0.96440  Biso   1.000  H
  H241     1.0000 0.93950  0.72960  0.88200  Biso   1.000  H
  H242     1.0000 0.11620  0.78780  0.42800  Biso   1.000  H
  H243     1.0000 0.11310  0.71330  0.45760  Biso   1.000  H
  H244     1.0000 0.13010  0.80120  0.51460  Biso   1.000  H
  H245     1.0000 0.16720  0.82230  0.48020  Biso   1.000  H
  H246     1.0000 0.17370  0.67840  0.42050  Biso   1.000  H
  H247     1.0000 0.14120  0.69490  0.37700  Biso   1.000  H
  C291     1.0000 0.94520  0.99400  0.78150  Biso   1.000  C
  C292     1.0000 0.91310  0.06740  0.84560  Biso   1.000  C
  C293     1.0000 0.91850  0.10340  0.89170  Biso   1.000  C
  C294     1.0000 0.85050  0.07530  0.91240  Biso   1.000  C
  C295     1.0000 0.87750  0.03650  0.83350  Biso   1.000  C
  C296     1.0000 0.98670  0.98000  0.76390  Biso   1.000  C
  C297     1.0000 0.14320  0.90760  0.81660  Biso   1.000  C
  C298     1.0000 0.11500  0.00720  0.76930  Biso   1.000  C
  C299     1.0000 0.08110  0.99590  0.79710  Biso   1.000  C
  C300     1.0000 0.08130  0.93900  0.83360  Biso   1.000  C
  C301     1.0000 0.01270  0.03040  0.79630  Biso   1.000  C
  H248     1.0000 0.93300  0.94950  0.79440  Biso   1.000  H
  H249     1.0000 0.92940  0.01290  0.75260  Biso   1.000  H
  H250     1.0000 0.94290  0.12460  0.90000  Biso   1.000  H
  H251     1.0000 0.82900  0.07800  0.93540  Biso   1.000  H
  H252     1.0000 0.87490  0.01220  0.80150  Biso   1.000  H
  H253     1.0000 0.99380  0.92910  0.77030  Biso   1.000  H
  H254     1.0000 0.98950  0.98990  0.72660  Biso   1.000  H
  H255     1.0000 0.16580  0.87960  0.82240  Biso   1.000  H
  H256     1.0000 0.11710  0.04430  0.74440  Biso   1.000  H
  H257     1.0000 0.05780  0.93280  0.85250  Biso   1.000  H
  H258     1.0000 0.01430  0.01430  0.83270  Biso   1.000  H
  H259     1.0000 0.00270  0.08010  0.79540  Biso   1.000  H
  O125     1.0000 0.05020  0.02570  0.77140  Biso   1.000  O
  O126     1.0000 0.94820  0.04670  0.82270  Biso   1.000  O
  Cu15     1.0000 0.27358  0.53468  0.16759  Biso   1.000  Cu
  Cu16     1.0000 0.23549  0.46321  0.24258  Biso   1.000  Cu
  C302     1.0000 0.38930  0.33870  0.39160  Biso   1.000  C
  O127     1.0000 0.31724  0.51170  0.21270  Biso   1.000  O
  C303     1.0000 0.38860  0.39050  0.34550  Biso   1.000  C
  O128     1.0000 0.28610  0.45460  0.27580  Biso   1.000  O
  O129     1.0000 0.35595  0.32500  0.40640  Biso   1.000  O
  C304     1.0000 0.35360  0.46070  0.28000  Biso   1.000  C
  O130     1.0000 0.42134  0.32260  0.40700  Biso   1.000  O
  C305     1.0000 0.31510  0.48050  0.25580  Biso   1.000  C
  C306     1.0000 0.35310  0.41200  0.32240  Biso   1.000  C
  H260     1.0000 0.32910  0.39410  0.33520  Biso   1.000  H
  C307     1.0000 0.38900  0.48600  0.26060  Biso   1.000  C
  H261     1.0000 0.38920  0.51850  0.23240  Biso   1.000  H
  O131     1.0000 0.45700  0.47870  0.25720  Biso   1.000  O
  C308     1.0000 0.49070  0.48710  0.28770  Biso   1.000  C
  H262     1.0000 0.48320  0.49470  0.32420  Biso   1.000  H
  H263     1.0000 0.50540  0.52970  0.27590  Biso   1.000  H
  C309     1.0000 0.51560  0.42340  0.28380  Biso   1.000  C
  H264     1.0000 0.51730  0.40790  0.24730  Biso   1.000  H
  H265     1.0000 0.50420  0.38380  0.30430  Biso   1.000  H
  C310     1.0000 0.55580  0.44070  0.30400  Biso   1.000  C
  H266     1.0000 0.57040  0.39610  0.31080  Biso   1.000  H
  H267     1.0000 0.57030  0.46940  0.27830  Biso   1.000  H
  O132     1.0000 0.55090  0.48180  0.35230  Biso   1.000  O
  C311     1.0000 0.58680  0.51310  0.37440  Biso   1.000  C
  C312     1.0000 0.58360  0.56570  0.41090  Biso   1.000  C
  H268     1.0000 0.55880  0.57410  0.42590  Biso   1.000  H
  C313     1.0000 0.65000  0.59280  0.40370  Biso   1.000  C
  H269     1.0000 0.67210  0.62030  0.41340  Biso   1.000  H
  C314     1.0000 0.62270  0.49880  0.35150  Biso   1.000  C
  H270     1.0000 0.62540  0.46210  0.32630  Biso   1.000  H
  C315     1.0000 0.42370  0.46240  0.28470  Biso   1.000  C
  C316     1.0000 0.42430  0.41500  0.32720  Biso   1.000  C
  H271     1.0000 0.44810  0.40050  0.34260  Biso   1.000  H
  O133     1.0000 0.57942  0.67750  0.48630  Biso   1.000  O
  O134     1.0000 0.64485  0.67770  0.48800  Biso   1.000  O
  O135     1.0000 0.72280  0.54330  0.36440  Biso   1.000  O
  O136     1.0000 0.69152  0.48270  0.30310  Biso   1.000  O
  C317     1.0000 0.61480  0.60780  0.42740  Biso   1.000  C
  C318     1.0000 0.65460  0.53970  0.36660  Biso   1.000  C
  C319     1.0000 0.69410  0.52440  0.34160  Biso   1.000  C
  C320     1.0000 0.61380  0.66490  0.47000  Biso   1.000  C
  C321     1.0000 0.26860  0.38640  0.15740  Biso   1.000  C
  O137     1.0000 0.27910  0.44150  0.13550  Biso   1.000  O
  C322     1.0000 0.27630  0.31680  0.13220  Biso   1.000  C
  O138     1.0000 0.24750  0.37790  0.19940  Biso   1.000  O
  C323     1.0000 0.29590  0.31580  0.08570  Biso   1.000  C
  H272     1.0000 0.30410  0.35910  0.06990  Biso   1.000  H
  O139     1.0000 0.27030  0.43950  0.77200  Biso   1.000  O
  O140     1.0000 0.23640  0.37860  0.71000  Biso   1.000  O
  C324     1.0000 0.28660  0.31180  0.81820  Biso   1.000  C
  H273     1.0000 0.29310  0.35620  0.83380  Biso   1.000  H
  C325     1.0000 0.26570  0.31453  0.77280  Biso   1.000  C
  C326     1.0000 0.25597  0.38520  0.74760  Biso   1.000  C
  C327     1.0000 0.50961  0.27040  0.42250  Biso   1.000  C
  N8       1.0000 0.49064  0.22960  0.46080  Biso   1.000  N
  C328     1.0000 0.51069  0.22960  0.50670  Biso   1.000  C
  C329     1.0000 0.55104  0.22960  0.50190  Biso   1.000  C
  C330     1.0000 0.57249  0.27040  0.46330  Biso   1.000  C
  C331     1.0000 0.54897  0.27040  0.41540  Biso   1.000  C
  O141     1.0000 0.32640  0.27370  0.01740  Biso   1.000  O
  O142     1.0000 0.32020  0.22360  0.88710  Biso   1.000  O
  C332     1.0000 0.34980  0.21780  0.99090  Biso   1.000  C
  C333     1.0000 0.34310  0.28410  0.90530  Biso   1.000  C
  H274     1.0000 0.49490  0.27040  0.39140  Biso   1.000  H
  H275     1.0000 0.49800  0.22960  0.53930  Biso   1.000  H
  H276     1.0000 0.56460  0.22960  0.53400  Biso   1.000  H
  H277     1.0000 0.60010  0.27040  0.46440  Biso   1.000  H
  H278     1.0000 0.56050  0.27040  0.38200  Biso   1.000  H
  H279     1.0000 0.38380  0.21220  0.92800  Biso   1.000  H
  H280     1.0000 0.38690  0.28670  0.95760  Biso   1.000  H
  H281     1.0000 0.36990  0.19880  0.01460  Biso   1.000  H
  H282     1.0000 0.33280  0.17770  0.98020  Biso   1.000  H
  H283     1.0000 0.32630  0.32160  0.92050  Biso   1.000  H
  H284     1.0000 0.35880  0.30510  0.87700  Biso   1.000  H
  C334     1.0000 0.55480  0.00600  0.28150  Biso   1.000  C
  C335     1.0000 0.58690  0.93260  0.34560  Biso   1.000  C
  C336     1.0000 0.58150  0.89660  0.39170  Biso   1.000  C
  C337     1.0000 0.64950  0.92470  0.41240  Biso   1.000  C
  C338     1.0000 0.62250  0.96350  0.33350  Biso   1.000  C
  C339     1.0000 0.51330  0.02000  0.26390  Biso   1.000  C
  C340     1.0000 0.35680  0.09240  0.31660  Biso   1.000  C
  C341     1.0000 0.38500  0.99280  0.26930  Biso   1.000  C
  C342     1.0000 0.41890  0.00410  0.29710  Biso   1.000  C
  C343     1.0000 0.41870  0.06100  0.33360  Biso   1.000  C
  C344     1.0000 0.48730  0.96960  0.29630  Biso   1.000  C
  H285     1.0000 0.56700  0.05050  0.29440  Biso   1.000  H
  H286     1.0000 0.57060  0.98710  0.25260  Biso   1.000  H
  H287     1.0000 0.55710  0.87540  0.40000  Biso   1.000  H
  H288     1.0000 0.67100  0.92200  0.43540  Biso   1.000  H
  H289     1.0000 0.62510  0.98780  0.30150  Biso   1.000  H
  H290     1.0000 0.50620  0.07090  0.27030  Biso   1.000  H
  H291     1.0000 0.51050  0.01010  0.22660  Biso   1.000  H
  H292     1.0000 0.33420  0.12040  0.32240  Biso   1.000  H
  H293     1.0000 0.38290  0.95570  0.24440  Biso   1.000  H
  H294     1.0000 0.44220  0.06720  0.35250  Biso   1.000  H
  H295     1.0000 0.48570  0.98570  0.33270  Biso   1.000  H
  H296     1.0000 0.49730  0.91990  0.29540  Biso   1.000  H
  O143     1.0000 0.44980  0.97430  0.27140  Biso   1.000  O
  O144     1.0000 0.55180  0.95330  0.32270  Biso   1.000  O
  Cu17     1.0000 0.15003  0.75000  0.95891  Biso   1.000  Cu
  Cu18     1.0000 0.07238  0.75000  0.96060  Biso   1.000  Cu
  C345     1.0000 0.23490  0.75000  0.65150  Biso   1.000  C
  H297     1.0000 0.25180  0.75000  0.68060  Biso   1.000  H
  C346     1.0000 0.19660  0.75000  0.56220  Biso   1.000  C
  C347     1.0000 0.20110  0.75000  0.34320  Biso   1.000  C
  C348     1.0000 0.24700  0.75000  0.25170  Biso   1.000  C
  H298     1.0000 0.26420  0.75000  0.22300  Biso   1.000  H
  C349     1.0000 0.13170  0.75000  0.44520  Biso   1.000  C
  Cu19     1.0000 0.34997  0.25000  0.45891  Biso   1.000  Cu
  Cu20     1.0000 0.42762  0.25000  0.46060  Biso   1.000  Cu
  C350     1.0000 0.26510  0.25000  0.15150  Biso   1.000  C
  H299     1.0000 0.24820  0.25000  0.18060  Biso   1.000  H
  C351     1.0000 0.30340  0.25000  0.06220  Biso   1.000  C
  C352     1.0000 0.29890  0.25000  0.84320  Biso   1.000  C
  C353     1.0000 0.25300  0.25000  0.75170  Biso   1.000  C
  H300     1.0000 0.23580  0.25000  0.72300  Biso   1.000  H
  C354     1.0000 0.36830  0.25000  0.94520  Biso   1.000  C
  Cu21     1.0000 0.84997  0.25000  0.04109  Biso   1.000  Cu
  Cu22     1.0000 0.92762  0.25000  0.03940  Biso   1.000  Cu
  C355     1.0000 0.76510  0.25000  0.34850  Biso   1.000  C
  H301     1.0000 0.74820  0.25000  0.31940  Biso   1.000  H
  C356     1.0000 0.80340  0.25000  0.43780  Biso   1.000  C
  C357     1.0000 0.79890  0.25000  0.65680  Biso   1.000  C
  C358     1.0000 0.75300  0.25000  0.74830  Biso   1.000  C
  H302     1.0000 0.73580  0.25000  0.77700  Biso   1.000  H
  C359     1.0000 0.86830  0.25000  0.55480  Biso   1.000  C
  Cu23     1.0000 0.65003  0.75000  0.54109  Biso   1.000  Cu
  Cu24     1.0000 0.57238  0.75000  0.53940  Biso   1.000  Cu
  C360     1.0000 0.73490  0.75000  0.84850  Biso   1.000  C
  H303     1.0000 0.75180  0.75000  0.81940  Biso   1.000  H
  C361     1.0000 0.69660  0.75000  0.93780  Biso   1.000  C
  C362     1.0000 0.70110  0.75000  0.15680  Biso   1.000  C
  C363     1.0000 0.74700  0.75000  0.24830  Biso   1.000  C
  H304     1.0000 0.76420  0.75000  0.27700  Biso   1.000  H
  C364     1.0000 0.63170  0.75000  0.05480  Biso   1.000  C
