data_image0
_cell_length_a       29.2582
_cell_length_b       29.2582
_cell_length_c       29.2582
_cell_angle_alpha    90
_cell_angle_beta     90
_cell_angle_gamma    90

_symmetry_space_group_name_H-M    "P 1"
_symmetry_int_tables_number       1

loop_
  _symmetry_equiv_pos_as_xyz
  'x, y, z'

loop_
  _atom_site_label
  _atom_site_occupancy
  _atom_site_fract_x
  _atom_site_fract_y
  _atom_site_fract_z
  _atom_site_thermal_displace_type
  _atom_site_B_iso_or_equiv
  _atom_site_type_symbol
  N1       1.0000 0.23073  0.38610  0.03823  Biso   1.000  N
  N2       1.0000 0.19408  0.38172  0.14001  Biso   1.000  N
  C1       1.0000 0.20110  0.35506  0.02312  Biso   1.000  C
  H1       1.0000 0.18260  0.33570  0.04210  Biso   1.000  H
  H2       1.0000 0.28430  0.45960  0.02660  Biso   1.000  H
  H3       1.0000 0.33850  0.39930  0.02680  Biso   1.000  H
  C2       1.0000 0.14928  0.38964  0.11643  Biso   1.000  C
  H4       1.0000 0.14470  0.39360  0.08420  Biso   1.000  H
  H5       1.0000 0.20790  0.38830  0.24560  Biso   1.000  H
  C3       1.0000 0.18350  0.38499  0.02336  Biso   1.000  C
  H6       1.0000 0.15710  0.38430  0.04280  Biso   1.000  H
  H7       1.0000 0.31660  0.37280  0.97350  Biso   1.000  H
  H8       1.0000 0.31310  0.45330  0.97320  Biso   1.000  H
  H9       1.0000 0.19970  0.30920  0.23760  Biso   1.000  H
  C4       1.0000 0.16629  0.34291  0.13304  Biso   1.000  C
  H10      1.0000 0.17000  0.32050  0.10930  Biso   1.000  H
  H11      1.0000 0.18420  0.45170  0.22180  Biso   1.000  H
  H12      1.0000 0.22840  0.39710  0.25720  Biso   1.000  H
  O1       1.0000 0.24000  0.47700  0.28200  Biso   1.000  O
  H13      1.0000 0.25620  0.45340  0.27940  Biso   1.000  H
  H14      1.0000 0.23660  0.47880  0.21750  Biso   1.000  H
  H15      1.0000 0.26360  0.51350  0.23330  Biso   1.000  H
  N3       1.0000 0.73073  0.88610  0.53823  Biso   1.000  N
  N4       1.0000 0.69408  0.88172  0.64001  Biso   1.000  N
  C5       1.0000 0.70110  0.85506  0.52312  Biso   1.000  C
  H16      1.0000 0.68260  0.83570  0.54210  Biso   1.000  H
  H17      1.0000 0.78430  0.95960  0.52660  Biso   1.000  H
  H18      1.0000 0.83850  0.89930  0.52680  Biso   1.000  H
  C6       1.0000 0.64928  0.88964  0.61643  Biso   1.000  C
  H19      1.0000 0.64470  0.89360  0.58420  Biso   1.000  H
  H20      1.0000 0.70790  0.88830  0.74560  Biso   1.000  H
  C7       1.0000 0.68350  0.88499  0.52336  Biso   1.000  C
  H21      1.0000 0.65710  0.88430  0.54280  Biso   1.000  H
  H22      1.0000 0.81660  0.87280  0.47350  Biso   1.000  H
  H23      1.0000 0.81310  0.95330  0.47320  Biso   1.000  H
  H24      1.0000 0.69970  0.80920  0.73760  Biso   1.000  H
  C8       1.0000 0.66629  0.84291  0.63304  Biso   1.000  C
  H25      1.0000 0.67000  0.82050  0.60930  Biso   1.000  H
  H26      1.0000 0.68420  0.95170  0.72180  Biso   1.000  H
  H27      1.0000 0.72840  0.89710  0.75720  Biso   1.000  H
  O2       1.0000 0.74000  0.97700  0.78200  Biso   1.000  O
  H28      1.0000 0.75620  0.95340  0.77940  Biso   1.000  H
  H29      1.0000 0.73660  0.97880  0.71750  Biso   1.000  H
  H30      1.0000 0.76360  0.01350  0.73330  Biso   1.000  H
  N5       1.0000 0.76927  0.61390  0.03823  Biso   1.000  N
  N6       1.0000 0.80592  0.61828  0.14001  Biso   1.000  N
  C9       1.0000 0.79890  0.64494  0.02312  Biso   1.000  C
  H31      1.0000 0.81740  0.66430  0.04210  Biso   1.000  H
  H32      1.0000 0.71570  0.54040  0.02660  Biso   1.000  H
  H33      1.0000 0.66150  0.60070  0.02680  Biso   1.000  H
  C10      1.0000 0.85072  0.61036  0.11643  Biso   1.000  C
  H34      1.0000 0.85530  0.60640  0.08420  Biso   1.000  H
  H35      1.0000 0.79210  0.61170  0.24560  Biso   1.000  H
  C11      1.0000 0.81650  0.61501  0.02336  Biso   1.000  C
  H36      1.0000 0.84290  0.61570  0.04280  Biso   1.000  H
  H37      1.0000 0.68340  0.62720  0.97350  Biso   1.000  H
  H38      1.0000 0.68690  0.54670  0.97320  Biso   1.000  H
  H39      1.0000 0.80030  0.69080  0.23760  Biso   1.000  H
  C12      1.0000 0.83371  0.65709  0.13304  Biso   1.000  C
  H40      1.0000 0.83000  0.67950  0.10930  Biso   1.000  H
  H41      1.0000 0.81580  0.54830  0.22180  Biso   1.000  H
  H42      1.0000 0.77160  0.60290  0.25720  Biso   1.000  H
  O3       1.0000 0.76000  0.52300  0.28200  Biso   1.000  O
  H43      1.0000 0.74380  0.54660  0.27940  Biso   1.000  H
  H44      1.0000 0.76340  0.52120  0.21750  Biso   1.000  H
  H45      1.0000 0.73640  0.48650  0.23330  Biso   1.000  H
  N7       1.0000 0.26927  0.11390  0.53823  Biso   1.000  N
  N8       1.0000 0.30592  0.11828  0.64001  Biso   1.000  N
  C13      1.0000 0.29890  0.14494  0.52312  Biso   1.000  C
  H46      1.0000 0.31740  0.16430  0.54210  Biso   1.000  H
  H47      1.0000 0.21570  0.04040  0.52660  Biso   1.000  H
  H48      1.0000 0.16150  0.10070  0.52680  Biso   1.000  H
  C14      1.0000 0.35072  0.11036  0.61643  Biso   1.000  C
  H49      1.0000 0.35530  0.10640  0.58420  Biso   1.000  H
  H50      1.0000 0.29210  0.11170  0.74560  Biso   1.000  H
  C15      1.0000 0.31650  0.11501  0.52336  Biso   1.000  C
  H51      1.0000 0.34290  0.11570  0.54280  Biso   1.000  H
  H52      1.0000 0.18340  0.12720  0.47350  Biso   1.000  H
  H53      1.0000 0.18690  0.04670  0.47320  Biso   1.000  H
  H54      1.0000 0.30030  0.19080  0.73760  Biso   1.000  H
  C16      1.0000 0.33371  0.15709  0.63304  Biso   1.000  C
  H55      1.0000 0.33000  0.17950  0.60930  Biso   1.000  H
  H56      1.0000 0.31580  0.04830  0.72180  Biso   1.000  H
  H57      1.0000 0.27160  0.10290  0.75720  Biso   1.000  H
  O4       1.0000 0.26000  0.02300  0.78200  Biso   1.000  O
  H58      1.0000 0.24380  0.04660  0.77940  Biso   1.000  H
  H59      1.0000 0.26340  0.02120  0.71750  Biso   1.000  H
  H60      1.0000 0.23640  0.98650  0.73330  Biso   1.000  H
  N9       1.0000 0.76927  0.38610  0.96177  Biso   1.000  N
  N10      1.0000 0.80592  0.38172  0.85999  Biso   1.000  N
  C17      1.0000 0.79890  0.35506  0.97688  Biso   1.000  C
  H61      1.0000 0.81740  0.33570  0.95790  Biso   1.000  H
  H62      1.0000 0.71570  0.45960  0.97340  Biso   1.000  H
  H63      1.0000 0.66150  0.39930  0.97320  Biso   1.000  H
  C18      1.0000 0.85072  0.38964  0.88357  Biso   1.000  C
  H64      1.0000 0.85530  0.39360  0.91580  Biso   1.000  H
  H65      1.0000 0.79210  0.38830  0.75440  Biso   1.000  H
  C19      1.0000 0.81650  0.38499  0.97664  Biso   1.000  C
  H66      1.0000 0.84290  0.38430  0.95720  Biso   1.000  H
  H67      1.0000 0.68340  0.37280  0.02650  Biso   1.000  H
  H68      1.0000 0.68690  0.45330  0.02680  Biso   1.000  H
  H69      1.0000 0.80030  0.30920  0.76240  Biso   1.000  H
  C20      1.0000 0.83371  0.34291  0.86696  Biso   1.000  C
  H70      1.0000 0.83000  0.32050  0.89070  Biso   1.000  H
  H71      1.0000 0.81580  0.45170  0.77820  Biso   1.000  H
  H72      1.0000 0.77160  0.39710  0.74280  Biso   1.000  H
  O5       1.0000 0.76000  0.47700  0.71800  Biso   1.000  O
  H73      1.0000 0.74380  0.45340  0.72060  Biso   1.000  H
  H74      1.0000 0.76340  0.47880  0.78250  Biso   1.000  H
  H75      1.0000 0.73640  0.51350  0.76670  Biso   1.000  H
  N11      1.0000 0.26927  0.88610  0.46177  Biso   1.000  N
  N12      1.0000 0.30592  0.88172  0.35999  Biso   1.000  N
  C21      1.0000 0.29890  0.85506  0.47688  Biso   1.000  C
  H76      1.0000 0.31740  0.83570  0.45790  Biso   1.000  H
  H77      1.0000 0.21570  0.95960  0.47340  Biso   1.000  H
  H78      1.0000 0.16150  0.89930  0.47320  Biso   1.000  H
  C22      1.0000 0.35072  0.88964  0.38357  Biso   1.000  C
  H79      1.0000 0.35530  0.89360  0.41580  Biso   1.000  H
  H80      1.0000 0.29210  0.88830  0.25440  Biso   1.000  H
  C23      1.0000 0.31650  0.88499  0.47664  Biso   1.000  C
  H81      1.0000 0.34290  0.88430  0.45720  Biso   1.000  H
  H82      1.0000 0.18340  0.87280  0.52650  Biso   1.000  H
  H83      1.0000 0.18690  0.95330  0.52680  Biso   1.000  H
  H84      1.0000 0.30030  0.80920  0.26240  Biso   1.000  H
  C24      1.0000 0.33371  0.84291  0.36696  Biso   1.000  C
  H85      1.0000 0.33000  0.82050  0.39070  Biso   1.000  H
  H86      1.0000 0.31580  0.95170  0.27820  Biso   1.000  H
  H87      1.0000 0.27160  0.89710  0.24280  Biso   1.000  H
  O6       1.0000 0.26000  0.97700  0.21800  Biso   1.000  O
  H88      1.0000 0.24380  0.95340  0.22060  Biso   1.000  H
  H89      1.0000 0.26340  0.97880  0.28250  Biso   1.000  H
  H90      1.0000 0.23640  0.01350  0.26670  Biso   1.000  H
  N13      1.0000 0.23073  0.61390  0.96177  Biso   1.000  N
  N14      1.0000 0.19408  0.61828  0.85999  Biso   1.000  N
  C25      1.0000 0.20110  0.64494  0.97688  Biso   1.000  C
  H91      1.0000 0.18260  0.66430  0.95790  Biso   1.000  H
  H92      1.0000 0.28430  0.54040  0.97340  Biso   1.000  H
  H93      1.0000 0.33850  0.60070  0.97320  Biso   1.000  H
  C26      1.0000 0.14928  0.61036  0.88357  Biso   1.000  C
  H94      1.0000 0.14470  0.60640  0.91580  Biso   1.000  H
  H95      1.0000 0.20790  0.61170  0.75440  Biso   1.000  H
  C27      1.0000 0.18350  0.61501  0.97664  Biso   1.000  C
  H96      1.0000 0.15710  0.61570  0.95720  Biso   1.000  H
  H97      1.0000 0.31660  0.62720  0.02650  Biso   1.000  H
  H98      1.0000 0.31310  0.54670  0.02680  Biso   1.000  H
  H99      1.0000 0.19970  0.69080  0.76240  Biso   1.000  H
  C28      1.0000 0.16629  0.65709  0.86696  Biso   1.000  C
  H100     1.0000 0.17000  0.67950  0.89070  Biso   1.000  H
  H101     1.0000 0.18420  0.54830  0.77820  Biso   1.000  H
  H102     1.0000 0.22840  0.60290  0.74280  Biso   1.000  H
  O7       1.0000 0.24000  0.52300  0.71800  Biso   1.000  O
  H103     1.0000 0.25620  0.54660  0.72060  Biso   1.000  H
  H104     1.0000 0.23660  0.52120  0.78250  Biso   1.000  H
  H105     1.0000 0.26360  0.48650  0.76670  Biso   1.000  H
  N15      1.0000 0.73073  0.11390  0.46177  Biso   1.000  N
  N16      1.0000 0.69408  0.11828  0.35999  Biso   1.000  N
  C29      1.0000 0.70110  0.14494  0.47688  Biso   1.000  C
  H106     1.0000 0.68260  0.16430  0.45790  Biso   1.000  H
  H107     1.0000 0.78430  0.04040  0.47340  Biso   1.000  H
  H108     1.0000 0.83850  0.10070  0.47320  Biso   1.000  H
  C30      1.0000 0.64928  0.11036  0.38357  Biso   1.000  C
  H109     1.0000 0.64470  0.10640  0.41580  Biso   1.000  H
  H110     1.0000 0.70790  0.11170  0.25440  Biso   1.000  H
  C31      1.0000 0.68350  0.11501  0.47664  Biso   1.000  C
  H111     1.0000 0.65710  0.11570  0.45720  Biso   1.000  H
  H112     1.0000 0.81660  0.12720  0.52650  Biso   1.000  H
  H113     1.0000 0.81310  0.04670  0.52680  Biso   1.000  H
  H114     1.0000 0.69970  0.19080  0.26240  Biso   1.000  H
  C32      1.0000 0.66629  0.15709  0.36696  Biso   1.000  C
  H115     1.0000 0.67000  0.17950  0.39070  Biso   1.000  H
  H116     1.0000 0.68420  0.04830  0.27820  Biso   1.000  H
  H117     1.0000 0.72840  0.10290  0.24280  Biso   1.000  H
  O8       1.0000 0.74000  0.02300  0.21800  Biso   1.000  O
  H118     1.0000 0.75620  0.04660  0.22060  Biso   1.000  H
  H119     1.0000 0.73660  0.02120  0.28250  Biso   1.000  H
  H120     1.0000 0.76360  0.98650  0.26670  Biso   1.000  H
  N17      1.0000 0.03823  0.23073  0.38610  Biso   1.000  N
  N18      1.0000 0.14001  0.19408  0.38172  Biso   1.000  N
  C33      1.0000 0.02312  0.20110  0.35506  Biso   1.000  C
  H121     1.0000 0.04210  0.18260  0.33570  Biso   1.000  H
  H122     1.0000 0.02660  0.28430  0.45960  Biso   1.000  H
  H123     1.0000 0.02680  0.33850  0.39930  Biso   1.000  H
  C34      1.0000 0.11643  0.14928  0.38964  Biso   1.000  C
  H124     1.0000 0.08420  0.14470  0.39360  Biso   1.000  H
  H125     1.0000 0.24560  0.20790  0.38830  Biso   1.000  H
  C35      1.0000 0.02336  0.18350  0.38499  Biso   1.000  C
  H126     1.0000 0.04280  0.15710  0.38430  Biso   1.000  H
  H127     1.0000 0.97350  0.31660  0.37280  Biso   1.000  H
  H128     1.0000 0.97320  0.31310  0.45330  Biso   1.000  H
  H129     1.0000 0.23760  0.19970  0.30920  Biso   1.000  H
  C36      1.0000 0.13304  0.16629  0.34291  Biso   1.000  C
  H130     1.0000 0.10930  0.17000  0.32050  Biso   1.000  H
  H131     1.0000 0.22180  0.18420  0.45170  Biso   1.000  H
  H132     1.0000 0.25720  0.22840  0.39710  Biso   1.000  H
  O9       1.0000 0.28200  0.24000  0.47700  Biso   1.000  O
  H133     1.0000 0.27940  0.25620  0.45340  Biso   1.000  H
  H134     1.0000 0.21750  0.23660  0.47880  Biso   1.000  H
  H135     1.0000 0.23330  0.26360  0.51350  Biso   1.000  H
  N19      1.0000 0.53823  0.73073  0.88610  Biso   1.000  N
  N20      1.0000 0.64001  0.69408  0.88172  Biso   1.000  N
  C37      1.0000 0.52312  0.70110  0.85506  Biso   1.000  C
  H136     1.0000 0.54210  0.68260  0.83570  Biso   1.000  H
  H137     1.0000 0.52660  0.78430  0.95960  Biso   1.000  H
  H138     1.0000 0.52680  0.83850  0.89930  Biso   1.000  H
  C38      1.0000 0.61643  0.64928  0.88964  Biso   1.000  C
  H139     1.0000 0.58420  0.64470  0.89360  Biso   1.000  H
  H140     1.0000 0.74560  0.70790  0.88830  Biso   1.000  H
  C39      1.0000 0.52336  0.68350  0.88499  Biso   1.000  C
  H141     1.0000 0.54280  0.65710  0.88430  Biso   1.000  H
  H142     1.0000 0.47350  0.81660  0.87280  Biso   1.000  H
  H143     1.0000 0.47320  0.81310  0.95330  Biso   1.000  H
  H144     1.0000 0.73760  0.69970  0.80920  Biso   1.000  H
  C40      1.0000 0.63304  0.66629  0.84291  Biso   1.000  C
  H145     1.0000 0.60930  0.67000  0.82050  Biso   1.000  H
  H146     1.0000 0.72180  0.68420  0.95170  Biso   1.000  H
  H147     1.0000 0.75720  0.72840  0.89710  Biso   1.000  H
  O10      1.0000 0.78200  0.74000  0.97700  Biso   1.000  O
  H148     1.0000 0.77940  0.75620  0.95340  Biso   1.000  H
  H149     1.0000 0.71750  0.73660  0.97880  Biso   1.000  H
  H150     1.0000 0.73330  0.76360  0.01350  Biso   1.000  H
  N21      1.0000 0.03823  0.76927  0.61390  Biso   1.000  N
  N22      1.0000 0.14001  0.80592  0.61828  Biso   1.000  N
  C41      1.0000 0.02312  0.79890  0.64494  Biso   1.000  C
  H151     1.0000 0.04210  0.81740  0.66430  Biso   1.000  H
  H152     1.0000 0.02660  0.71570  0.54040  Biso   1.000  H
  H153     1.0000 0.02680  0.66150  0.60070  Biso   1.000  H
  C42      1.0000 0.11643  0.85072  0.61036  Biso   1.000  C
  H154     1.0000 0.08420  0.85530  0.60640  Biso   1.000  H
  H155     1.0000 0.24560  0.79210  0.61170  Biso   1.000  H
  C43      1.0000 0.02336  0.81650  0.61501  Biso   1.000  C
  H156     1.0000 0.04280  0.84290  0.61570  Biso   1.000  H
  H157     1.0000 0.97350  0.68340  0.62720  Biso   1.000  H
  H158     1.0000 0.97320  0.68690  0.54670  Biso   1.000  H
  H159     1.0000 0.23760  0.80030  0.69080  Biso   1.000  H
  C44      1.0000 0.13304  0.83371  0.65709  Biso   1.000  C
  H160     1.0000 0.10930  0.83000  0.67950  Biso   1.000  H
  H161     1.0000 0.22180  0.81580  0.54830  Biso   1.000  H
  H162     1.0000 0.25720  0.77160  0.60290  Biso   1.000  H
  O11      1.0000 0.28200  0.76000  0.52300  Biso   1.000  O
  H163     1.0000 0.27940  0.74380  0.54660  Biso   1.000  H
  H164     1.0000 0.21750  0.76340  0.52120  Biso   1.000  H
  H165     1.0000 0.23330  0.73640  0.48650  Biso   1.000  H
  N23      1.0000 0.53823  0.26927  0.11390  Biso   1.000  N
  N24      1.0000 0.64001  0.30592  0.11828  Biso   1.000  N
  C45      1.0000 0.52312  0.29890  0.14494  Biso   1.000  C
  H166     1.0000 0.54210  0.31740  0.16430  Biso   1.000  H
  H167     1.0000 0.52660  0.21570  0.04040  Biso   1.000  H
  H168     1.0000 0.52680  0.16150  0.10070  Biso   1.000  H
  C46      1.0000 0.61643  0.35072  0.11036  Biso   1.000  C
  H169     1.0000 0.58420  0.35530  0.10640  Biso   1.000  H
  H170     1.0000 0.74560  0.29210  0.11170  Biso   1.000  H
  C47      1.0000 0.52336  0.31650  0.11501  Biso   1.000  C
  H171     1.0000 0.54280  0.34290  0.11570  Biso   1.000  H
  H172     1.0000 0.47350  0.18340  0.12720  Biso   1.000  H
  H173     1.0000 0.47320  0.18690  0.04670  Biso   1.000  H
  H174     1.0000 0.73760  0.30030  0.19080  Biso   1.000  H
  C48      1.0000 0.63304  0.33371  0.15709  Biso   1.000  C
  H175     1.0000 0.60930  0.33000  0.17950  Biso   1.000  H
  H176     1.0000 0.72180  0.31580  0.04830  Biso   1.000  H
  H177     1.0000 0.75720  0.27160  0.10290  Biso   1.000  H
  O12      1.0000 0.78200  0.26000  0.02300  Biso   1.000  O
  H178     1.0000 0.77940  0.24380  0.04660  Biso   1.000  H
  H179     1.0000 0.71750  0.26340  0.02120  Biso   1.000  H
  H180     1.0000 0.73330  0.23640  0.98650  Biso   1.000  H
  N25      1.0000 0.96177  0.76927  0.38610  Biso   1.000  N
  N26      1.0000 0.85999  0.80592  0.38172  Biso   1.000  N
  C49      1.0000 0.97688  0.79890  0.35506  Biso   1.000  C
  H181     1.0000 0.95790  0.81740  0.33570  Biso   1.000  H
  H182     1.0000 0.97340  0.71570  0.45960  Biso   1.000  H
  H183     1.0000 0.97320  0.66150  0.39930  Biso   1.000  H
  C50      1.0000 0.88357  0.85072  0.38964  Biso   1.000  C
  H184     1.0000 0.91580  0.85530  0.39360  Biso   1.000  H
  H185     1.0000 0.75440  0.79210  0.38830  Biso   1.000  H
  C51      1.0000 0.97664  0.81650  0.38499  Biso   1.000  C
  H186     1.0000 0.95720  0.84290  0.38430  Biso   1.000  H
  H187     1.0000 0.02650  0.68340  0.37280  Biso   1.000  H
  H188     1.0000 0.02680  0.68690  0.45330  Biso   1.000  H
  H189     1.0000 0.76240  0.80030  0.30920  Biso   1.000  H
  C52      1.0000 0.86696  0.83371  0.34291  Biso   1.000  C
  H190     1.0000 0.89070  0.83000  0.32050  Biso   1.000  H
  H191     1.0000 0.77820  0.81580  0.45170  Biso   1.000  H
  H192     1.0000 0.74280  0.77160  0.39710  Biso   1.000  H
  O13      1.0000 0.71800  0.76000  0.47700  Biso   1.000  O
  H193     1.0000 0.72060  0.74380  0.45340  Biso   1.000  H
  H194     1.0000 0.78250  0.76340  0.47880  Biso   1.000  H
  H195     1.0000 0.76670  0.73640  0.51350  Biso   1.000  H
  N27      1.0000 0.46177  0.26927  0.88610  Biso   1.000  N
  N28      1.0000 0.35999  0.30592  0.88172  Biso   1.000  N
  C53      1.0000 0.47688  0.29890  0.85506  Biso   1.000  C
  H196     1.0000 0.45790  0.31740  0.83570  Biso   1.000  H
  H197     1.0000 0.47340  0.21570  0.95960  Biso   1.000  H
  H198     1.0000 0.47320  0.16150  0.89930  Biso   1.000  H
  C54      1.0000 0.38357  0.35072  0.88964  Biso   1.000  C
  H199     1.0000 0.41580  0.35530  0.89360  Biso   1.000  H
  H200     1.0000 0.25440  0.29210  0.88830  Biso   1.000  H
  C55      1.0000 0.47664  0.31650  0.88499  Biso   1.000  C
  H201     1.0000 0.45720  0.34290  0.88430  Biso   1.000  H
  H202     1.0000 0.52650  0.18340  0.87280  Biso   1.000  H
  H203     1.0000 0.52680  0.18690  0.95330  Biso   1.000  H
  H204     1.0000 0.26240  0.30030  0.80920  Biso   1.000  H
  C56      1.0000 0.36696  0.33371  0.84291  Biso   1.000  C
  H205     1.0000 0.39070  0.33000  0.82050  Biso   1.000  H
  H206     1.0000 0.27820  0.31580  0.95170  Biso   1.000  H
  H207     1.0000 0.24280  0.27160  0.89710  Biso   1.000  H
  O14      1.0000 0.21800  0.26000  0.97700  Biso   1.000  O
  H208     1.0000 0.22060  0.24380  0.95340  Biso   1.000  H
  H209     1.0000 0.28250  0.26340  0.97880  Biso   1.000  H
  H210     1.0000 0.26670  0.23640  0.01350  Biso   1.000  H
  N29      1.0000 0.96177  0.23073  0.61390  Biso   1.000  N
  N30      1.0000 0.85999  0.19408  0.61828  Biso   1.000  N
  C57      1.0000 0.97688  0.20110  0.64494  Biso   1.000  C
  H211     1.0000 0.95790  0.18260  0.66430  Biso   1.000  H
  H212     1.0000 0.97340  0.28430  0.54040  Biso   1.000  H
  H213     1.0000 0.97320  0.33850  0.60070  Biso   1.000  H
  C58      1.0000 0.88357  0.14928  0.61036  Biso   1.000  C
  H214     1.0000 0.91580  0.14470  0.60640  Biso   1.000  H
  H215     1.0000 0.75440  0.20790  0.61170  Biso   1.000  H
  C59      1.0000 0.97664  0.18350  0.61501  Biso   1.000  C
  H216     1.0000 0.95720  0.15710  0.61570  Biso   1.000  H
  H217     1.0000 0.02650  0.31660  0.62720  Biso   1.000  H
  H218     1.0000 0.02680  0.31310  0.54670  Biso   1.000  H
  H219     1.0000 0.76240  0.19970  0.69080  Biso   1.000  H
  C60      1.0000 0.86696  0.16629  0.65709  Biso   1.000  C
  H220     1.0000 0.89070  0.17000  0.67950  Biso   1.000  H
  H221     1.0000 0.77820  0.18420  0.54830  Biso   1.000  H
  H222     1.0000 0.74280  0.22840  0.60290  Biso   1.000  H
  O15      1.0000 0.71800  0.24000  0.52300  Biso   1.000  O
  H223     1.0000 0.72060  0.25620  0.54660  Biso   1.000  H
  H224     1.0000 0.78250  0.23660  0.52120  Biso   1.000  H
  H225     1.0000 0.76670  0.26360  0.48650  Biso   1.000  H
  N31      1.0000 0.46177  0.73073  0.11390  Biso   1.000  N
  N32      1.0000 0.35999  0.69408  0.11828  Biso   1.000  N
  C61      1.0000 0.47688  0.70110  0.14494  Biso   1.000  C
  H226     1.0000 0.45790  0.68260  0.16430  Biso   1.000  H
  H227     1.0000 0.47340  0.78430  0.04040  Biso   1.000  H
  H228     1.0000 0.47320  0.83850  0.10070  Biso   1.000  H
  C62      1.0000 0.38357  0.64928  0.11036  Biso   1.000  C
  H229     1.0000 0.41580  0.64470  0.10640  Biso   1.000  H
  H230     1.0000 0.25440  0.70790  0.11170  Biso   1.000  H
  C63      1.0000 0.47664  0.68350  0.11501  Biso   1.000  C
  H231     1.0000 0.45720  0.65710  0.11570  Biso   1.000  H
  H232     1.0000 0.52650  0.81660  0.12720  Biso   1.000  H
  H233     1.0000 0.52680  0.81310  0.04670  Biso   1.000  H
  H234     1.0000 0.26240  0.69970  0.19080  Biso   1.000  H
  C64      1.0000 0.36696  0.66629  0.15709  Biso   1.000  C
  H235     1.0000 0.39070  0.67000  0.17950  Biso   1.000  H
  H236     1.0000 0.27820  0.68420  0.04830  Biso   1.000  H
  H237     1.0000 0.24280  0.72840  0.10290  Biso   1.000  H
  O16      1.0000 0.21800  0.74000  0.02300  Biso   1.000  O
  H238     1.0000 0.22060  0.75620  0.04660  Biso   1.000  H
  H239     1.0000 0.28250  0.73660  0.02120  Biso   1.000  H
  H240     1.0000 0.26670  0.76360  0.98650  Biso   1.000  H
  N33      1.0000 0.38610  0.03823  0.23073  Biso   1.000  N
  N34      1.0000 0.38172  0.14001  0.19408  Biso   1.000  N
  C65      1.0000 0.35506  0.02312  0.20110  Biso   1.000  C
  H241     1.0000 0.33570  0.04210  0.18260  Biso   1.000  H
  H242     1.0000 0.45960  0.02660  0.28430  Biso   1.000  H
  H243     1.0000 0.39930  0.02680  0.33850  Biso   1.000  H
  C66      1.0000 0.38964  0.11643  0.14928  Biso   1.000  C
  H244     1.0000 0.39360  0.08420  0.14470  Biso   1.000  H
  H245     1.0000 0.38830  0.24560  0.20790  Biso   1.000  H
  C67      1.0000 0.38499  0.02336  0.18350  Biso   1.000  C
  H246     1.0000 0.38430  0.04280  0.15710  Biso   1.000  H
  H247     1.0000 0.37280  0.97350  0.31660  Biso   1.000  H
  H248     1.0000 0.45330  0.97320  0.31310  Biso   1.000  H
  H249     1.0000 0.30920  0.23760  0.19970  Biso   1.000  H
  C68      1.0000 0.34291  0.13304  0.16629  Biso   1.000  C
  H250     1.0000 0.32050  0.10930  0.17000  Biso   1.000  H
  H251     1.0000 0.45170  0.22180  0.18420  Biso   1.000  H
  H252     1.0000 0.39710  0.25720  0.22840  Biso   1.000  H
  O17      1.0000 0.47700  0.28200  0.24000  Biso   1.000  O
  H253     1.0000 0.45340  0.27940  0.25620  Biso   1.000  H
  H254     1.0000 0.47880  0.21750  0.23660  Biso   1.000  H
  H255     1.0000 0.51350  0.23330  0.26360  Biso   1.000  H
  N35      1.0000 0.88610  0.53823  0.73073  Biso   1.000  N
  N36      1.0000 0.88172  0.64001  0.69408  Biso   1.000  N
  C69      1.0000 0.85506  0.52312  0.70110  Biso   1.000  C
  H256     1.0000 0.83570  0.54210  0.68260  Biso   1.000  H
  H257     1.0000 0.95960  0.52660  0.78430  Biso   1.000  H
  H258     1.0000 0.89930  0.52680  0.83850  Biso   1.000  H
  C70      1.0000 0.88964  0.61643  0.64928  Biso   1.000  C
  H259     1.0000 0.89360  0.58420  0.64470  Biso   1.000  H
  H260     1.0000 0.88830  0.74560  0.70790  Biso   1.000  H
  C71      1.0000 0.88499  0.52336  0.68350  Biso   1.000  C
  H261     1.0000 0.88430  0.54280  0.65710  Biso   1.000  H
  H262     1.0000 0.87280  0.47350  0.81660  Biso   1.000  H
  H263     1.0000 0.95330  0.47320  0.81310  Biso   1.000  H
  H264     1.0000 0.80920  0.73760  0.69970  Biso   1.000  H
  C72      1.0000 0.84291  0.63304  0.66629  Biso   1.000  C
  H265     1.0000 0.82050  0.60930  0.67000  Biso   1.000  H
  H266     1.0000 0.95170  0.72180  0.68420  Biso   1.000  H
  H267     1.0000 0.89710  0.75720  0.72840  Biso   1.000  H
  O18      1.0000 0.97700  0.78200  0.74000  Biso   1.000  O
  H268     1.0000 0.95340  0.77940  0.75620  Biso   1.000  H
  H269     1.0000 0.97880  0.71750  0.73660  Biso   1.000  H
  H270     1.0000 0.01350  0.73330  0.76360  Biso   1.000  H
  N37      1.0000 0.61390  0.03823  0.76927  Biso   1.000  N
  N38      1.0000 0.61828  0.14001  0.80592  Biso   1.000  N
  C73      1.0000 0.64494  0.02312  0.79890  Biso   1.000  C
  H271     1.0000 0.66430  0.04210  0.81740  Biso   1.000  H
  H272     1.0000 0.54040  0.02660  0.71570  Biso   1.000  H
  H273     1.0000 0.60070  0.02680  0.66150  Biso   1.000  H
  C74      1.0000 0.61036  0.11643  0.85072  Biso   1.000  C
  H274     1.0000 0.60640  0.08420  0.85530  Biso   1.000  H
  H275     1.0000 0.61170  0.24560  0.79210  Biso   1.000  H
  C75      1.0000 0.61501  0.02336  0.81650  Biso   1.000  C
  H276     1.0000 0.61570  0.04280  0.84290  Biso   1.000  H
  H277     1.0000 0.62720  0.97350  0.68340  Biso   1.000  H
  H278     1.0000 0.54670  0.97320  0.68690  Biso   1.000  H
  H279     1.0000 0.69080  0.23760  0.80030  Biso   1.000  H
  C76      1.0000 0.65709  0.13304  0.83371  Biso   1.000  C
  H280     1.0000 0.67950  0.10930  0.83000  Biso   1.000  H
  H281     1.0000 0.54830  0.22180  0.81580  Biso   1.000  H
  H282     1.0000 0.60290  0.25720  0.77160  Biso   1.000  H
  O19      1.0000 0.52300  0.28200  0.76000  Biso   1.000  O
  H283     1.0000 0.54660  0.27940  0.74380  Biso   1.000  H
  H284     1.0000 0.52120  0.21750  0.76340  Biso   1.000  H
  H285     1.0000 0.48650  0.23330  0.73640  Biso   1.000  H
  N39      1.0000 0.11390  0.53823  0.26927  Biso   1.000  N
  N40      1.0000 0.11828  0.64001  0.30592  Biso   1.000  N
  C77      1.0000 0.14494  0.52312  0.29890  Biso   1.000  C
  H286     1.0000 0.16430  0.54210  0.31740  Biso   1.000  H
  H287     1.0000 0.04040  0.52660  0.21570  Biso   1.000  H
  H288     1.0000 0.10070  0.52680  0.16150  Biso   1.000  H
  C78      1.0000 0.11036  0.61643  0.35072  Biso   1.000  C
  H289     1.0000 0.10640  0.58420  0.35530  Biso   1.000  H
  H290     1.0000 0.11170  0.74560  0.29210  Biso   1.000  H
  C79      1.0000 0.11501  0.52336  0.31650  Biso   1.000  C
  H291     1.0000 0.11570  0.54280  0.34290  Biso   1.000  H
  H292     1.0000 0.12720  0.47350  0.18340  Biso   1.000  H
  H293     1.0000 0.04670  0.47320  0.18690  Biso   1.000  H
  H294     1.0000 0.19080  0.73760  0.30030  Biso   1.000  H
  C80      1.0000 0.15709  0.63304  0.33371  Biso   1.000  C
  H295     1.0000 0.17950  0.60930  0.33000  Biso   1.000  H
  H296     1.0000 0.04830  0.72180  0.31580  Biso   1.000  H
  H297     1.0000 0.10290  0.75720  0.27160  Biso   1.000  H
  O20      1.0000 0.02300  0.78200  0.26000  Biso   1.000  O
  H298     1.0000 0.04660  0.77940  0.24380  Biso   1.000  H
  H299     1.0000 0.02120  0.71750  0.26340  Biso   1.000  H
  H300     1.0000 0.98650  0.73330  0.23640  Biso   1.000  H
  N41      1.0000 0.38610  0.96177  0.76927  Biso   1.000  N
  N42      1.0000 0.38172  0.85999  0.80592  Biso   1.000  N
  C81      1.0000 0.35506  0.97688  0.79890  Biso   1.000  C
  H301     1.0000 0.33570  0.95790  0.81740  Biso   1.000  H
  H302     1.0000 0.45960  0.97340  0.71570  Biso   1.000  H
  H303     1.0000 0.39930  0.97320  0.66150  Biso   1.000  H
  C82      1.0000 0.38964  0.88357  0.85072  Biso   1.000  C
  H304     1.0000 0.39360  0.91580  0.85530  Biso   1.000  H
  H305     1.0000 0.38830  0.75440  0.79210  Biso   1.000  H
  C83      1.0000 0.38499  0.97664  0.81650  Biso   1.000  C
  H306     1.0000 0.38430  0.95720  0.84290  Biso   1.000  H
  H307     1.0000 0.37280  0.02650  0.68340  Biso   1.000  H
  H308     1.0000 0.45330  0.02680  0.68690  Biso   1.000  H
  H309     1.0000 0.30920  0.76240  0.80030  Biso   1.000  H
  C84      1.0000 0.34291  0.86696  0.83371  Biso   1.000  C
  H310     1.0000 0.32050  0.89070  0.83000  Biso   1.000  H
  H311     1.0000 0.45170  0.77820  0.81580  Biso   1.000  H
  H312     1.0000 0.39710  0.74280  0.77160  Biso   1.000  H
  O21      1.0000 0.47700  0.71800  0.76000  Biso   1.000  O
  H313     1.0000 0.45340  0.72060  0.74380  Biso   1.000  H
  H314     1.0000 0.47880  0.78250  0.76340  Biso   1.000  H
  H315     1.0000 0.51350  0.76670  0.73640  Biso   1.000  H
  N43      1.0000 0.88610  0.46177  0.26927  Biso   1.000  N
  N44      1.0000 0.88172  0.35999  0.30592  Biso   1.000  N
  C85      1.0000 0.85506  0.47688  0.29890  Biso   1.000  C
  H316     1.0000 0.83570  0.45790  0.31740  Biso   1.000  H
  H317     1.0000 0.95960  0.47340  0.21570  Biso   1.000  H
  H318     1.0000 0.89930  0.47320  0.16150  Biso   1.000  H
  C86      1.0000 0.88964  0.38357  0.35072  Biso   1.000  C
  H319     1.0000 0.89360  0.41580  0.35530  Biso   1.000  H
  H320     1.0000 0.88830  0.25440  0.29210  Biso   1.000  H
  C87      1.0000 0.88499  0.47664  0.31650  Biso   1.000  C
  H321     1.0000 0.88430  0.45720  0.34290  Biso   1.000  H
  H322     1.0000 0.87280  0.52650  0.18340  Biso   1.000  H
  H323     1.0000 0.95330  0.52680  0.18690  Biso   1.000  H
  H324     1.0000 0.80920  0.26240  0.30030  Biso   1.000  H
  C88      1.0000 0.84291  0.36696  0.33371  Biso   1.000  C
  H325     1.0000 0.82050  0.39070  0.33000  Biso   1.000  H
  H326     1.0000 0.95170  0.27820  0.31580  Biso   1.000  H
  H327     1.0000 0.89710  0.24280  0.27160  Biso   1.000  H
  O22      1.0000 0.97700  0.21800  0.26000  Biso   1.000  O
  H328     1.0000 0.95340  0.22060  0.24380  Biso   1.000  H
  H329     1.0000 0.97880  0.28250  0.26340  Biso   1.000  H
  H330     1.0000 0.01350  0.26670  0.23640  Biso   1.000  H
  N45      1.0000 0.61390  0.96177  0.23073  Biso   1.000  N
  N46      1.0000 0.61828  0.85999  0.19408  Biso   1.000  N
  C89      1.0000 0.64494  0.97688  0.20110  Biso   1.000  C
  H331     1.0000 0.66430  0.95790  0.18260  Biso   1.000  H
  H332     1.0000 0.54040  0.97340  0.28430  Biso   1.000  H
  H333     1.0000 0.60070  0.97320  0.33850  Biso   1.000  H
  C90      1.0000 0.61036  0.88357  0.14928  Biso   1.000  C
  H334     1.0000 0.60640  0.91580  0.14470  Biso   1.000  H
  H335     1.0000 0.61170  0.75440  0.20790  Biso   1.000  H
  C91      1.0000 0.61501  0.97664  0.18350  Biso   1.000  C
  H336     1.0000 0.61570  0.95720  0.15710  Biso   1.000  H
  H337     1.0000 0.62720  0.02650  0.31660  Biso   1.000  H
  H338     1.0000 0.54670  0.02680  0.31310  Biso   1.000  H
  H339     1.0000 0.69080  0.76240  0.19970  Biso   1.000  H
  C92      1.0000 0.65709  0.86696  0.16629  Biso   1.000  C
  H340     1.0000 0.67950  0.89070  0.17000  Biso   1.000  H
  H341     1.0000 0.54830  0.77820  0.18420  Biso   1.000  H
  H342     1.0000 0.60290  0.74280  0.22840  Biso   1.000  H
  O23      1.0000 0.52300  0.71800  0.24000  Biso   1.000  O
  H343     1.0000 0.54660  0.72060  0.25620  Biso   1.000  H
  H344     1.0000 0.52120  0.78250  0.23660  Biso   1.000  H
  H345     1.0000 0.48650  0.76670  0.26360  Biso   1.000  H
  N47      1.0000 0.11390  0.46177  0.73073  Biso   1.000  N
  N48      1.0000 0.11828  0.35999  0.69408  Biso   1.000  N
  C93      1.0000 0.14494  0.47688  0.70110  Biso   1.000  C
  H346     1.0000 0.16430  0.45790  0.68260  Biso   1.000  H
  H347     1.0000 0.04040  0.47340  0.78430  Biso   1.000  H
  H348     1.0000 0.10070  0.47320  0.83850  Biso   1.000  H
  C94      1.0000 0.11036  0.38357  0.64928  Biso   1.000  C
  H349     1.0000 0.10640  0.41580  0.64470  Biso   1.000  H
  H350     1.0000 0.11170  0.25440  0.70790  Biso   1.000  H
  C95      1.0000 0.11501  0.47664  0.68350  Biso   1.000  C
  H351     1.0000 0.11570  0.45720  0.65710  Biso   1.000  H
  H352     1.0000 0.12720  0.52650  0.81660  Biso   1.000  H
  H353     1.0000 0.04670  0.52680  0.81310  Biso   1.000  H
  H354     1.0000 0.19080  0.26240  0.69970  Biso   1.000  H
  C96      1.0000 0.15709  0.36696  0.66629  Biso   1.000  C
  H355     1.0000 0.17950  0.39070  0.67000  Biso   1.000  H
  H356     1.0000 0.04830  0.27820  0.68420  Biso   1.000  H
  H357     1.0000 0.10290  0.24280  0.72840  Biso   1.000  H
  O24      1.0000 0.02300  0.21800  0.74000  Biso   1.000  O
  H358     1.0000 0.04660  0.22060  0.75620  Biso   1.000  H
  H359     1.0000 0.02120  0.28250  0.73660  Biso   1.000  H
  H360     1.0000 0.98650  0.26670  0.76360  Biso   1.000  H
  N49      1.0000 0.38610  0.23073  0.96177  Biso   1.000  N
  N50      1.0000 0.38172  0.19408  0.85999  Biso   1.000  N
  C97      1.0000 0.35506  0.20110  0.97688  Biso   1.000  C
  H361     1.0000 0.33570  0.18260  0.95790  Biso   1.000  H
  H362     1.0000 0.45960  0.28430  0.97340  Biso   1.000  H
  H363     1.0000 0.39930  0.33850  0.97320  Biso   1.000  H
  C98      1.0000 0.38964  0.14928  0.88357  Biso   1.000  C
  H364     1.0000 0.39360  0.14470  0.91580  Biso   1.000  H
  H365     1.0000 0.38830  0.20790  0.75440  Biso   1.000  H
  C99      1.0000 0.38499  0.18350  0.97664  Biso   1.000  C
  H366     1.0000 0.38430  0.15710  0.95720  Biso   1.000  H
  H367     1.0000 0.37280  0.31660  0.02650  Biso   1.000  H
  H368     1.0000 0.45330  0.31310  0.02680  Biso   1.000  H
  H369     1.0000 0.30920  0.19970  0.76240  Biso   1.000  H
  C100     1.0000 0.34291  0.16629  0.86696  Biso   1.000  C
  H370     1.0000 0.32050  0.17000  0.89070  Biso   1.000  H
  H371     1.0000 0.45170  0.18420  0.77820  Biso   1.000  H
  H372     1.0000 0.39710  0.22840  0.74280  Biso   1.000  H
  O25      1.0000 0.47700  0.24000  0.71800  Biso   1.000  O
  H373     1.0000 0.45340  0.25620  0.72060  Biso   1.000  H
  H374     1.0000 0.47880  0.23660  0.78250  Biso   1.000  H
  H375     1.0000 0.51350  0.26360  0.76670  Biso   1.000  H
  N51      1.0000 0.88610  0.73073  0.46177  Biso   1.000  N
  N52      1.0000 0.88172  0.69408  0.35999  Biso   1.000  N
  C101     1.0000 0.85506  0.70110  0.47688  Biso   1.000  C
  H376     1.0000 0.83570  0.68260  0.45790  Biso   1.000  H
  H377     1.0000 0.95960  0.78430  0.47340  Biso   1.000  H
  H378     1.0000 0.89930  0.83850  0.47320  Biso   1.000  H
  C102     1.0000 0.88964  0.64928  0.38357  Biso   1.000  C
  H379     1.0000 0.89360  0.64470  0.41580  Biso   1.000  H
  H380     1.0000 0.88830  0.70790  0.25440  Biso   1.000  H
  C103     1.0000 0.88499  0.68350  0.47664  Biso   1.000  C
  H381     1.0000 0.88430  0.65710  0.45720  Biso   1.000  H
  H382     1.0000 0.87280  0.81660  0.52650  Biso   1.000  H
  H383     1.0000 0.95330  0.81310  0.52680  Biso   1.000  H
  H384     1.0000 0.80920  0.69970  0.26240  Biso   1.000  H
  C104     1.0000 0.84291  0.66629  0.36696  Biso   1.000  C
  H385     1.0000 0.82050  0.67000  0.39070  Biso   1.000  H
  H386     1.0000 0.95170  0.68420  0.27820  Biso   1.000  H
  H387     1.0000 0.89710  0.72840  0.24280  Biso   1.000  H
  O26      1.0000 0.97700  0.74000  0.21800  Biso   1.000  O
  H388     1.0000 0.95340  0.75620  0.22060  Biso   1.000  H
  H389     1.0000 0.97880  0.73660  0.28250  Biso   1.000  H
  H390     1.0000 0.01350  0.76360  0.26670  Biso   1.000  H
  N53      1.0000 0.61390  0.76927  0.96177  Biso   1.000  N
  N54      1.0000 0.61828  0.80592  0.85999  Biso   1.000  N
  C105     1.0000 0.64494  0.79890  0.97688  Biso   1.000  C
  H391     1.0000 0.66430  0.81740  0.95790  Biso   1.000  H
  H392     1.0000 0.54040  0.71570  0.97340  Biso   1.000  H
  H393     1.0000 0.60070  0.66150  0.97320  Biso   1.000  H
  C106     1.0000 0.61036  0.85072  0.88357  Biso   1.000  C
  H394     1.0000 0.60640  0.85530  0.91580  Biso   1.000  H
  H395     1.0000 0.61170  0.79210  0.75440  Biso   1.000  H
  C107     1.0000 0.61501  0.81650  0.97664  Biso   1.000  C
  H396     1.0000 0.61570  0.84290  0.95720  Biso   1.000  H
  H397     1.0000 0.62720  0.68340  0.02650  Biso   1.000  H
  H398     1.0000 0.54670  0.68690  0.02680  Biso   1.000  H
  H399     1.0000 0.69080  0.80030  0.76240  Biso   1.000  H
  C108     1.0000 0.65709  0.83371  0.86696  Biso   1.000  C
  H400     1.0000 0.67950  0.83000  0.89070  Biso   1.000  H
  H401     1.0000 0.54830  0.81580  0.77820  Biso   1.000  H
  H402     1.0000 0.60290  0.77160  0.74280  Biso   1.000  H
  O27      1.0000 0.52300  0.76000  0.71800  Biso   1.000  O
  H403     1.0000 0.54660  0.74380  0.72060  Biso   1.000  H
  H404     1.0000 0.52120  0.76340  0.78250  Biso   1.000  H
  H405     1.0000 0.48650  0.73640  0.76670  Biso   1.000  H
  N55      1.0000 0.11390  0.26927  0.46177  Biso   1.000  N
  N56      1.0000 0.11828  0.30592  0.35999  Biso   1.000  N
  C109     1.0000 0.14494  0.29890  0.47688  Biso   1.000  C
  H406     1.0000 0.16430  0.31740  0.45790  Biso   1.000  H
  H407     1.0000 0.04040  0.21570  0.47340  Biso   1.000  H
  H408     1.0000 0.10070  0.16150  0.47320  Biso   1.000  H
  C110     1.0000 0.11036  0.35072  0.38357  Biso   1.000  C
  H409     1.0000 0.10640  0.35530  0.41580  Biso   1.000  H
  H410     1.0000 0.11170  0.29210  0.25440  Biso   1.000  H
  C111     1.0000 0.11501  0.31650  0.47664  Biso   1.000  C
  H411     1.0000 0.11570  0.34290  0.45720  Biso   1.000  H
  H412     1.0000 0.12720  0.18340  0.52650  Biso   1.000  H
  H413     1.0000 0.04670  0.18690  0.52680  Biso   1.000  H
  H414     1.0000 0.19080  0.30030  0.26240  Biso   1.000  H
  C112     1.0000 0.15709  0.33371  0.36696  Biso   1.000  C
  H415     1.0000 0.17950  0.33000  0.39070  Biso   1.000  H
  H416     1.0000 0.04830  0.31580  0.27820  Biso   1.000  H
  H417     1.0000 0.10290  0.27160  0.24280  Biso   1.000  H
  O28      1.0000 0.02300  0.26000  0.21800  Biso   1.000  O
  H418     1.0000 0.04660  0.24380  0.22060  Biso   1.000  H
  H419     1.0000 0.02120  0.26340  0.28250  Biso   1.000  H
  H420     1.0000 0.98650  0.23640  0.26670  Biso   1.000  H
  N57      1.0000 0.38610  0.76927  0.03823  Biso   1.000  N
  N58      1.0000 0.38172  0.80592  0.14001  Biso   1.000  N
  C113     1.0000 0.35506  0.79890  0.02312  Biso   1.000  C
  H421     1.0000 0.33570  0.81740  0.04210  Biso   1.000  H
  H422     1.0000 0.45960  0.71570  0.02660  Biso   1.000  H
  H423     1.0000 0.39930  0.66150  0.02680  Biso   1.000  H
  C114     1.0000 0.38964  0.85072  0.11643  Biso   1.000  C
  H424     1.0000 0.39360  0.85530  0.08420  Biso   1.000  H
  H425     1.0000 0.38830  0.79210  0.24560  Biso   1.000  H
  C115     1.0000 0.38499  0.81650  0.02336  Biso   1.000  C
  H426     1.0000 0.38430  0.84290  0.04280  Biso   1.000  H
  H427     1.0000 0.37280  0.68340  0.97350  Biso   1.000  H
  H428     1.0000 0.45330  0.68690  0.97320  Biso   1.000  H
  H429     1.0000 0.30920  0.80030  0.23760  Biso   1.000  H
  C116     1.0000 0.34291  0.83371  0.13304  Biso   1.000  C
  H430     1.0000 0.32050  0.83000  0.10930  Biso   1.000  H
  H431     1.0000 0.45170  0.81580  0.22180  Biso   1.000  H
  H432     1.0000 0.39710  0.77160  0.25720  Biso   1.000  H
  O29      1.0000 0.47700  0.76000  0.28200  Biso   1.000  O
  H433     1.0000 0.45340  0.74380  0.27940  Biso   1.000  H
  H434     1.0000 0.47880  0.76340  0.21750  Biso   1.000  H
  H435     1.0000 0.51350  0.73640  0.23330  Biso   1.000  H
  N59      1.0000 0.88610  0.26927  0.53823  Biso   1.000  N
  N60      1.0000 0.88172  0.30592  0.64001  Biso   1.000  N
  C117     1.0000 0.85506  0.29890  0.52312  Biso   1.000  C
  H436     1.0000 0.83570  0.31740  0.54210  Biso   1.000  H
  H437     1.0000 0.95960  0.21570  0.52660  Biso   1.000  H
  H438     1.0000 0.89930  0.16150  0.52680  Biso   1.000  H
  C118     1.0000 0.88964  0.35072  0.61643  Biso   1.000  C
  H439     1.0000 0.89360  0.35530  0.58420  Biso   1.000  H
  H440     1.0000 0.88830  0.29210  0.74560  Biso   1.000  H
  C119     1.0000 0.88499  0.31650  0.52336  Biso   1.000  C
  H441     1.0000 0.88430  0.34290  0.54280  Biso   1.000  H
  H442     1.0000 0.87280  0.18340  0.47350  Biso   1.000  H
  H443     1.0000 0.95330  0.18690  0.47320  Biso   1.000  H
  H444     1.0000 0.80920  0.30030  0.73760  Biso   1.000  H
  C120     1.0000 0.84291  0.33371  0.63304  Biso   1.000  C
  H445     1.0000 0.82050  0.33000  0.60930  Biso   1.000  H
  H446     1.0000 0.95170  0.31580  0.72180  Biso   1.000  H
  H447     1.0000 0.89710  0.27160  0.75720  Biso   1.000  H
  O30      1.0000 0.97700  0.26000  0.78200  Biso   1.000  O
  H448     1.0000 0.95340  0.24380  0.77940  Biso   1.000  H
  H449     1.0000 0.97880  0.26340  0.71750  Biso   1.000  H
  H450     1.0000 0.01350  0.23640  0.73330  Biso   1.000  H
  N61      1.0000 0.61390  0.23073  0.03823  Biso   1.000  N
  N62      1.0000 0.61828  0.19408  0.14001  Biso   1.000  N
  C121     1.0000 0.64494  0.20110  0.02312  Biso   1.000  C
  H451     1.0000 0.66430  0.18260  0.04210  Biso   1.000  H
  H452     1.0000 0.54040  0.28430  0.02660  Biso   1.000  H
  H453     1.0000 0.60070  0.33850  0.02680  Biso   1.000  H
  C122     1.0000 0.61036  0.14928  0.11643  Biso   1.000  C
  H454     1.0000 0.60640  0.14470  0.08420  Biso   1.000  H
  H455     1.0000 0.61170  0.20790  0.24560  Biso   1.000  H
  C123     1.0000 0.61501  0.18350  0.02336  Biso   1.000  C
  H456     1.0000 0.61570  0.15710  0.04280  Biso   1.000  H
  H457     1.0000 0.62720  0.31660  0.97350  Biso   1.000  H
  H458     1.0000 0.54670  0.31310  0.97320  Biso   1.000  H
  H459     1.0000 0.69080  0.19970  0.23760  Biso   1.000  H
  C124     1.0000 0.65709  0.16629  0.13304  Biso   1.000  C
  H460     1.0000 0.67950  0.17000  0.10930  Biso   1.000  H
  H461     1.0000 0.54830  0.18420  0.22180  Biso   1.000  H
  H462     1.0000 0.60290  0.22840  0.25720  Biso   1.000  H
  O31      1.0000 0.52300  0.24000  0.28200  Biso   1.000  O
  H463     1.0000 0.54660  0.25620  0.27940  Biso   1.000  H
  H464     1.0000 0.52120  0.23660  0.21750  Biso   1.000  H
  H465     1.0000 0.48650  0.26360  0.23330  Biso   1.000  H
  N63      1.0000 0.11390  0.73073  0.53823  Biso   1.000  N
  N64      1.0000 0.11828  0.69408  0.64001  Biso   1.000  N
  C125     1.0000 0.14494  0.70110  0.52312  Biso   1.000  C
  H466     1.0000 0.16430  0.68260  0.54210  Biso   1.000  H
  H467     1.0000 0.04040  0.78430  0.52660  Biso   1.000  H
  H468     1.0000 0.10070  0.83850  0.52680  Biso   1.000  H
  C126     1.0000 0.11036  0.64928  0.61643  Biso   1.000  C
  H469     1.0000 0.10640  0.64470  0.58420  Biso   1.000  H
  H470     1.0000 0.11170  0.70790  0.74560  Biso   1.000  H
  C127     1.0000 0.11501  0.68350  0.52336  Biso   1.000  C
  H471     1.0000 0.11570  0.65710  0.54280  Biso   1.000  H
  H472     1.0000 0.12720  0.81660  0.47350  Biso   1.000  H
  H473     1.0000 0.04670  0.81310  0.47320  Biso   1.000  H
  H474     1.0000 0.19080  0.69970  0.73760  Biso   1.000  H
  C128     1.0000 0.15709  0.66629  0.63304  Biso   1.000  C
  H475     1.0000 0.17950  0.67000  0.60930  Biso   1.000  H
  H476     1.0000 0.04830  0.68420  0.72180  Biso   1.000  H
  H477     1.0000 0.10290  0.72840  0.75720  Biso   1.000  H
  O32      1.0000 0.02300  0.74000  0.78200  Biso   1.000  O
  H478     1.0000 0.04660  0.75620  0.77940  Biso   1.000  H
  H479     1.0000 0.02120  0.73660  0.71750  Biso   1.000  H
  H480     1.0000 0.98650  0.76360  0.73330  Biso   1.000  H
  N65      1.0000 0.23073  0.03823  0.61390  Biso   1.000  N
  N66      1.0000 0.19408  0.14001  0.61828  Biso   1.000  N
  C129     1.0000 0.20110  0.02312  0.64494  Biso   1.000  C
  H481     1.0000 0.18260  0.04210  0.66430  Biso   1.000  H
  H482     1.0000 0.28430  0.02660  0.54040  Biso   1.000  H
  H483     1.0000 0.33850  0.02680  0.60070  Biso   1.000  H
  C130     1.0000 0.14928  0.11643  0.61036  Biso   1.000  C
  H484     1.0000 0.14470  0.08420  0.60640  Biso   1.000  H
  H485     1.0000 0.20790  0.24560  0.61170  Biso   1.000  H
  C131     1.0000 0.18350  0.02336  0.61501  Biso   1.000  C
  H486     1.0000 0.15710  0.04280  0.61570  Biso   1.000  H
  H487     1.0000 0.31660  0.97350  0.62720  Biso   1.000  H
  H488     1.0000 0.31310  0.97320  0.54670  Biso   1.000  H
  H489     1.0000 0.19970  0.23760  0.69080  Biso   1.000  H
  C132     1.0000 0.16629  0.13304  0.65709  Biso   1.000  C
  H490     1.0000 0.17000  0.10930  0.67950  Biso   1.000  H
  H491     1.0000 0.18420  0.22180  0.54830  Biso   1.000  H
  H492     1.0000 0.22840  0.25720  0.60290  Biso   1.000  H
  O33      1.0000 0.24000  0.28200  0.52300  Biso   1.000  O
  H493     1.0000 0.25620  0.27940  0.54660  Biso   1.000  H
  H494     1.0000 0.23660  0.21750  0.52120  Biso   1.000  H
  H495     1.0000 0.26360  0.23330  0.48650  Biso   1.000  H
  N67      1.0000 0.73073  0.53823  0.11390  Biso   1.000  N
  N68      1.0000 0.69408  0.64001  0.11828  Biso   1.000  N
  C133     1.0000 0.70110  0.52312  0.14494  Biso   1.000  C
  H496     1.0000 0.68260  0.54210  0.16430  Biso   1.000  H
  H497     1.0000 0.78430  0.52660  0.04040  Biso   1.000  H
  H498     1.0000 0.83850  0.52680  0.10070  Biso   1.000  H
  C134     1.0000 0.64928  0.61643  0.11036  Biso   1.000  C
  H499     1.0000 0.64470  0.58420  0.10640  Biso   1.000  H
  H500     1.0000 0.70790  0.74560  0.11170  Biso   1.000  H
  C135     1.0000 0.68350  0.52336  0.11501  Biso   1.000  C
  H501     1.0000 0.65710  0.54280  0.11570  Biso   1.000  H
  H502     1.0000 0.81660  0.47350  0.12720  Biso   1.000  H
  H503     1.0000 0.81310  0.47320  0.04670  Biso   1.000  H
  H504     1.0000 0.69970  0.73760  0.19080  Biso   1.000  H
  C136     1.0000 0.66629  0.63304  0.15709  Biso   1.000  C
  H505     1.0000 0.67000  0.60930  0.17950  Biso   1.000  H
  H506     1.0000 0.68420  0.72180  0.04830  Biso   1.000  H
  H507     1.0000 0.72840  0.75720  0.10290  Biso   1.000  H
  O34      1.0000 0.74000  0.78200  0.02300  Biso   1.000  O
  H508     1.0000 0.75620  0.77940  0.04660  Biso   1.000  H
  H509     1.0000 0.73660  0.71750  0.02120  Biso   1.000  H
  H510     1.0000 0.76360  0.73330  0.98650  Biso   1.000  H
  N69      1.0000 0.76927  0.03823  0.38610  Biso   1.000  N
  N70      1.0000 0.80592  0.14001  0.38172  Biso   1.000  N
  C137     1.0000 0.79890  0.02312  0.35506  Biso   1.000  C
  H511     1.0000 0.81740  0.04210  0.33570  Biso   1.000  H
  H512     1.0000 0.71570  0.02660  0.45960  Biso   1.000  H
  H513     1.0000 0.66150  0.02680  0.39930  Biso   1.000  H
  C138     1.0000 0.85072  0.11643  0.38964  Biso   1.000  C
  H514     1.0000 0.85530  0.08420  0.39360  Biso   1.000  H
  H515     1.0000 0.79210  0.24560  0.38830  Biso   1.000  H
  C139     1.0000 0.81650  0.02336  0.38499  Biso   1.000  C
  H516     1.0000 0.84290  0.04280  0.38430  Biso   1.000  H
  H517     1.0000 0.68340  0.97350  0.37280  Biso   1.000  H
  H518     1.0000 0.68690  0.97320  0.45330  Biso   1.000  H
  H519     1.0000 0.80030  0.23760  0.30920  Biso   1.000  H
  C140     1.0000 0.83371  0.13304  0.34291  Biso   1.000  C
  H520     1.0000 0.83000  0.10930  0.32050  Biso   1.000  H
  H521     1.0000 0.81580  0.22180  0.45170  Biso   1.000  H
  H522     1.0000 0.77160  0.25720  0.39710  Biso   1.000  H
  O35      1.0000 0.76000  0.28200  0.47700  Biso   1.000  O
  H523     1.0000 0.74380  0.27940  0.45340  Biso   1.000  H
  H524     1.0000 0.76340  0.21750  0.47880  Biso   1.000  H
  H525     1.0000 0.73640  0.23330  0.51350  Biso   1.000  H
  N71      1.0000 0.26927  0.53823  0.88610  Biso   1.000  N
  N72      1.0000 0.30592  0.64001  0.88172  Biso   1.000  N
  C141     1.0000 0.29890  0.52312  0.85506  Biso   1.000  C
  H526     1.0000 0.31740  0.54210  0.83570  Biso   1.000  H
  H527     1.0000 0.21570  0.52660  0.95960  Biso   1.000  H
  H528     1.0000 0.16150  0.52680  0.89930  Biso   1.000  H
  C142     1.0000 0.35072  0.61643  0.88964  Biso   1.000  C
  H529     1.0000 0.35530  0.58420  0.89360  Biso   1.000  H
  H530     1.0000 0.29210  0.74560  0.88830  Biso   1.000  H
  C143     1.0000 0.31650  0.52336  0.88499  Biso   1.000  C
  H531     1.0000 0.34290  0.54280  0.88430  Biso   1.000  H
  H532     1.0000 0.18340  0.47350  0.87280  Biso   1.000  H
  H533     1.0000 0.18690  0.47320  0.95330  Biso   1.000  H
  H534     1.0000 0.30030  0.73760  0.80920  Biso   1.000  H
  C144     1.0000 0.33371  0.63304  0.84291  Biso   1.000  C
  H535     1.0000 0.33000  0.60930  0.82050  Biso   1.000  H
  H536     1.0000 0.31580  0.72180  0.95170  Biso   1.000  H
  H537     1.0000 0.27160  0.75720  0.89710  Biso   1.000  H
  O36      1.0000 0.26000  0.78200  0.97700  Biso   1.000  O
  H538     1.0000 0.24380  0.77940  0.95340  Biso   1.000  H
  H539     1.0000 0.26340  0.71750  0.97880  Biso   1.000  H
  H540     1.0000 0.23640  0.73330  0.01350  Biso   1.000  H
  N73      1.0000 0.76927  0.96177  0.61390  Biso   1.000  N
  N74      1.0000 0.80592  0.85999  0.61828  Biso   1.000  N
  C145     1.0000 0.79890  0.97688  0.64494  Biso   1.000  C
  H541     1.0000 0.81740  0.95790  0.66430  Biso   1.000  H
  H542     1.0000 0.71570  0.97340  0.54040  Biso   1.000  H
  H543     1.0000 0.66150  0.97320  0.60070  Biso   1.000  H
  C146     1.0000 0.85072  0.88357  0.61036  Biso   1.000  C
  H544     1.0000 0.85530  0.91580  0.60640  Biso   1.000  H
  H545     1.0000 0.79210  0.75440  0.61170  Biso   1.000  H
  C147     1.0000 0.81650  0.97664  0.61501  Biso   1.000  C
  H546     1.0000 0.84290  0.95720  0.61570  Biso   1.000  H
  H547     1.0000 0.68340  0.02650  0.62720  Biso   1.000  H
  H548     1.0000 0.68690  0.02680  0.54670  Biso   1.000  H
  H549     1.0000 0.80030  0.76240  0.69080  Biso   1.000  H
  C148     1.0000 0.83371  0.86696  0.65709  Biso   1.000  C
  H550     1.0000 0.83000  0.89070  0.67950  Biso   1.000  H
  H551     1.0000 0.81580  0.77820  0.54830  Biso   1.000  H
  H552     1.0000 0.77160  0.74280  0.60290  Biso   1.000  H
  O37      1.0000 0.76000  0.71800  0.52300  Biso   1.000  O
  H553     1.0000 0.74380  0.72060  0.54660  Biso   1.000  H
  H554     1.0000 0.76340  0.78250  0.52120  Biso   1.000  H
  H555     1.0000 0.73640  0.76670  0.48650  Biso   1.000  H
  N75      1.0000 0.26927  0.46177  0.11390  Biso   1.000  N
  N76      1.0000 0.30592  0.35999  0.11828  Biso   1.000  N
  C149     1.0000 0.29890  0.47688  0.14494  Biso   1.000  C
  H556     1.0000 0.31740  0.45790  0.16430  Biso   1.000  H
  H557     1.0000 0.21570  0.47340  0.04040  Biso   1.000  H
  H558     1.0000 0.16150  0.47320  0.10070  Biso   1.000  H
  C150     1.0000 0.35072  0.38357  0.11036  Biso   1.000  C
  H559     1.0000 0.35530  0.41580  0.10640  Biso   1.000  H
  H560     1.0000 0.29210  0.25440  0.11170  Biso   1.000  H
  C151     1.0000 0.31650  0.47664  0.11501  Biso   1.000  C
  H561     1.0000 0.34290  0.45720  0.11570  Biso   1.000  H
  H562     1.0000 0.18340  0.52650  0.12720  Biso   1.000  H
  H563     1.0000 0.18690  0.52680  0.04670  Biso   1.000  H
  H564     1.0000 0.30030  0.26240  0.19080  Biso   1.000  H
  C152     1.0000 0.33371  0.36696  0.15709  Biso   1.000  C
  H565     1.0000 0.33000  0.39070  0.17950  Biso   1.000  H
  H566     1.0000 0.31580  0.27820  0.04830  Biso   1.000  H
  H567     1.0000 0.27160  0.24280  0.10290  Biso   1.000  H
  O38      1.0000 0.26000  0.21800  0.02300  Biso   1.000  O
  H568     1.0000 0.24380  0.22060  0.04660  Biso   1.000  H
  H569     1.0000 0.26340  0.28250  0.02120  Biso   1.000  H
  H570     1.0000 0.23640  0.26670  0.98650  Biso   1.000  H
  N77      1.0000 0.23073  0.96177  0.38610  Biso   1.000  N
  N78      1.0000 0.19408  0.85999  0.38172  Biso   1.000  N
  C153     1.0000 0.20110  0.97688  0.35506  Biso   1.000  C
  H571     1.0000 0.18260  0.95790  0.33570  Biso   1.000  H
  H572     1.0000 0.28430  0.97340  0.45960  Biso   1.000  H
  H573     1.0000 0.33850  0.97320  0.39930  Biso   1.000  H
  C154     1.0000 0.14928  0.88357  0.38964  Biso   1.000  C
  H574     1.0000 0.14470  0.91580  0.39360  Biso   1.000  H
  H575     1.0000 0.20790  0.75440  0.38830  Biso   1.000  H
  C155     1.0000 0.18350  0.97664  0.38499  Biso   1.000  C
  H576     1.0000 0.15710  0.95720  0.38430  Biso   1.000  H
  H577     1.0000 0.31660  0.02650  0.37280  Biso   1.000  H
  H578     1.0000 0.31310  0.02680  0.45330  Biso   1.000  H
  H579     1.0000 0.19970  0.76240  0.30920  Biso   1.000  H
  C156     1.0000 0.16629  0.86696  0.34291  Biso   1.000  C
  H580     1.0000 0.17000  0.89070  0.32050  Biso   1.000  H
  H581     1.0000 0.18420  0.77820  0.45170  Biso   1.000  H
  H582     1.0000 0.22840  0.74280  0.39710  Biso   1.000  H
  O39      1.0000 0.24000  0.71800  0.47700  Biso   1.000  O
  H583     1.0000 0.25620  0.72060  0.45340  Biso   1.000  H
  H584     1.0000 0.23660  0.78250  0.47880  Biso   1.000  H
  H585     1.0000 0.26360  0.76670  0.51350  Biso   1.000  H
  N79      1.0000 0.73073  0.46177  0.88610  Biso   1.000  N
  N80      1.0000 0.69408  0.35999  0.88172  Biso   1.000  N
  C157     1.0000 0.70110  0.47688  0.85506  Biso   1.000  C
  H586     1.0000 0.68260  0.45790  0.83570  Biso   1.000  H
  H587     1.0000 0.78430  0.47340  0.95960  Biso   1.000  H
  H588     1.0000 0.83850  0.47320  0.89930  Biso   1.000  H
  C158     1.0000 0.64928  0.38357  0.88964  Biso   1.000  C
  H589     1.0000 0.64470  0.41580  0.89360  Biso   1.000  H
  H590     1.0000 0.70790  0.25440  0.88830  Biso   1.000  H
  C159     1.0000 0.68350  0.47664  0.88499  Biso   1.000  C
  H591     1.0000 0.65710  0.45720  0.88430  Biso   1.000  H
  H592     1.0000 0.81660  0.52650  0.87280  Biso   1.000  H
  H593     1.0000 0.81310  0.52680  0.95330  Biso   1.000  H
  H594     1.0000 0.69970  0.26240  0.80920  Biso   1.000  H
  C160     1.0000 0.66629  0.36696  0.84291  Biso   1.000  C
  H595     1.0000 0.67000  0.39070  0.82050  Biso   1.000  H
  H596     1.0000 0.68420  0.27820  0.95170  Biso   1.000  H
  H597     1.0000 0.72840  0.24280  0.89710  Biso   1.000  H
  O40      1.0000 0.74000  0.21800  0.97700  Biso   1.000  O
  H598     1.0000 0.75620  0.22060  0.95340  Biso   1.000  H
  H599     1.0000 0.73660  0.28250  0.97880  Biso   1.000  H
  H600     1.0000 0.76360  0.26670  0.01350  Biso   1.000  H
  N81      1.0000 0.03823  0.38610  0.76927  Biso   1.000  N
  N82      1.0000 0.14001  0.38172  0.80592  Biso   1.000  N
  C161     1.0000 0.02312  0.35506  0.79890  Biso   1.000  C
  H601     1.0000 0.04210  0.33570  0.81740  Biso   1.000  H
  H602     1.0000 0.02660  0.45960  0.71570  Biso   1.000  H
  H603     1.0000 0.02680  0.39930  0.66150  Biso   1.000  H
  C162     1.0000 0.11643  0.38964  0.85072  Biso   1.000  C
  H604     1.0000 0.08420  0.39360  0.85530  Biso   1.000  H
  H605     1.0000 0.24560  0.38830  0.79210  Biso   1.000  H
  C163     1.0000 0.02336  0.38499  0.81650  Biso   1.000  C
  H606     1.0000 0.04280  0.38430  0.84290  Biso   1.000  H
  H607     1.0000 0.97350  0.37280  0.68340  Biso   1.000  H
  H608     1.0000 0.97320  0.45330  0.68690  Biso   1.000  H
  H609     1.0000 0.23760  0.30920  0.80030  Biso   1.000  H
  C164     1.0000 0.13304  0.34291  0.83371  Biso   1.000  C
  H610     1.0000 0.10930  0.32050  0.83000  Biso   1.000  H
  H611     1.0000 0.22180  0.45170  0.81580  Biso   1.000  H
  H612     1.0000 0.25720  0.39710  0.77160  Biso   1.000  H
  O41      1.0000 0.28200  0.47700  0.76000  Biso   1.000  O
  H613     1.0000 0.27940  0.45340  0.74380  Biso   1.000  H
  H614     1.0000 0.21750  0.47880  0.76340  Biso   1.000  H
  H615     1.0000 0.23330  0.51350  0.73640  Biso   1.000  H
  N83      1.0000 0.53823  0.88610  0.26927  Biso   1.000  N
  N84      1.0000 0.64001  0.88172  0.30592  Biso   1.000  N
  C165     1.0000 0.52312  0.85506  0.29890  Biso   1.000  C
  H616     1.0000 0.54210  0.83570  0.31740  Biso   1.000  H
  H617     1.0000 0.52660  0.95960  0.21570  Biso   1.000  H
  H618     1.0000 0.52680  0.89930  0.16150  Biso   1.000  H
  C166     1.0000 0.61643  0.88964  0.35072  Biso   1.000  C
  H619     1.0000 0.58420  0.89360  0.35530  Biso   1.000  H
  H620     1.0000 0.74560  0.88830  0.29210  Biso   1.000  H
  C167     1.0000 0.52336  0.88499  0.31650  Biso   1.000  C
  H621     1.0000 0.54280  0.88430  0.34290  Biso   1.000  H
  H622     1.0000 0.47350  0.87280  0.18340  Biso   1.000  H
  H623     1.0000 0.47320  0.95330  0.18690  Biso   1.000  H
  H624     1.0000 0.73760  0.80920  0.30030  Biso   1.000  H
  C168     1.0000 0.63304  0.84291  0.33371  Biso   1.000  C
  H625     1.0000 0.60930  0.82050  0.33000  Biso   1.000  H
  H626     1.0000 0.72180  0.95170  0.31580  Biso   1.000  H
  H627     1.0000 0.75720  0.89710  0.27160  Biso   1.000  H
  O42      1.0000 0.78200  0.97700  0.26000  Biso   1.000  O
  H628     1.0000 0.77940  0.95340  0.24380  Biso   1.000  H
  H629     1.0000 0.71750  0.97880  0.26340  Biso   1.000  H
  H630     1.0000 0.73330  0.01350  0.23640  Biso   1.000  H
  N85      1.0000 0.03823  0.61390  0.23073  Biso   1.000  N
  N86      1.0000 0.14001  0.61828  0.19408  Biso   1.000  N
  C169     1.0000 0.02312  0.64494  0.20110  Biso   1.000  C
  H631     1.0000 0.04210  0.66430  0.18260  Biso   1.000  H
  H632     1.0000 0.02660  0.54040  0.28430  Biso   1.000  H
  H633     1.0000 0.02680  0.60070  0.33850  Biso   1.000  H
  C170     1.0000 0.11643  0.61036  0.14928  Biso   1.000  C
  H634     1.0000 0.08420  0.60640  0.14470  Biso   1.000  H
  H635     1.0000 0.24560  0.61170  0.20790  Biso   1.000  H
  C171     1.0000 0.02336  0.61501  0.18350  Biso   1.000  C
  H636     1.0000 0.04280  0.61570  0.15710  Biso   1.000  H
  H637     1.0000 0.97350  0.62720  0.31660  Biso   1.000  H
  H638     1.0000 0.97320  0.54670  0.31310  Biso   1.000  H
  H639     1.0000 0.23760  0.69080  0.19970  Biso   1.000  H
  C172     1.0000 0.13304  0.65709  0.16629  Biso   1.000  C
  H640     1.0000 0.10930  0.67950  0.17000  Biso   1.000  H
  H641     1.0000 0.22180  0.54830  0.18420  Biso   1.000  H
  H642     1.0000 0.25720  0.60290  0.22840  Biso   1.000  H
  O43      1.0000 0.28200  0.52300  0.24000  Biso   1.000  O
  H643     1.0000 0.27940  0.54660  0.25620  Biso   1.000  H
  H644     1.0000 0.21750  0.52120  0.23660  Biso   1.000  H
  H645     1.0000 0.23330  0.48650  0.26360  Biso   1.000  H
  N87      1.0000 0.53823  0.11390  0.73073  Biso   1.000  N
  N88      1.0000 0.64001  0.11828  0.69408  Biso   1.000  N
  C173     1.0000 0.52312  0.14494  0.70110  Biso   1.000  C
  H646     1.0000 0.54210  0.16430  0.68260  Biso   1.000  H
  H647     1.0000 0.52660  0.04040  0.78430  Biso   1.000  H
  H648     1.0000 0.52680  0.10070  0.83850  Biso   1.000  H
  C174     1.0000 0.61643  0.11036  0.64928  Biso   1.000  C
  H649     1.0000 0.58420  0.10640  0.64470  Biso   1.000  H
  H650     1.0000 0.74560  0.11170  0.70790  Biso   1.000  H
  C175     1.0000 0.52336  0.11501  0.68350  Biso   1.000  C
  H651     1.0000 0.54280  0.11570  0.65710  Biso   1.000  H
  H652     1.0000 0.47350  0.12720  0.81660  Biso   1.000  H
  H653     1.0000 0.47320  0.04670  0.81310  Biso   1.000  H
  H654     1.0000 0.73760  0.19080  0.69970  Biso   1.000  H
  C176     1.0000 0.63304  0.15709  0.66629  Biso   1.000  C
  H655     1.0000 0.60930  0.17950  0.67000  Biso   1.000  H
  H656     1.0000 0.72180  0.04830  0.68420  Biso   1.000  H
  H657     1.0000 0.75720  0.10290  0.72840  Biso   1.000  H
  O44      1.0000 0.78200  0.02300  0.74000  Biso   1.000  O
  H658     1.0000 0.77940  0.04660  0.75620  Biso   1.000  H
  H659     1.0000 0.71750  0.02120  0.73660  Biso   1.000  H
  H660     1.0000 0.73330  0.98650  0.76360  Biso   1.000  H
  N89      1.0000 0.96177  0.38610  0.23073  Biso   1.000  N
  N90      1.0000 0.85999  0.38172  0.19408  Biso   1.000  N
  C177     1.0000 0.97688  0.35506  0.20110  Biso   1.000  C
  H661     1.0000 0.95790  0.33570  0.18260  Biso   1.000  H
  H662     1.0000 0.97340  0.45960  0.28430  Biso   1.000  H
  H663     1.0000 0.97320  0.39930  0.33850  Biso   1.000  H
  C178     1.0000 0.88357  0.38964  0.14928  Biso   1.000  C
  H664     1.0000 0.91580  0.39360  0.14470  Biso   1.000  H
  H665     1.0000 0.75440  0.38830  0.20790  Biso   1.000  H
  C179     1.0000 0.97664  0.38499  0.18350  Biso   1.000  C
  H666     1.0000 0.95720  0.38430  0.15710  Biso   1.000  H
  H667     1.0000 0.02650  0.37280  0.31660  Biso   1.000  H
  H668     1.0000 0.02680  0.45330  0.31310  Biso   1.000  H
  H669     1.0000 0.76240  0.30920  0.19970  Biso   1.000  H
  C180     1.0000 0.86696  0.34291  0.16629  Biso   1.000  C
  H670     1.0000 0.89070  0.32050  0.17000  Biso   1.000  H
  H671     1.0000 0.77820  0.45170  0.18420  Biso   1.000  H
  H672     1.0000 0.74280  0.39710  0.22840  Biso   1.000  H
  O45      1.0000 0.71800  0.47700  0.24000  Biso   1.000  O
  H673     1.0000 0.72060  0.45340  0.25620  Biso   1.000  H
  H674     1.0000 0.78250  0.47880  0.23660  Biso   1.000  H
  H675     1.0000 0.76670  0.51350  0.26360  Biso   1.000  H
  N91      1.0000 0.46177  0.88610  0.73073  Biso   1.000  N
  N92      1.0000 0.35999  0.88172  0.69408  Biso   1.000  N
  C181     1.0000 0.47688  0.85506  0.70110  Biso   1.000  C
  H676     1.0000 0.45790  0.83570  0.68260  Biso   1.000  H
  H677     1.0000 0.47340  0.95960  0.78430  Biso   1.000  H
  H678     1.0000 0.47320  0.89930  0.83850  Biso   1.000  H
  C182     1.0000 0.38357  0.88964  0.64928  Biso   1.000  C
  H679     1.0000 0.41580  0.89360  0.64470  Biso   1.000  H
  H680     1.0000 0.25440  0.88830  0.70790  Biso   1.000  H
  C183     1.0000 0.47664  0.88499  0.68350  Biso   1.000  C
  H681     1.0000 0.45720  0.88430  0.65710  Biso   1.000  H
  H682     1.0000 0.52650  0.87280  0.81660  Biso   1.000  H
  H683     1.0000 0.52680  0.95330  0.81310  Biso   1.000  H
  H684     1.0000 0.26240  0.80920  0.69970  Biso   1.000  H
  C184     1.0000 0.36696  0.84291  0.66629  Biso   1.000  C
  H685     1.0000 0.39070  0.82050  0.67000  Biso   1.000  H
  H686     1.0000 0.27820  0.95170  0.68420  Biso   1.000  H
  H687     1.0000 0.24280  0.89710  0.72840  Biso   1.000  H
  O46      1.0000 0.21800  0.97700  0.74000  Biso   1.000  O
  H688     1.0000 0.22060  0.95340  0.75620  Biso   1.000  H
  H689     1.0000 0.28250  0.97880  0.73660  Biso   1.000  H
  H690     1.0000 0.26670  0.01350  0.76360  Biso   1.000  H
  N93      1.0000 0.96177  0.61390  0.76927  Biso   1.000  N
  N94      1.0000 0.85999  0.61828  0.80592  Biso   1.000  N
  C185     1.0000 0.97688  0.64494  0.79890  Biso   1.000  C
  H691     1.0000 0.95790  0.66430  0.81740  Biso   1.000  H
  H692     1.0000 0.97340  0.54040  0.71570  Biso   1.000  H
  H693     1.0000 0.97320  0.60070  0.66150  Biso   1.000  H
  C186     1.0000 0.88357  0.61036  0.85072  Biso   1.000  C
  H694     1.0000 0.91580  0.60640  0.85530  Biso   1.000  H
  H695     1.0000 0.75440  0.61170  0.79210  Biso   1.000  H
  C187     1.0000 0.97664  0.61501  0.81650  Biso   1.000  C
  H696     1.0000 0.95720  0.61570  0.84290  Biso   1.000  H
  H697     1.0000 0.02650  0.62720  0.68340  Biso   1.000  H
  H698     1.0000 0.02680  0.54670  0.68690  Biso   1.000  H
  H699     1.0000 0.76240  0.69080  0.80030  Biso   1.000  H
  C188     1.0000 0.86696  0.65709  0.83371  Biso   1.000  C
  H700     1.0000 0.89070  0.67950  0.83000  Biso   1.000  H
  H701     1.0000 0.77820  0.54830  0.81580  Biso   1.000  H
  H702     1.0000 0.74280  0.60290  0.77160  Biso   1.000  H
  O47      1.0000 0.71800  0.52300  0.76000  Biso   1.000  O
  H703     1.0000 0.72060  0.54660  0.74380  Biso   1.000  H
  H704     1.0000 0.78250  0.52120  0.76340  Biso   1.000  H
  H705     1.0000 0.76670  0.48650  0.73640  Biso   1.000  H
  N95      1.0000 0.46177  0.11390  0.26927  Biso   1.000  N
  N96      1.0000 0.35999  0.11828  0.30592  Biso   1.000  N
  C189     1.0000 0.47688  0.14494  0.29890  Biso   1.000  C
  H706     1.0000 0.45790  0.16430  0.31740  Biso   1.000  H
  H707     1.0000 0.47340  0.04040  0.21570  Biso   1.000  H
  H708     1.0000 0.47320  0.10070  0.16150  Biso   1.000  H
  C190     1.0000 0.38357  0.11036  0.35072  Biso   1.000  C
  H709     1.0000 0.41580  0.10640  0.35530  Biso   1.000  H
  H710     1.0000 0.25440  0.11170  0.29210  Biso   1.000  H
  C191     1.0000 0.47664  0.11501  0.31650  Biso   1.000  C
  H711     1.0000 0.45720  0.11570  0.34290  Biso   1.000  H
  H712     1.0000 0.52650  0.12720  0.18340  Biso   1.000  H
  H713     1.0000 0.52680  0.04670  0.18690  Biso   1.000  H
  H714     1.0000 0.26240  0.19080  0.30030  Biso   1.000  H
  C192     1.0000 0.36696  0.15709  0.33371  Biso   1.000  C
  H715     1.0000 0.39070  0.17950  0.33000  Biso   1.000  H
  H716     1.0000 0.27820  0.04830  0.31580  Biso   1.000  H
  H717     1.0000 0.24280  0.10290  0.27160  Biso   1.000  H
  O48      1.0000 0.21800  0.02300  0.26000  Biso   1.000  O
  H718     1.0000 0.22060  0.04660  0.24380  Biso   1.000  H
  H719     1.0000 0.28250  0.02120  0.26340  Biso   1.000  H
  H720     1.0000 0.26670  0.98650  0.23640  Biso   1.000  H
  N97      1.0000 0.76927  0.61390  0.96177  Biso   1.000  N
  N98      1.0000 0.80592  0.61828  0.85999  Biso   1.000  N
  C193     1.0000 0.79890  0.64494  0.97688  Biso   1.000  C
  H721     1.0000 0.81740  0.66430  0.95790  Biso   1.000  H
  H722     1.0000 0.71570  0.54040  0.97340  Biso   1.000  H
  H723     1.0000 0.66150  0.60070  0.97320  Biso   1.000  H
  C194     1.0000 0.85072  0.61036  0.88357  Biso   1.000  C
  H724     1.0000 0.85530  0.60640  0.91580  Biso   1.000  H
  H725     1.0000 0.79210  0.61170  0.75440  Biso   1.000  H
  C195     1.0000 0.81650  0.61501  0.97664  Biso   1.000  C
  H726     1.0000 0.84290  0.61570  0.95720  Biso   1.000  H
  H727     1.0000 0.68340  0.62720  0.02650  Biso   1.000  H
  H728     1.0000 0.68690  0.54670  0.02680  Biso   1.000  H
  H729     1.0000 0.80030  0.69080  0.76240  Biso   1.000  H
  C196     1.0000 0.83371  0.65709  0.86696  Biso   1.000  C
  H730     1.0000 0.83000  0.67950  0.89070  Biso   1.000  H
  H731     1.0000 0.81580  0.54830  0.77820  Biso   1.000  H
  H732     1.0000 0.77160  0.60290  0.74280  Biso   1.000  H
  O49      1.0000 0.76000  0.52300  0.71800  Biso   1.000  O
  H733     1.0000 0.74380  0.54660  0.72060  Biso   1.000  H
  H734     1.0000 0.76340  0.52120  0.78250  Biso   1.000  H
  H735     1.0000 0.73640  0.48650  0.76670  Biso   1.000  H
  N99      1.0000 0.26927  0.11390  0.46177  Biso   1.000  N
  N100     1.0000 0.30592  0.11828  0.35999  Biso   1.000  N
  C197     1.0000 0.29890  0.14494  0.47688  Biso   1.000  C
  H736     1.0000 0.31740  0.16430  0.45790  Biso   1.000  H
  H737     1.0000 0.21570  0.04040  0.47340  Biso   1.000  H
  H738     1.0000 0.16150  0.10070  0.47320  Biso   1.000  H
  C198     1.0000 0.35072  0.11036  0.38357  Biso   1.000  C
  H739     1.0000 0.35530  0.10640  0.41580  Biso   1.000  H
  H740     1.0000 0.29210  0.11170  0.25440  Biso   1.000  H
  C199     1.0000 0.31650  0.11501  0.47664  Biso   1.000  C
  H741     1.0000 0.34290  0.11570  0.45720  Biso   1.000  H
  H742     1.0000 0.18340  0.12720  0.52650  Biso   1.000  H
  H743     1.0000 0.18690  0.04670  0.52680  Biso   1.000  H
  H744     1.0000 0.30030  0.19080  0.26240  Biso   1.000  H
  C200     1.0000 0.33371  0.15709  0.36696  Biso   1.000  C
  H745     1.0000 0.33000  0.17950  0.39070  Biso   1.000  H
  H746     1.0000 0.31580  0.04830  0.27820  Biso   1.000  H
  H747     1.0000 0.27160  0.10290  0.24280  Biso   1.000  H
  O50      1.0000 0.26000  0.02300  0.21800  Biso   1.000  O
  H748     1.0000 0.24380  0.04660  0.22060  Biso   1.000  H
  H749     1.0000 0.26340  0.02120  0.28250  Biso   1.000  H
  H750     1.0000 0.23640  0.98650  0.26670  Biso   1.000  H
  N101     1.0000 0.23073  0.38610  0.96177  Biso   1.000  N
  N102     1.0000 0.19408  0.38172  0.85999  Biso   1.000  N
  C201     1.0000 0.20110  0.35506  0.97688  Biso   1.000  C
  H751     1.0000 0.18260  0.33570  0.95790  Biso   1.000  H
  H752     1.0000 0.28430  0.45960  0.97340  Biso   1.000  H
  H753     1.0000 0.33850  0.39930  0.97320  Biso   1.000  H
  C202     1.0000 0.14928  0.38964  0.88357  Biso   1.000  C
  H754     1.0000 0.14470  0.39360  0.91580  Biso   1.000  H
  H755     1.0000 0.20790  0.38830  0.75440  Biso   1.000  H
  C203     1.0000 0.18350  0.38499  0.97664  Biso   1.000  C
  H756     1.0000 0.15710  0.38430  0.95720  Biso   1.000  H
  H757     1.0000 0.31660  0.37280  0.02650  Biso   1.000  H
  H758     1.0000 0.31310  0.45330  0.02680  Biso   1.000  H
  H759     1.0000 0.19970  0.30920  0.76240  Biso   1.000  H
  C204     1.0000 0.16629  0.34291  0.86696  Biso   1.000  C
  H760     1.0000 0.17000  0.32050  0.89070  Biso   1.000  H
  H761     1.0000 0.18420  0.45170  0.77820  Biso   1.000  H
  H762     1.0000 0.22840  0.39710  0.74280  Biso   1.000  H
  O51      1.0000 0.24000  0.47700  0.71800  Biso   1.000  O
  H763     1.0000 0.25620  0.45340  0.72060  Biso   1.000  H
  H764     1.0000 0.23660  0.47880  0.78250  Biso   1.000  H
  H765     1.0000 0.26360  0.51350  0.76670  Biso   1.000  H
  N103     1.0000 0.73073  0.88610  0.46177  Biso   1.000  N
  N104     1.0000 0.69408  0.88172  0.35999  Biso   1.000  N
  C205     1.0000 0.70110  0.85506  0.47688  Biso   1.000  C
  H766     1.0000 0.68260  0.83570  0.45790  Biso   1.000  H
  H767     1.0000 0.78430  0.95960  0.47340  Biso   1.000  H
  H768     1.0000 0.83850  0.89930  0.47320  Biso   1.000  H
  C206     1.0000 0.64928  0.88964  0.38357  Biso   1.000  C
  H769     1.0000 0.64470  0.89360  0.41580  Biso   1.000  H
  H770     1.0000 0.70790  0.88830  0.25440  Biso   1.000  H
  C207     1.0000 0.68350  0.88499  0.47664  Biso   1.000  C
  H771     1.0000 0.65710  0.88430  0.45720  Biso   1.000  H
  H772     1.0000 0.81660  0.87280  0.52650  Biso   1.000  H
  H773     1.0000 0.81310  0.95330  0.52680  Biso   1.000  H
  H774     1.0000 0.69970  0.80920  0.26240  Biso   1.000  H
  C208     1.0000 0.66629  0.84291  0.36696  Biso   1.000  C
  H775     1.0000 0.67000  0.82050  0.39070  Biso   1.000  H
  H776     1.0000 0.68420  0.95170  0.27820  Biso   1.000  H
  H777     1.0000 0.72840  0.89710  0.24280  Biso   1.000  H
  O52      1.0000 0.74000  0.97700  0.21800  Biso   1.000  O
  H778     1.0000 0.75620  0.95340  0.22060  Biso   1.000  H
  H779     1.0000 0.73660  0.97880  0.28250  Biso   1.000  H
  H780     1.0000 0.76360  0.01350  0.26670  Biso   1.000  H
  N105     1.0000 0.23073  0.61390  0.03823  Biso   1.000  N
  N106     1.0000 0.19408  0.61828  0.14001  Biso   1.000  N
  C209     1.0000 0.20110  0.64494  0.02312  Biso   1.000  C
  H781     1.0000 0.18260  0.66430  0.04210  Biso   1.000  H
  H782     1.0000 0.28430  0.54040  0.02660  Biso   1.000  H
  H783     1.0000 0.33850  0.60070  0.02680  Biso   1.000  H
  C210     1.0000 0.14928  0.61036  0.11643  Biso   1.000  C
  H784     1.0000 0.14470  0.60640  0.08420  Biso   1.000  H
  H785     1.0000 0.20790  0.61170  0.24560  Biso   1.000  H
  C211     1.0000 0.18350  0.61501  0.02336  Biso   1.000  C
  H786     1.0000 0.15710  0.61570  0.04280  Biso   1.000  H
  H787     1.0000 0.31660  0.62720  0.97350  Biso   1.000  H
  H788     1.0000 0.31310  0.54670  0.97320  Biso   1.000  H
  H789     1.0000 0.19970  0.69080  0.23760  Biso   1.000  H
  C212     1.0000 0.16629  0.65709  0.13304  Biso   1.000  C
  H790     1.0000 0.17000  0.67950  0.10930  Biso   1.000  H
  H791     1.0000 0.18420  0.54830  0.22180  Biso   1.000  H
  H792     1.0000 0.22840  0.60290  0.25720  Biso   1.000  H
  O53      1.0000 0.24000  0.52300  0.28200  Biso   1.000  O
  H793     1.0000 0.25620  0.54660  0.27940  Biso   1.000  H
  H794     1.0000 0.23660  0.52120  0.21750  Biso   1.000  H
  H795     1.0000 0.26360  0.48650  0.23330  Biso   1.000  H
  N107     1.0000 0.73073  0.11390  0.53823  Biso   1.000  N
  N108     1.0000 0.69408  0.11828  0.64001  Biso   1.000  N
  C213     1.0000 0.70110  0.14494  0.52312  Biso   1.000  C
  H796     1.0000 0.68260  0.16430  0.54210  Biso   1.000  H
  H797     1.0000 0.78430  0.04040  0.52660  Biso   1.000  H
  H798     1.0000 0.83850  0.10070  0.52680  Biso   1.000  H
  C214     1.0000 0.64928  0.11036  0.61643  Biso   1.000  C
  H799     1.0000 0.64470  0.10640  0.58420  Biso   1.000  H
  H800     1.0000 0.70790  0.11170  0.74560  Biso   1.000  H
  C215     1.0000 0.68350  0.11501  0.52336  Biso   1.000  C
  H801     1.0000 0.65710  0.11570  0.54280  Biso   1.000  H
  H802     1.0000 0.81660  0.12720  0.47350  Biso   1.000  H
  H803     1.0000 0.81310  0.04670  0.47320  Biso   1.000  H
  H804     1.0000 0.69970  0.19080  0.73760  Biso   1.000  H
  C216     1.0000 0.66629  0.15709  0.63304  Biso   1.000  C
  H805     1.0000 0.67000  0.17950  0.60930  Biso   1.000  H
  H806     1.0000 0.68420  0.04830  0.72180  Biso   1.000  H
  H807     1.0000 0.72840  0.10290  0.75720  Biso   1.000  H
  O54      1.0000 0.74000  0.02300  0.78200  Biso   1.000  O
  H808     1.0000 0.75620  0.04660  0.77940  Biso   1.000  H
  H809     1.0000 0.73660  0.02120  0.71750  Biso   1.000  H
  H810     1.0000 0.76360  0.98650  0.73330  Biso   1.000  H
  N109     1.0000 0.76927  0.38610  0.03823  Biso   1.000  N
  N110     1.0000 0.80592  0.38172  0.14001  Biso   1.000  N
  C217     1.0000 0.79890  0.35506  0.02312  Biso   1.000  C
  H811     1.0000 0.81740  0.33570  0.04210  Biso   1.000  H
  H812     1.0000 0.71570  0.45960  0.02660  Biso   1.000  H
  H813     1.0000 0.66150  0.39930  0.02680  Biso   1.000  H
  C218     1.0000 0.85072  0.38964  0.11643  Biso   1.000  C
  H814     1.0000 0.85530  0.39360  0.08420  Biso   1.000  H
  H815     1.0000 0.79210  0.38830  0.24560  Biso   1.000  H
  C219     1.0000 0.81650  0.38499  0.02336  Biso   1.000  C
  H816     1.0000 0.84290  0.38430  0.04280  Biso   1.000  H
  H817     1.0000 0.68340  0.37280  0.97350  Biso   1.000  H
  H818     1.0000 0.68690  0.45330  0.97320  Biso   1.000  H
  H819     1.0000 0.80030  0.30920  0.23760  Biso   1.000  H
  C220     1.0000 0.83371  0.34291  0.13304  Biso   1.000  C
  H820     1.0000 0.83000  0.32050  0.10930  Biso   1.000  H
  H821     1.0000 0.81580  0.45170  0.22180  Biso   1.000  H
  H822     1.0000 0.77160  0.39710  0.25720  Biso   1.000  H
  O55      1.0000 0.76000  0.47700  0.28200  Biso   1.000  O
  H823     1.0000 0.74380  0.45340  0.27940  Biso   1.000  H
  H824     1.0000 0.76340  0.47880  0.21750  Biso   1.000  H
  H825     1.0000 0.73640  0.51350  0.23330  Biso   1.000  H
  N111     1.0000 0.26927  0.88610  0.53823  Biso   1.000  N
  N112     1.0000 0.30592  0.88172  0.64001  Biso   1.000  N
  C221     1.0000 0.29890  0.85506  0.52312  Biso   1.000  C
  H826     1.0000 0.31740  0.83570  0.54210  Biso   1.000  H
  H827     1.0000 0.21570  0.95960  0.52660  Biso   1.000  H
  H828     1.0000 0.16150  0.89930  0.52680  Biso   1.000  H
  C222     1.0000 0.35072  0.88964  0.61643  Biso   1.000  C
  H829     1.0000 0.35530  0.89360  0.58420  Biso   1.000  H
  H830     1.0000 0.29210  0.88830  0.74560  Biso   1.000  H
  C223     1.0000 0.31650  0.88499  0.52336  Biso   1.000  C
  H831     1.0000 0.34290  0.88430  0.54280  Biso   1.000  H
  H832     1.0000 0.18340  0.87280  0.47350  Biso   1.000  H
  H833     1.0000 0.18690  0.95330  0.47320  Biso   1.000  H
  H834     1.0000 0.30030  0.80920  0.73760  Biso   1.000  H
  C224     1.0000 0.33371  0.84291  0.63304  Biso   1.000  C
  H835     1.0000 0.33000  0.82050  0.60930  Biso   1.000  H
  H836     1.0000 0.31580  0.95170  0.72180  Biso   1.000  H
  H837     1.0000 0.27160  0.89710  0.75720  Biso   1.000  H
  O56      1.0000 0.26000  0.97700  0.78200  Biso   1.000  O
  H838     1.0000 0.24380  0.95340  0.77940  Biso   1.000  H
  H839     1.0000 0.26340  0.97880  0.71750  Biso   1.000  H
  H840     1.0000 0.23640  0.01350  0.73330  Biso   1.000  H
  N113     1.0000 0.96177  0.76927  0.61390  Biso   1.000  N
  N114     1.0000 0.85999  0.80592  0.61828  Biso   1.000  N
  C225     1.0000 0.97688  0.79890  0.64494  Biso   1.000  C
  H841     1.0000 0.95790  0.81740  0.66430  Biso   1.000  H
  H842     1.0000 0.97340  0.71570  0.54040  Biso   1.000  H
  H843     1.0000 0.97320  0.66150  0.60070  Biso   1.000  H
  C226     1.0000 0.88357  0.85072  0.61036  Biso   1.000  C
  H844     1.0000 0.91580  0.85530  0.60640  Biso   1.000  H
  H845     1.0000 0.75440  0.79210  0.61170  Biso   1.000  H
  C227     1.0000 0.97664  0.81650  0.61501  Biso   1.000  C
  H846     1.0000 0.95720  0.84290  0.61570  Biso   1.000  H
  H847     1.0000 0.02650  0.68340  0.62720  Biso   1.000  H
  H848     1.0000 0.02680  0.68690  0.54670  Biso   1.000  H
  H849     1.0000 0.76240  0.80030  0.69080  Biso   1.000  H
  C228     1.0000 0.86696  0.83371  0.65709  Biso   1.000  C
  H850     1.0000 0.89070  0.83000  0.67950  Biso   1.000  H
  H851     1.0000 0.77820  0.81580  0.54830  Biso   1.000  H
  H852     1.0000 0.74280  0.77160  0.60290  Biso   1.000  H
  O57      1.0000 0.71800  0.76000  0.52300  Biso   1.000  O
  H853     1.0000 0.72060  0.74380  0.54660  Biso   1.000  H
  H854     1.0000 0.78250  0.76340  0.52120  Biso   1.000  H
  H855     1.0000 0.76670  0.73640  0.48650  Biso   1.000  H
  N115     1.0000 0.46177  0.26927  0.11390  Biso   1.000  N
  N116     1.0000 0.35999  0.30592  0.11828  Biso   1.000  N
  C229     1.0000 0.47688  0.29890  0.14494  Biso   1.000  C
  H856     1.0000 0.45790  0.31740  0.16430  Biso   1.000  H
  H857     1.0000 0.47340  0.21570  0.04040  Biso   1.000  H
  H858     1.0000 0.47320  0.16150  0.10070  Biso   1.000  H
  C230     1.0000 0.38357  0.35072  0.11036  Biso   1.000  C
  H859     1.0000 0.41580  0.35530  0.10640  Biso   1.000  H
  H860     1.0000 0.25440  0.29210  0.11170  Biso   1.000  H
  C231     1.0000 0.47664  0.31650  0.11501  Biso   1.000  C
  H861     1.0000 0.45720  0.34290  0.11570  Biso   1.000  H
  H862     1.0000 0.52650  0.18340  0.12720  Biso   1.000  H
  H863     1.0000 0.52680  0.18690  0.04670  Biso   1.000  H
  H864     1.0000 0.26240  0.30030  0.19080  Biso   1.000  H
  C232     1.0000 0.36696  0.33371  0.15709  Biso   1.000  C
  H865     1.0000 0.39070  0.33000  0.17950  Biso   1.000  H
  H866     1.0000 0.27820  0.31580  0.04830  Biso   1.000  H
  H867     1.0000 0.24280  0.27160  0.10290  Biso   1.000  H
  O58      1.0000 0.21800  0.26000  0.02300  Biso   1.000  O
  H868     1.0000 0.22060  0.24380  0.04660  Biso   1.000  H
  H869     1.0000 0.28250  0.26340  0.02120  Biso   1.000  H
  H870     1.0000 0.26670  0.23640  0.98650  Biso   1.000  H
  N117     1.0000 0.96177  0.23073  0.38610  Biso   1.000  N
  N118     1.0000 0.85999  0.19408  0.38172  Biso   1.000  N
  C233     1.0000 0.97688  0.20110  0.35506  Biso   1.000  C
  H871     1.0000 0.95790  0.18260  0.33570  Biso   1.000  H
  H872     1.0000 0.97340  0.28430  0.45960  Biso   1.000  H
  H873     1.0000 0.97320  0.33850  0.39930  Biso   1.000  H
  C234     1.0000 0.88357  0.14928  0.38964  Biso   1.000  C
  H874     1.0000 0.91580  0.14470  0.39360  Biso   1.000  H
  H875     1.0000 0.75440  0.20790  0.38830  Biso   1.000  H
  C235     1.0000 0.97664  0.18350  0.38499  Biso   1.000  C
  H876     1.0000 0.95720  0.15710  0.38430  Biso   1.000  H
  H877     1.0000 0.02650  0.31660  0.37280  Biso   1.000  H
  H878     1.0000 0.02680  0.31310  0.45330  Biso   1.000  H
  H879     1.0000 0.76240  0.19970  0.30920  Biso   1.000  H
  C236     1.0000 0.86696  0.16629  0.34291  Biso   1.000  C
  H880     1.0000 0.89070  0.17000  0.32050  Biso   1.000  H
  H881     1.0000 0.77820  0.18420  0.45170  Biso   1.000  H
  H882     1.0000 0.74280  0.22840  0.39710  Biso   1.000  H
  O59      1.0000 0.71800  0.24000  0.47700  Biso   1.000  O
  H883     1.0000 0.72060  0.25620  0.45340  Biso   1.000  H
  H884     1.0000 0.78250  0.23660  0.47880  Biso   1.000  H
  H885     1.0000 0.76670  0.26360  0.51350  Biso   1.000  H
  N119     1.0000 0.46177  0.73073  0.88610  Biso   1.000  N
  N120     1.0000 0.35999  0.69408  0.88172  Biso   1.000  N
  C237     1.0000 0.47688  0.70110  0.85506  Biso   1.000  C
  H886     1.0000 0.45790  0.68260  0.83570  Biso   1.000  H
  H887     1.0000 0.47340  0.78430  0.95960  Biso   1.000  H
  H888     1.0000 0.47320  0.83850  0.89930  Biso   1.000  H
  C238     1.0000 0.38357  0.64928  0.88964  Biso   1.000  C
  H889     1.0000 0.41580  0.64470  0.89360  Biso   1.000  H
  H890     1.0000 0.25440  0.70790  0.88830  Biso   1.000  H
  C239     1.0000 0.47664  0.68350  0.88499  Biso   1.000  C
  H891     1.0000 0.45720  0.65710  0.88430  Biso   1.000  H
  H892     1.0000 0.52650  0.81660  0.87280  Biso   1.000  H
  H893     1.0000 0.52680  0.81310  0.95330  Biso   1.000  H
  H894     1.0000 0.26240  0.69970  0.80920  Biso   1.000  H
  C240     1.0000 0.36696  0.66629  0.84291  Biso   1.000  C
  H895     1.0000 0.39070  0.67000  0.82050  Biso   1.000  H
  H896     1.0000 0.27820  0.68420  0.95170  Biso   1.000  H
  H897     1.0000 0.24280  0.72840  0.89710  Biso   1.000  H
  O60      1.0000 0.21800  0.74000  0.97700  Biso   1.000  O
  H898     1.0000 0.22060  0.75620  0.95340  Biso   1.000  H
  H899     1.0000 0.28250  0.73660  0.97880  Biso   1.000  H
  H900     1.0000 0.26670  0.76360  0.01350  Biso   1.000  H
  N121     1.0000 0.03823  0.23073  0.61390  Biso   1.000  N
  N122     1.0000 0.14001  0.19408  0.61828  Biso   1.000  N
  C241     1.0000 0.02312  0.20110  0.64494  Biso   1.000  C
  H901     1.0000 0.04210  0.18260  0.66430  Biso   1.000  H
  H902     1.0000 0.02660  0.28430  0.54040  Biso   1.000  H
  H903     1.0000 0.02680  0.33850  0.60070  Biso   1.000  H
  C242     1.0000 0.11643  0.14928  0.61036  Biso   1.000  C
  H904     1.0000 0.08420  0.14470  0.60640  Biso   1.000  H
  H905     1.0000 0.24560  0.20790  0.61170  Biso   1.000  H
  C243     1.0000 0.02336  0.18350  0.61501  Biso   1.000  C
  H906     1.0000 0.04280  0.15710  0.61570  Biso   1.000  H
  H907     1.0000 0.97350  0.31660  0.62720  Biso   1.000  H
  H908     1.0000 0.97320  0.31310  0.54670  Biso   1.000  H
  H909     1.0000 0.23760  0.19970  0.69080  Biso   1.000  H
  C244     1.0000 0.13304  0.16629  0.65709  Biso   1.000  C
  H910     1.0000 0.10930  0.17000  0.67950  Biso   1.000  H
  H911     1.0000 0.22180  0.18420  0.54830  Biso   1.000  H
  H912     1.0000 0.25720  0.22840  0.60290  Biso   1.000  H
  O61      1.0000 0.28200  0.24000  0.52300  Biso   1.000  O
  H913     1.0000 0.27940  0.25620  0.54660  Biso   1.000  H
  H914     1.0000 0.21750  0.23660  0.52120  Biso   1.000  H
  H915     1.0000 0.23330  0.26360  0.48650  Biso   1.000  H
  N123     1.0000 0.53823  0.73073  0.11390  Biso   1.000  N
  N124     1.0000 0.64001  0.69408  0.11828  Biso   1.000  N
  C245     1.0000 0.52312  0.70110  0.14494  Biso   1.000  C
  H916     1.0000 0.54210  0.68260  0.16430  Biso   1.000  H
  H917     1.0000 0.52660  0.78430  0.04040  Biso   1.000  H
  H918     1.0000 0.52680  0.83850  0.10070  Biso   1.000  H
  C246     1.0000 0.61643  0.64928  0.11036  Biso   1.000  C
  H919     1.0000 0.58420  0.64470  0.10640  Biso   1.000  H
  H920     1.0000 0.74560  0.70790  0.11170  Biso   1.000  H
  C247     1.0000 0.52336  0.68350  0.11501  Biso   1.000  C
  H921     1.0000 0.54280  0.65710  0.11570  Biso   1.000  H
  H922     1.0000 0.47350  0.81660  0.12720  Biso   1.000  H
  H923     1.0000 0.47320  0.81310  0.04670  Biso   1.000  H
  H924     1.0000 0.73760  0.69970  0.19080  Biso   1.000  H
  C248     1.0000 0.63304  0.66629  0.15709  Biso   1.000  C
  H925     1.0000 0.60930  0.67000  0.17950  Biso   1.000  H
  H926     1.0000 0.72180  0.68420  0.04830  Biso   1.000  H
  H927     1.0000 0.75720  0.72840  0.10290  Biso   1.000  H
  O62      1.0000 0.78200  0.74000  0.02300  Biso   1.000  O
  H928     1.0000 0.77940  0.75620  0.04660  Biso   1.000  H
  H929     1.0000 0.71750  0.73660  0.02120  Biso   1.000  H
  H930     1.0000 0.73330  0.76360  0.98650  Biso   1.000  H
  N125     1.0000 0.03823  0.76927  0.38610  Biso   1.000  N
  N126     1.0000 0.14001  0.80592  0.38172  Biso   1.000  N
  C249     1.0000 0.02312  0.79890  0.35506  Biso   1.000  C
  H931     1.0000 0.04210  0.81740  0.33570  Biso   1.000  H
  H932     1.0000 0.02660  0.71570  0.45960  Biso   1.000  H
  H933     1.0000 0.02680  0.66150  0.39930  Biso   1.000  H
  C250     1.0000 0.11643  0.85072  0.38964  Biso   1.000  C
  H934     1.0000 0.08420  0.85530  0.39360  Biso   1.000  H
  H935     1.0000 0.24560  0.79210  0.38830  Biso   1.000  H
  C251     1.0000 0.02336  0.81650  0.38499  Biso   1.000  C
  H936     1.0000 0.04280  0.84290  0.38430  Biso   1.000  H
  H937     1.0000 0.97350  0.68340  0.37280  Biso   1.000  H
  H938     1.0000 0.97320  0.68690  0.45330  Biso   1.000  H
  H939     1.0000 0.23760  0.80030  0.30920  Biso   1.000  H
  C252     1.0000 0.13304  0.83371  0.34291  Biso   1.000  C
  H940     1.0000 0.10930  0.83000  0.32050  Biso   1.000  H
  H941     1.0000 0.22180  0.81580  0.45170  Biso   1.000  H
  H942     1.0000 0.25720  0.77160  0.39710  Biso   1.000  H
  O63      1.0000 0.28200  0.76000  0.47700  Biso   1.000  O
  H943     1.0000 0.27940  0.74380  0.45340  Biso   1.000  H
  H944     1.0000 0.21750  0.76340  0.47880  Biso   1.000  H
  H945     1.0000 0.23330  0.73640  0.51350  Biso   1.000  H
  N127     1.0000 0.53823  0.26927  0.88610  Biso   1.000  N
  N128     1.0000 0.64001  0.30592  0.88172  Biso   1.000  N
  C253     1.0000 0.52312  0.29890  0.85506  Biso   1.000  C
  H946     1.0000 0.54210  0.31740  0.83570  Biso   1.000  H
  H947     1.0000 0.52660  0.21570  0.95960  Biso   1.000  H
  H948     1.0000 0.52680  0.16150  0.89930  Biso   1.000  H
  C254     1.0000 0.61643  0.35072  0.88964  Biso   1.000  C
  H949     1.0000 0.58420  0.35530  0.89360  Biso   1.000  H
  H950     1.0000 0.74560  0.29210  0.88830  Biso   1.000  H
  C255     1.0000 0.52336  0.31650  0.88499  Biso   1.000  C
  H951     1.0000 0.54280  0.34290  0.88430  Biso   1.000  H
  H952     1.0000 0.47350  0.18340  0.87280  Biso   1.000  H
  H953     1.0000 0.47320  0.18690  0.95330  Biso   1.000  H
  H954     1.0000 0.73760  0.30030  0.80920  Biso   1.000  H
  C256     1.0000 0.63304  0.33371  0.84291  Biso   1.000  C
  H955     1.0000 0.60930  0.33000  0.82050  Biso   1.000  H
  H956     1.0000 0.72180  0.31580  0.95170  Biso   1.000  H
  H957     1.0000 0.75720  0.27160  0.89710  Biso   1.000  H
  O64      1.0000 0.78200  0.26000  0.97700  Biso   1.000  O
  H958     1.0000 0.77940  0.24380  0.95340  Biso   1.000  H
  H959     1.0000 0.71750  0.26340  0.97880  Biso   1.000  H
  H960     1.0000 0.73330  0.23640  0.01350  Biso   1.000  H
  N129     1.0000 0.61390  0.96177  0.76927  Biso   1.000  N
  N130     1.0000 0.61828  0.85999  0.80592  Biso   1.000  N
  C257     1.0000 0.64494  0.97688  0.79890  Biso   1.000  C
  H961     1.0000 0.66430  0.95790  0.81740  Biso   1.000  H
  H962     1.0000 0.54040  0.97340  0.71570  Biso   1.000  H
  H963     1.0000 0.60070  0.97320  0.66150  Biso   1.000  H
  C258     1.0000 0.61036  0.88357  0.85072  Biso   1.000  C
  H964     1.0000 0.60640  0.91580  0.85530  Biso   1.000  H
  H965     1.0000 0.61170  0.75440  0.79210  Biso   1.000  H
  C259     1.0000 0.61501  0.97664  0.81650  Biso   1.000  C
  H966     1.0000 0.61570  0.95720  0.84290  Biso   1.000  H
  H967     1.0000 0.62720  0.02650  0.68340  Biso   1.000  H
  H968     1.0000 0.54670  0.02680  0.68690  Biso   1.000  H
  H969     1.0000 0.69080  0.76240  0.80030  Biso   1.000  H
  C260     1.0000 0.65709  0.86696  0.83371  Biso   1.000  C
  H970     1.0000 0.67950  0.89070  0.83000  Biso   1.000  H
  H971     1.0000 0.54830  0.77820  0.81580  Biso   1.000  H
  H972     1.0000 0.60290  0.74280  0.77160  Biso   1.000  H
  O65      1.0000 0.52300  0.71800  0.76000  Biso   1.000  O
  H973     1.0000 0.54660  0.72060  0.74380  Biso   1.000  H
  H974     1.0000 0.52120  0.78250  0.76340  Biso   1.000  H
  H975     1.0000 0.48650  0.76670  0.73640  Biso   1.000  H
  N131     1.0000 0.11390  0.46177  0.26927  Biso   1.000  N
  N132     1.0000 0.11828  0.35999  0.30592  Biso   1.000  N
  C261     1.0000 0.14494  0.47688  0.29890  Biso   1.000  C
  H976     1.0000 0.16430  0.45790  0.31740  Biso   1.000  H
  H977     1.0000 0.04040  0.47340  0.21570  Biso   1.000  H
  H978     1.0000 0.10070  0.47320  0.16150  Biso   1.000  H
  C262     1.0000 0.11036  0.38357  0.35072  Biso   1.000  C
  H979     1.0000 0.10640  0.41580  0.35530  Biso   1.000  H
  H980     1.0000 0.11170  0.25440  0.29210  Biso   1.000  H
  C263     1.0000 0.11501  0.47664  0.31650  Biso   1.000  C
  H981     1.0000 0.11570  0.45720  0.34290  Biso   1.000  H
  H982     1.0000 0.12720  0.52650  0.18340  Biso   1.000  H
  H983     1.0000 0.04670  0.52680  0.18690  Biso   1.000  H
  H984     1.0000 0.19080  0.26240  0.30030  Biso   1.000  H
  C264     1.0000 0.15709  0.36696  0.33371  Biso   1.000  C
  H985     1.0000 0.17950  0.39070  0.33000  Biso   1.000  H
  H986     1.0000 0.04830  0.27820  0.31580  Biso   1.000  H
  H987     1.0000 0.10290  0.24280  0.27160  Biso   1.000  H
  O66      1.0000 0.02300  0.21800  0.26000  Biso   1.000  O
  H988     1.0000 0.04660  0.22060  0.24380  Biso   1.000  H
  H989     1.0000 0.02120  0.28250  0.26340  Biso   1.000  H
  H990     1.0000 0.98650  0.26670  0.23640  Biso   1.000  H
  N133     1.0000 0.38610  0.96177  0.23073  Biso   1.000  N
  N134     1.0000 0.38172  0.85999  0.19408  Biso   1.000  N
  C265     1.0000 0.35506  0.97688  0.20110  Biso   1.000  C
  H991     1.0000 0.33570  0.95790  0.18260  Biso   1.000  H
  H992     1.0000 0.45960  0.97340  0.28430  Biso   1.000  H
  H993     1.0000 0.39930  0.97320  0.33850  Biso   1.000  H
  C266     1.0000 0.38964  0.88357  0.14928  Biso   1.000  C
  H994     1.0000 0.39360  0.91580  0.14470  Biso   1.000  H
  H995     1.0000 0.38830  0.75440  0.20790  Biso   1.000  H
  C267     1.0000 0.38499  0.97664  0.18350  Biso   1.000  C
  H996     1.0000 0.38430  0.95720  0.15710  Biso   1.000  H
  H997     1.0000 0.37280  0.02650  0.31660  Biso   1.000  H
  H998     1.0000 0.45330  0.02680  0.31310  Biso   1.000  H
  H999     1.0000 0.30920  0.76240  0.19970  Biso   1.000  H
  C268     1.0000 0.34291  0.86696  0.16629  Biso   1.000  C
  H1000    1.0000 0.32050  0.89070  0.17000  Biso   1.000  H
  H1001    1.0000 0.45170  0.77820  0.18420  Biso   1.000  H
  H1002    1.0000 0.39710  0.74280  0.22840  Biso   1.000  H
  O67      1.0000 0.47700  0.71800  0.24000  Biso   1.000  O
  H1003    1.0000 0.45340  0.72060  0.25620  Biso   1.000  H
  H1004    1.0000 0.47880  0.78250  0.23660  Biso   1.000  H
  H1005    1.0000 0.51350  0.76670  0.26360  Biso   1.000  H
  N135     1.0000 0.88610  0.46177  0.73073  Biso   1.000  N
  N136     1.0000 0.88172  0.35999  0.69408  Biso   1.000  N
  C269     1.0000 0.85506  0.47688  0.70110  Biso   1.000  C
  H1006    1.0000 0.83570  0.45790  0.68260  Biso   1.000  H
  H1007    1.0000 0.95960  0.47340  0.78430  Biso   1.000  H
  H1008    1.0000 0.89930  0.47320  0.83850  Biso   1.000  H
  C270     1.0000 0.88964  0.38357  0.64928  Biso   1.000  C
  H1009    1.0000 0.89360  0.41580  0.64470  Biso   1.000  H
  H1010    1.0000 0.88830  0.25440  0.70790  Biso   1.000  H
  C271     1.0000 0.88499  0.47664  0.68350  Biso   1.000  C
  H1011    1.0000 0.88430  0.45720  0.65710  Biso   1.000  H
  H1012    1.0000 0.87280  0.52650  0.81660  Biso   1.000  H
  H1013    1.0000 0.95330  0.52680  0.81310  Biso   1.000  H
  H1014    1.0000 0.80920  0.26240  0.69970  Biso   1.000  H
  C272     1.0000 0.84291  0.36696  0.66629  Biso   1.000  C
  H1015    1.0000 0.82050  0.39070  0.67000  Biso   1.000  H
  H1016    1.0000 0.95170  0.27820  0.68420  Biso   1.000  H
  H1017    1.0000 0.89710  0.24280  0.72840  Biso   1.000  H
  O68      1.0000 0.97700  0.21800  0.74000  Biso   1.000  O
  H1018    1.0000 0.95340  0.22060  0.75620  Biso   1.000  H
  H1019    1.0000 0.97880  0.28250  0.73660  Biso   1.000  H
  H1020    1.0000 0.01350  0.26670  0.76360  Biso   1.000  H
  N137     1.0000 0.61390  0.03823  0.23073  Biso   1.000  N
  N138     1.0000 0.61828  0.14001  0.19408  Biso   1.000  N
  C273     1.0000 0.64494  0.02312  0.20110  Biso   1.000  C
  H1021    1.0000 0.66430  0.04210  0.18260  Biso   1.000  H
  H1022    1.0000 0.54040  0.02660  0.28430  Biso   1.000  H
  H1023    1.0000 0.60070  0.02680  0.33850  Biso   1.000  H
  C274     1.0000 0.61036  0.11643  0.14928  Biso   1.000  C
  H1024    1.0000 0.60640  0.08420  0.14470  Biso   1.000  H
  H1025    1.0000 0.61170  0.24560  0.20790  Biso   1.000  H
  C275     1.0000 0.61501  0.02336  0.18350  Biso   1.000  C
  H1026    1.0000 0.61570  0.04280  0.15710  Biso   1.000  H
  H1027    1.0000 0.62720  0.97350  0.31660  Biso   1.000  H
  H1028    1.0000 0.54670  0.97320  0.31310  Biso   1.000  H
  H1029    1.0000 0.69080  0.23760  0.19970  Biso   1.000  H
  C276     1.0000 0.65709  0.13304  0.16629  Biso   1.000  C
  H1030    1.0000 0.67950  0.10930  0.17000  Biso   1.000  H
  H1031    1.0000 0.54830  0.22180  0.18420  Biso   1.000  H
  H1032    1.0000 0.60290  0.25720  0.22840  Biso   1.000  H
  O69      1.0000 0.52300  0.28200  0.24000  Biso   1.000  O
  H1033    1.0000 0.54660  0.27940  0.25620  Biso   1.000  H
  H1034    1.0000 0.52120  0.21750  0.23660  Biso   1.000  H
  H1035    1.0000 0.48650  0.23330  0.26360  Biso   1.000  H
  N139     1.0000 0.11390  0.53823  0.73073  Biso   1.000  N
  N140     1.0000 0.11828  0.64001  0.69408  Biso   1.000  N
  C277     1.0000 0.14494  0.52312  0.70110  Biso   1.000  C
  H1036    1.0000 0.16430  0.54210  0.68260  Biso   1.000  H
  H1037    1.0000 0.04040  0.52660  0.78430  Biso   1.000  H
  H1038    1.0000 0.10070  0.52680  0.83850  Biso   1.000  H
  C278     1.0000 0.11036  0.61643  0.64928  Biso   1.000  C
  H1039    1.0000 0.10640  0.58420  0.64470  Biso   1.000  H
  H1040    1.0000 0.11170  0.74560  0.70790  Biso   1.000  H
  C279     1.0000 0.11501  0.52336  0.68350  Biso   1.000  C
  H1041    1.0000 0.11570  0.54280  0.65710  Biso   1.000  H
  H1042    1.0000 0.12720  0.47350  0.81660  Biso   1.000  H
  H1043    1.0000 0.04670  0.47320  0.81310  Biso   1.000  H
  H1044    1.0000 0.19080  0.73760  0.69970  Biso   1.000  H
  C280     1.0000 0.15709  0.63304  0.66629  Biso   1.000  C
  H1045    1.0000 0.17950  0.60930  0.67000  Biso   1.000  H
  H1046    1.0000 0.04830  0.72180  0.68420  Biso   1.000  H
  H1047    1.0000 0.10290  0.75720  0.72840  Biso   1.000  H
  O70      1.0000 0.02300  0.78200  0.74000  Biso   1.000  O
  H1048    1.0000 0.04660  0.77940  0.75620  Biso   1.000  H
  H1049    1.0000 0.02120  0.71750  0.73660  Biso   1.000  H
  H1050    1.0000 0.98650  0.73330  0.76360  Biso   1.000  H
  N141     1.0000 0.38610  0.03823  0.76927  Biso   1.000  N
  N142     1.0000 0.38172  0.14001  0.80592  Biso   1.000  N
  C281     1.0000 0.35506  0.02312  0.79890  Biso   1.000  C
  H1051    1.0000 0.33570  0.04210  0.81740  Biso   1.000  H
  H1052    1.0000 0.45960  0.02660  0.71570  Biso   1.000  H
  H1053    1.0000 0.39930  0.02680  0.66150  Biso   1.000  H
  C282     1.0000 0.38964  0.11643  0.85072  Biso   1.000  C
  H1054    1.0000 0.39360  0.08420  0.85530  Biso   1.000  H
  H1055    1.0000 0.38830  0.24560  0.79210  Biso   1.000  H
  C283     1.0000 0.38499  0.02336  0.81650  Biso   1.000  C
  H1056    1.0000 0.38430  0.04280  0.84290  Biso   1.000  H
  H1057    1.0000 0.37280  0.97350  0.68340  Biso   1.000  H
  H1058    1.0000 0.45330  0.97320  0.68690  Biso   1.000  H
  H1059    1.0000 0.30920  0.23760  0.80030  Biso   1.000  H
  C284     1.0000 0.34291  0.13304  0.83371  Biso   1.000  C
  H1060    1.0000 0.32050  0.10930  0.83000  Biso   1.000  H
  H1061    1.0000 0.45170  0.22180  0.81580  Biso   1.000  H
  H1062    1.0000 0.39710  0.25720  0.77160  Biso   1.000  H
  O71      1.0000 0.47700  0.28200  0.76000  Biso   1.000  O
  H1063    1.0000 0.45340  0.27940  0.74380  Biso   1.000  H
  H1064    1.0000 0.47880  0.21750  0.76340  Biso   1.000  H
  H1065    1.0000 0.51350  0.23330  0.73640  Biso   1.000  H
  N143     1.0000 0.88610  0.53823  0.26927  Biso   1.000  N
  N144     1.0000 0.88172  0.64001  0.30592  Biso   1.000  N
  C285     1.0000 0.85506  0.52312  0.29890  Biso   1.000  C
  H1066    1.0000 0.83570  0.54210  0.31740  Biso   1.000  H
  H1067    1.0000 0.95960  0.52660  0.21570  Biso   1.000  H
  H1068    1.0000 0.89930  0.52680  0.16150  Biso   1.000  H
  C286     1.0000 0.88964  0.61643  0.35072  Biso   1.000  C
  H1069    1.0000 0.89360  0.58420  0.35530  Biso   1.000  H
  H1070    1.0000 0.88830  0.74560  0.29210  Biso   1.000  H
  C287     1.0000 0.88499  0.52336  0.31650  Biso   1.000  C
  H1071    1.0000 0.88430  0.54280  0.34290  Biso   1.000  H
  H1072    1.0000 0.87280  0.47350  0.18340  Biso   1.000  H
  H1073    1.0000 0.95330  0.47320  0.18690  Biso   1.000  H
  H1074    1.0000 0.80920  0.73760  0.30030  Biso   1.000  H
  C288     1.0000 0.84291  0.63304  0.33371  Biso   1.000  C
  H1075    1.0000 0.82050  0.60930  0.33000  Biso   1.000  H
  H1076    1.0000 0.95170  0.72180  0.31580  Biso   1.000  H
  H1077    1.0000 0.89710  0.75720  0.27160  Biso   1.000  H
  O72      1.0000 0.97700  0.78200  0.26000  Biso   1.000  O
  H1078    1.0000 0.95340  0.77940  0.24380  Biso   1.000  H
  H1079    1.0000 0.97880  0.71750  0.26340  Biso   1.000  H
  H1080    1.0000 0.01350  0.73330  0.23640  Biso   1.000  H
  N145     1.0000 0.61390  0.76927  0.03823  Biso   1.000  N
  N146     1.0000 0.61828  0.80592  0.14001  Biso   1.000  N
  C289     1.0000 0.64494  0.79890  0.02312  Biso   1.000  C
  H1081    1.0000 0.66430  0.81740  0.04210  Biso   1.000  H
  H1082    1.0000 0.54040  0.71570  0.02660  Biso   1.000  H
  H1083    1.0000 0.60070  0.66150  0.02680  Biso   1.000  H
  C290     1.0000 0.61036  0.85072  0.11643  Biso   1.000  C
  H1084    1.0000 0.60640  0.85530  0.08420  Biso   1.000  H
  H1085    1.0000 0.61170  0.79210  0.24560  Biso   1.000  H
  C291     1.0000 0.61501  0.81650  0.02336  Biso   1.000  C
  H1086    1.0000 0.61570  0.84290  0.04280  Biso   1.000  H
  H1087    1.0000 0.62720  0.68340  0.97350  Biso   1.000  H
  H1088    1.0000 0.54670  0.68690  0.97320  Biso   1.000  H
  H1089    1.0000 0.69080  0.80030  0.23760  Biso   1.000  H
  C292     1.0000 0.65709  0.83371  0.13304  Biso   1.000  C
  H1090    1.0000 0.67950  0.83000  0.10930  Biso   1.000  H
  H1091    1.0000 0.54830  0.81580  0.22180  Biso   1.000  H
  H1092    1.0000 0.60290  0.77160  0.25720  Biso   1.000  H
  O73      1.0000 0.52300  0.76000  0.28200  Biso   1.000  O
  H1093    1.0000 0.54660  0.74380  0.27940  Biso   1.000  H
  H1094    1.0000 0.52120  0.76340  0.21750  Biso   1.000  H
  H1095    1.0000 0.48650  0.73640  0.23330  Biso   1.000  H
  N147     1.0000 0.11390  0.26927  0.53823  Biso   1.000  N
  N148     1.0000 0.11828  0.30592  0.64001  Biso   1.000  N
  C293     1.0000 0.14494  0.29890  0.52312  Biso   1.000  C
  H1096    1.0000 0.16430  0.31740  0.54210  Biso   1.000  H
  H1097    1.0000 0.04040  0.21570  0.52660  Biso   1.000  H
  H1098    1.0000 0.10070  0.16150  0.52680  Biso   1.000  H
  C294     1.0000 0.11036  0.35072  0.61643  Biso   1.000  C
  H1099    1.0000 0.10640  0.35530  0.58420  Biso   1.000  H
  H1100    1.0000 0.11170  0.29210  0.74560  Biso   1.000  H
  C295     1.0000 0.11501  0.31650  0.52336  Biso   1.000  C
  H1101    1.0000 0.11570  0.34290  0.54280  Biso   1.000  H
  H1102    1.0000 0.12720  0.18340  0.47350  Biso   1.000  H
  H1103    1.0000 0.04670  0.18690  0.47320  Biso   1.000  H
  H1104    1.0000 0.19080  0.30030  0.73760  Biso   1.000  H
  C296     1.0000 0.15709  0.33371  0.63304  Biso   1.000  C
  H1105    1.0000 0.17950  0.33000  0.60930  Biso   1.000  H
  H1106    1.0000 0.04830  0.31580  0.72180  Biso   1.000  H
  H1107    1.0000 0.10290  0.27160  0.75720  Biso   1.000  H
  O74      1.0000 0.02300  0.26000  0.78200  Biso   1.000  O
  H1108    1.0000 0.04660  0.24380  0.77940  Biso   1.000  H
  H1109    1.0000 0.02120  0.26340  0.71750  Biso   1.000  H
  H1110    1.0000 0.98650  0.23640  0.73330  Biso   1.000  H
  N149     1.0000 0.38610  0.23073  0.03823  Biso   1.000  N
  N150     1.0000 0.38172  0.19408  0.14001  Biso   1.000  N
  C297     1.0000 0.35506  0.20110  0.02312  Biso   1.000  C
  H1111    1.0000 0.33570  0.18260  0.04210  Biso   1.000  H
  H1112    1.0000 0.45960  0.28430  0.02660  Biso   1.000  H
  H1113    1.0000 0.39930  0.33850  0.02680  Biso   1.000  H
  C298     1.0000 0.38964  0.14928  0.11643  Biso   1.000  C
  H1114    1.0000 0.39360  0.14470  0.08420  Biso   1.000  H
  H1115    1.0000 0.38830  0.20790  0.24560  Biso   1.000  H
  C299     1.0000 0.38499  0.18350  0.02336  Biso   1.000  C
  H1116    1.0000 0.38430  0.15710  0.04280  Biso   1.000  H
  H1117    1.0000 0.37280  0.31660  0.97350  Biso   1.000  H
  H1118    1.0000 0.45330  0.31310  0.97320  Biso   1.000  H
  H1119    1.0000 0.30920  0.19970  0.23760  Biso   1.000  H
  C300     1.0000 0.34291  0.16629  0.13304  Biso   1.000  C
  H1120    1.0000 0.32050  0.17000  0.10930  Biso   1.000  H
  H1121    1.0000 0.45170  0.18420  0.22180  Biso   1.000  H
  H1122    1.0000 0.39710  0.22840  0.25720  Biso   1.000  H
  O75      1.0000 0.47700  0.24000  0.28200  Biso   1.000  O
  H1123    1.0000 0.45340  0.25620  0.27940  Biso   1.000  H
  H1124    1.0000 0.47880  0.23660  0.21750  Biso   1.000  H
  H1125    1.0000 0.51350  0.26360  0.23330  Biso   1.000  H
  N151     1.0000 0.88610  0.73073  0.53823  Biso   1.000  N
  N152     1.0000 0.88172  0.69408  0.64001  Biso   1.000  N
  C301     1.0000 0.85506  0.70110  0.52312  Biso   1.000  C
  H1126    1.0000 0.83570  0.68260  0.54210  Biso   1.000  H
  H1127    1.0000 0.95960  0.78430  0.52660  Biso   1.000  H
  H1128    1.0000 0.89930  0.83850  0.52680  Biso   1.000  H
  C302     1.0000 0.88964  0.64928  0.61643  Biso   1.000  C
  H1129    1.0000 0.89360  0.64470  0.58420  Biso   1.000  H
  H1130    1.0000 0.88830  0.70790  0.74560  Biso   1.000  H
  C303     1.0000 0.88499  0.68350  0.52336  Biso   1.000  C
  H1131    1.0000 0.88430  0.65710  0.54280  Biso   1.000  H
  H1132    1.0000 0.87280  0.81660  0.47350  Biso   1.000  H
  H1133    1.0000 0.95330  0.81310  0.47320  Biso   1.000  H
  H1134    1.0000 0.80920  0.69970  0.73760  Biso   1.000  H
  C304     1.0000 0.84291  0.66629  0.63304  Biso   1.000  C
  H1135    1.0000 0.82050  0.67000  0.60930  Biso   1.000  H
  H1136    1.0000 0.95170  0.68420  0.72180  Biso   1.000  H
  H1137    1.0000 0.89710  0.72840  0.75720  Biso   1.000  H
  O76      1.0000 0.97700  0.74000  0.78200  Biso   1.000  O
  H1138    1.0000 0.95340  0.75620  0.77940  Biso   1.000  H
  H1139    1.0000 0.97880  0.73660  0.71750  Biso   1.000  H
  H1140    1.0000 0.01350  0.76360  0.73330  Biso   1.000  H
  N153     1.0000 0.61390  0.23073  0.96177  Biso   1.000  N
  N154     1.0000 0.61828  0.19408  0.85999  Biso   1.000  N
  C305     1.0000 0.64494  0.20110  0.97688  Biso   1.000  C
  H1141    1.0000 0.66430  0.18260  0.95790  Biso   1.000  H
  H1142    1.0000 0.54040  0.28430  0.97340  Biso   1.000  H
  H1143    1.0000 0.60070  0.33850  0.97320  Biso   1.000  H
  C306     1.0000 0.61036  0.14928  0.88357  Biso   1.000  C
  H1144    1.0000 0.60640  0.14470  0.91580  Biso   1.000  H
  H1145    1.0000 0.61170  0.20790  0.75440  Biso   1.000  H
  C307     1.0000 0.61501  0.18350  0.97664  Biso   1.000  C
  H1146    1.0000 0.61570  0.15710  0.95720  Biso   1.000  H
  H1147    1.0000 0.62720  0.31660  0.02650  Biso   1.000  H
  H1148    1.0000 0.54670  0.31310  0.02680  Biso   1.000  H
  H1149    1.0000 0.69080  0.19970  0.76240  Biso   1.000  H
  C308     1.0000 0.65709  0.16629  0.86696  Biso   1.000  C
  H1150    1.0000 0.67950  0.17000  0.89070  Biso   1.000  H
  H1151    1.0000 0.54830  0.18420  0.77820  Biso   1.000  H
  H1152    1.0000 0.60290  0.22840  0.74280  Biso   1.000  H
  O77      1.0000 0.52300  0.24000  0.71800  Biso   1.000  O
  H1153    1.0000 0.54660  0.25620  0.72060  Biso   1.000  H
  H1154    1.0000 0.52120  0.23660  0.78250  Biso   1.000  H
  H1155    1.0000 0.48650  0.26360  0.76670  Biso   1.000  H
  N155     1.0000 0.11390  0.73073  0.46177  Biso   1.000  N
  N156     1.0000 0.11828  0.69408  0.35999  Biso   1.000  N
  C309     1.0000 0.14494  0.70110  0.47688  Biso   1.000  C
  H1156    1.0000 0.16430  0.68260  0.45790  Biso   1.000  H
  H1157    1.0000 0.04040  0.78430  0.47340  Biso   1.000  H
  H1158    1.0000 0.10070  0.83850  0.47320  Biso   1.000  H
  C310     1.0000 0.11036  0.64928  0.38357  Biso   1.000  C
  H1159    1.0000 0.10640  0.64470  0.41580  Biso   1.000  H
  H1160    1.0000 0.11170  0.70790  0.25440  Biso   1.000  H
  C311     1.0000 0.11501  0.68350  0.47664  Biso   1.000  C
  H1161    1.0000 0.11570  0.65710  0.45720  Biso   1.000  H
  H1162    1.0000 0.12720  0.81660  0.52650  Biso   1.000  H
  H1163    1.0000 0.04670  0.81310  0.52680  Biso   1.000  H
  H1164    1.0000 0.19080  0.69970  0.26240  Biso   1.000  H
  C312     1.0000 0.15709  0.66629  0.36696  Biso   1.000  C
  H1165    1.0000 0.17950  0.67000  0.39070  Biso   1.000  H
  H1166    1.0000 0.04830  0.68420  0.27820  Biso   1.000  H
  H1167    1.0000 0.10290  0.72840  0.24280  Biso   1.000  H
  O78      1.0000 0.02300  0.74000  0.21800  Biso   1.000  O
  H1168    1.0000 0.04660  0.75620  0.22060  Biso   1.000  H
  H1169    1.0000 0.02120  0.73660  0.28250  Biso   1.000  H
  H1170    1.0000 0.98650  0.76360  0.26670  Biso   1.000  H
  N157     1.0000 0.38610  0.76927  0.96177  Biso   1.000  N
  N158     1.0000 0.38172  0.80592  0.85999  Biso   1.000  N
  C313     1.0000 0.35506  0.79890  0.97688  Biso   1.000  C
  H1171    1.0000 0.33570  0.81740  0.95790  Biso   1.000  H
  H1172    1.0000 0.45960  0.71570  0.97340  Biso   1.000  H
  H1173    1.0000 0.39930  0.66150  0.97320  Biso   1.000  H
  C314     1.0000 0.38964  0.85072  0.88357  Biso   1.000  C
  H1174    1.0000 0.39360  0.85530  0.91580  Biso   1.000  H
  H1175    1.0000 0.38830  0.79210  0.75440  Biso   1.000  H
  C315     1.0000 0.38499  0.81650  0.97664  Biso   1.000  C
  H1176    1.0000 0.38430  0.84290  0.95720  Biso   1.000  H
  H1177    1.0000 0.37280  0.68340  0.02650  Biso   1.000  H
  H1178    1.0000 0.45330  0.68690  0.02680  Biso   1.000  H
  H1179    1.0000 0.30920  0.80030  0.76240  Biso   1.000  H
  C316     1.0000 0.34291  0.83371  0.86696  Biso   1.000  C
  H1180    1.0000 0.32050  0.83000  0.89070  Biso   1.000  H
  H1181    1.0000 0.45170  0.81580  0.77820  Biso   1.000  H
  H1182    1.0000 0.39710  0.77160  0.74280  Biso   1.000  H
  O79      1.0000 0.47700  0.76000  0.71800  Biso   1.000  O
  H1183    1.0000 0.45340  0.74380  0.72060  Biso   1.000  H
  H1184    1.0000 0.47880  0.76340  0.78250  Biso   1.000  H
  H1185    1.0000 0.51350  0.73640  0.76670  Biso   1.000  H
  N159     1.0000 0.88610  0.26927  0.46177  Biso   1.000  N
  N160     1.0000 0.88172  0.30592  0.35999  Biso   1.000  N
  C317     1.0000 0.85506  0.29890  0.47688  Biso   1.000  C
  H1186    1.0000 0.83570  0.31740  0.45790  Biso   1.000  H
  H1187    1.0000 0.95960  0.21570  0.47340  Biso   1.000  H
  H1188    1.0000 0.89930  0.16150  0.47320  Biso   1.000  H
  C318     1.0000 0.88964  0.35072  0.38357  Biso   1.000  C
  H1189    1.0000 0.89360  0.35530  0.41580  Biso   1.000  H
  H1190    1.0000 0.88830  0.29210  0.25440  Biso   1.000  H
  C319     1.0000 0.88499  0.31650  0.47664  Biso   1.000  C
  H1191    1.0000 0.88430  0.34290  0.45720  Biso   1.000  H
  H1192    1.0000 0.87280  0.18340  0.52650  Biso   1.000  H
  H1193    1.0000 0.95330  0.18690  0.52680  Biso   1.000  H
  H1194    1.0000 0.80920  0.30030  0.26240  Biso   1.000  H
  C320     1.0000 0.84291  0.33371  0.36696  Biso   1.000  C
  H1195    1.0000 0.82050  0.33000  0.39070  Biso   1.000  H
  H1196    1.0000 0.95170  0.31580  0.27820  Biso   1.000  H
  H1197    1.0000 0.89710  0.27160  0.24280  Biso   1.000  H
  O80      1.0000 0.97700  0.26000  0.21800  Biso   1.000  O
  H1198    1.0000 0.95340  0.24380  0.22060  Biso   1.000  H
  H1199    1.0000 0.97880  0.26340  0.28250  Biso   1.000  H
  H1200    1.0000 0.01350  0.23640  0.26670  Biso   1.000  H
  N161     1.0000 0.76927  0.96177  0.38610  Biso   1.000  N
  N162     1.0000 0.80592  0.85999  0.38172  Biso   1.000  N
  C321     1.0000 0.79890  0.97688  0.35506  Biso   1.000  C
  H1201    1.0000 0.81740  0.95790  0.33570  Biso   1.000  H
  H1202    1.0000 0.71570  0.97340  0.45960  Biso   1.000  H
  H1203    1.0000 0.66150  0.97320  0.39930  Biso   1.000  H
  C322     1.0000 0.85072  0.88357  0.38964  Biso   1.000  C
  H1204    1.0000 0.85530  0.91580  0.39360  Biso   1.000  H
  H1205    1.0000 0.79210  0.75440  0.38830  Biso   1.000  H
  C323     1.0000 0.81650  0.97664  0.38499  Biso   1.000  C
  H1206    1.0000 0.84290  0.95720  0.38430  Biso   1.000  H
  H1207    1.0000 0.68340  0.02650  0.37280  Biso   1.000  H
  H1208    1.0000 0.68690  0.02680  0.45330  Biso   1.000  H
  H1209    1.0000 0.80030  0.76240  0.30920  Biso   1.000  H
  C324     1.0000 0.83371  0.86696  0.34291  Biso   1.000  C
  H1210    1.0000 0.83000  0.89070  0.32050  Biso   1.000  H
  H1211    1.0000 0.81580  0.77820  0.45170  Biso   1.000  H
  H1212    1.0000 0.77160  0.74280  0.39710  Biso   1.000  H
  O81      1.0000 0.76000  0.71800  0.47700  Biso   1.000  O
  H1213    1.0000 0.74380  0.72060  0.45340  Biso   1.000  H
  H1214    1.0000 0.76340  0.78250  0.47880  Biso   1.000  H
  H1215    1.0000 0.73640  0.76670  0.51350  Biso   1.000  H
  N163     1.0000 0.26927  0.46177  0.88610  Biso   1.000  N
  N164     1.0000 0.30592  0.35999  0.88172  Biso   1.000  N
  C325     1.0000 0.29890  0.47688  0.85506  Biso   1.000  C
  H1216    1.0000 0.31740  0.45790  0.83570  Biso   1.000  H
  H1217    1.0000 0.21570  0.47340  0.95960  Biso   1.000  H
  H1218    1.0000 0.16150  0.47320  0.89930  Biso   1.000  H
  C326     1.0000 0.35072  0.38357  0.88964  Biso   1.000  C
  H1219    1.0000 0.35530  0.41580  0.89360  Biso   1.000  H
  H1220    1.0000 0.29210  0.25440  0.88830  Biso   1.000  H
  C327     1.0000 0.31650  0.47664  0.88499  Biso   1.000  C
  H1221    1.0000 0.34290  0.45720  0.88430  Biso   1.000  H
  H1222    1.0000 0.18340  0.52650  0.87280  Biso   1.000  H
  H1223    1.0000 0.18690  0.52680  0.95330  Biso   1.000  H
  H1224    1.0000 0.30030  0.26240  0.80920  Biso   1.000  H
  C328     1.0000 0.33371  0.36696  0.84291  Biso   1.000  C
  H1225    1.0000 0.33000  0.39070  0.82050  Biso   1.000  H
  H1226    1.0000 0.31580  0.27820  0.95170  Biso   1.000  H
  H1227    1.0000 0.27160  0.24280  0.89710  Biso   1.000  H
  O82      1.0000 0.26000  0.21800  0.97700  Biso   1.000  O
  H1228    1.0000 0.24380  0.22060  0.95340  Biso   1.000  H
  H1229    1.0000 0.26340  0.28250  0.97880  Biso   1.000  H
  H1230    1.0000 0.23640  0.26670  0.01350  Biso   1.000  H
  N165     1.0000 0.23073  0.96177  0.61390  Biso   1.000  N
  N166     1.0000 0.19408  0.85999  0.61828  Biso   1.000  N
  C329     1.0000 0.20110  0.97688  0.64494  Biso   1.000  C
  H1231    1.0000 0.18260  0.95790  0.66430  Biso   1.000  H
  H1232    1.0000 0.28430  0.97340  0.54040  Biso   1.000  H
  H1233    1.0000 0.33850  0.97320  0.60070  Biso   1.000  H
  C330     1.0000 0.14928  0.88357  0.61036  Biso   1.000  C
  H1234    1.0000 0.14470  0.91580  0.60640  Biso   1.000  H
  H1235    1.0000 0.20790  0.75440  0.61170  Biso   1.000  H
  C331     1.0000 0.18350  0.97664  0.61501  Biso   1.000  C
  H1236    1.0000 0.15710  0.95720  0.61570  Biso   1.000  H
  H1237    1.0000 0.31660  0.02650  0.62720  Biso   1.000  H
  H1238    1.0000 0.31310  0.02680  0.54670  Biso   1.000  H
  H1239    1.0000 0.19970  0.76240  0.69080  Biso   1.000  H
  C332     1.0000 0.16629  0.86696  0.65709  Biso   1.000  C
  H1240    1.0000 0.17000  0.89070  0.67950  Biso   1.000  H
  H1241    1.0000 0.18420  0.77820  0.54830  Biso   1.000  H
  H1242    1.0000 0.22840  0.74280  0.60290  Biso   1.000  H
  O83      1.0000 0.24000  0.71800  0.52300  Biso   1.000  O
  H1243    1.0000 0.25620  0.72060  0.54660  Biso   1.000  H
  H1244    1.0000 0.23660  0.78250  0.52120  Biso   1.000  H
  H1245    1.0000 0.26360  0.76670  0.48650  Biso   1.000  H
  N167     1.0000 0.73073  0.46177  0.11390  Biso   1.000  N
  N168     1.0000 0.69408  0.35999  0.11828  Biso   1.000  N
  C333     1.0000 0.70110  0.47688  0.14494  Biso   1.000  C
  H1246    1.0000 0.68260  0.45790  0.16430  Biso   1.000  H
  H1247    1.0000 0.78430  0.47340  0.04040  Biso   1.000  H
  H1248    1.0000 0.83850  0.47320  0.10070  Biso   1.000  H
  C334     1.0000 0.64928  0.38357  0.11036  Biso   1.000  C
  H1249    1.0000 0.64470  0.41580  0.10640  Biso   1.000  H
  H1250    1.0000 0.70790  0.25440  0.11170  Biso   1.000  H
  C335     1.0000 0.68350  0.47664  0.11501  Biso   1.000  C
  H1251    1.0000 0.65710  0.45720  0.11570  Biso   1.000  H
  H1252    1.0000 0.81660  0.52650  0.12720  Biso   1.000  H
  H1253    1.0000 0.81310  0.52680  0.04670  Biso   1.000  H
  H1254    1.0000 0.69970  0.26240  0.19080  Biso   1.000  H
  C336     1.0000 0.66629  0.36696  0.15709  Biso   1.000  C
  H1255    1.0000 0.67000  0.39070  0.17950  Biso   1.000  H
  H1256    1.0000 0.68420  0.27820  0.04830  Biso   1.000  H
  H1257    1.0000 0.72840  0.24280  0.10290  Biso   1.000  H
  O84      1.0000 0.74000  0.21800  0.02300  Biso   1.000  O
  H1258    1.0000 0.75620  0.22060  0.04660  Biso   1.000  H
  H1259    1.0000 0.73660  0.28250  0.02120  Biso   1.000  H
  H1260    1.0000 0.76360  0.26670  0.98650  Biso   1.000  H
  N169     1.0000 0.23073  0.03823  0.38610  Biso   1.000  N
  N170     1.0000 0.19408  0.14001  0.38172  Biso   1.000  N
  C337     1.0000 0.20110  0.02312  0.35506  Biso   1.000  C
  H1261    1.0000 0.18260  0.04210  0.33570  Biso   1.000  H
  H1262    1.0000 0.28430  0.02660  0.45960  Biso   1.000  H
  H1263    1.0000 0.33850  0.02680  0.39930  Biso   1.000  H
  C338     1.0000 0.14928  0.11643  0.38964  Biso   1.000  C
  H1264    1.0000 0.14470  0.08420  0.39360  Biso   1.000  H
  H1265    1.0000 0.20790  0.24560  0.38830  Biso   1.000  H
  C339     1.0000 0.18350  0.02336  0.38499  Biso   1.000  C
  H1266    1.0000 0.15710  0.04280  0.38430  Biso   1.000  H
  H1267    1.0000 0.31660  0.97350  0.37280  Biso   1.000  H
  H1268    1.0000 0.31310  0.97320  0.45330  Biso   1.000  H
  H1269    1.0000 0.19970  0.23760  0.30920  Biso   1.000  H
  C340     1.0000 0.16629  0.13304  0.34291  Biso   1.000  C
  H1270    1.0000 0.17000  0.10930  0.32050  Biso   1.000  H
  H1271    1.0000 0.18420  0.22180  0.45170  Biso   1.000  H
  H1272    1.0000 0.22840  0.25720  0.39710  Biso   1.000  H
  O85      1.0000 0.24000  0.28200  0.47700  Biso   1.000  O
  H1273    1.0000 0.25620  0.27940  0.45340  Biso   1.000  H
  H1274    1.0000 0.23660  0.21750  0.47880  Biso   1.000  H
  H1275    1.0000 0.26360  0.23330  0.51350  Biso   1.000  H
  N171     1.0000 0.73073  0.53823  0.88610  Biso   1.000  N
  N172     1.0000 0.69408  0.64001  0.88172  Biso   1.000  N
  C341     1.0000 0.70110  0.52312  0.85506  Biso   1.000  C
  H1276    1.0000 0.68260  0.54210  0.83570  Biso   1.000  H
  H1277    1.0000 0.78430  0.52660  0.95960  Biso   1.000  H
  H1278    1.0000 0.83850  0.52680  0.89930  Biso   1.000  H
  C342     1.0000 0.64928  0.61643  0.88964  Biso   1.000  C
  H1279    1.0000 0.64470  0.58420  0.89360  Biso   1.000  H
  H1280    1.0000 0.70790  0.74560  0.88830  Biso   1.000  H
  C343     1.0000 0.68350  0.52336  0.88499  Biso   1.000  C
  H1281    1.0000 0.65710  0.54280  0.88430  Biso   1.000  H
  H1282    1.0000 0.81660  0.47350  0.87280  Biso   1.000  H
  H1283    1.0000 0.81310  0.47320  0.95330  Biso   1.000  H
  H1284    1.0000 0.69970  0.73760  0.80920  Biso   1.000  H
  C344     1.0000 0.66629  0.63304  0.84291  Biso   1.000  C
  H1285    1.0000 0.67000  0.60930  0.82050  Biso   1.000  H
  H1286    1.0000 0.68420  0.72180  0.95170  Biso   1.000  H
  H1287    1.0000 0.72840  0.75720  0.89710  Biso   1.000  H
  O86      1.0000 0.74000  0.78200  0.97700  Biso   1.000  O
  H1288    1.0000 0.75620  0.77940  0.95340  Biso   1.000  H
  H1289    1.0000 0.73660  0.71750  0.97880  Biso   1.000  H
  H1290    1.0000 0.76360  0.73330  0.01350  Biso   1.000  H
  N173     1.0000 0.76927  0.03823  0.61390  Biso   1.000  N
  N174     1.0000 0.80592  0.14001  0.61828  Biso   1.000  N
  C345     1.0000 0.79890  0.02312  0.64494  Biso   1.000  C
  H1291    1.0000 0.81740  0.04210  0.66430  Biso   1.000  H
  H1292    1.0000 0.71570  0.02660  0.54040  Biso   1.000  H
  H1293    1.0000 0.66150  0.02680  0.60070  Biso   1.000  H
  C346     1.0000 0.85072  0.11643  0.61036  Biso   1.000  C
  H1294    1.0000 0.85530  0.08420  0.60640  Biso   1.000  H
  H1295    1.0000 0.79210  0.24560  0.61170  Biso   1.000  H
  C347     1.0000 0.81650  0.02336  0.61501  Biso   1.000  C
  H1296    1.0000 0.84290  0.04280  0.61570  Biso   1.000  H
  H1297    1.0000 0.68340  0.97350  0.62720  Biso   1.000  H
  H1298    1.0000 0.68690  0.97320  0.54670  Biso   1.000  H
  H1299    1.0000 0.80030  0.23760  0.69080  Biso   1.000  H
  C348     1.0000 0.83371  0.13304  0.65709  Biso   1.000  C
  H1300    1.0000 0.83000  0.10930  0.67950  Biso   1.000  H
  H1301    1.0000 0.81580  0.22180  0.54830  Biso   1.000  H
  H1302    1.0000 0.77160  0.25720  0.60290  Biso   1.000  H
  O87      1.0000 0.76000  0.28200  0.52300  Biso   1.000  O
  H1303    1.0000 0.74380  0.27940  0.54660  Biso   1.000  H
  H1304    1.0000 0.76340  0.21750  0.52120  Biso   1.000  H
  H1305    1.0000 0.73640  0.23330  0.48650  Biso   1.000  H
  N175     1.0000 0.26927  0.53823  0.11390  Biso   1.000  N
  N176     1.0000 0.30592  0.64001  0.11828  Biso   1.000  N
  C349     1.0000 0.29890  0.52312  0.14494  Biso   1.000  C
  H1306    1.0000 0.31740  0.54210  0.16430  Biso   1.000  H
  H1307    1.0000 0.21570  0.52660  0.04040  Biso   1.000  H
  H1308    1.0000 0.16150  0.52680  0.10070  Biso   1.000  H
  C350     1.0000 0.35072  0.61643  0.11036  Biso   1.000  C
  H1309    1.0000 0.35530  0.58420  0.10640  Biso   1.000  H
  H1310    1.0000 0.29210  0.74560  0.11170  Biso   1.000  H
  C351     1.0000 0.31650  0.52336  0.11501  Biso   1.000  C
  H1311    1.0000 0.34290  0.54280  0.11570  Biso   1.000  H
  H1312    1.0000 0.18340  0.47350  0.12720  Biso   1.000  H
  H1313    1.0000 0.18690  0.47320  0.04670  Biso   1.000  H
  H1314    1.0000 0.30030  0.73760  0.19080  Biso   1.000  H
  C352     1.0000 0.33371  0.63304  0.15709  Biso   1.000  C
  H1315    1.0000 0.33000  0.60930  0.17950  Biso   1.000  H
  H1316    1.0000 0.31580  0.72180  0.04830  Biso   1.000  H
  H1317    1.0000 0.27160  0.75720  0.10290  Biso   1.000  H
  O88      1.0000 0.26000  0.78200  0.02300  Biso   1.000  O
  H1318    1.0000 0.24380  0.77940  0.04660  Biso   1.000  H
  H1319    1.0000 0.26340  0.71750  0.02120  Biso   1.000  H
  H1320    1.0000 0.23640  0.73330  0.98650  Biso   1.000  H
  N177     1.0000 0.96177  0.61390  0.23073  Biso   1.000  N
  N178     1.0000 0.85999  0.61828  0.19408  Biso   1.000  N
  C353     1.0000 0.97688  0.64494  0.20110  Biso   1.000  C
  H1321    1.0000 0.95790  0.66430  0.18260  Biso   1.000  H
  H1322    1.0000 0.97340  0.54040  0.28430  Biso   1.000  H
  H1323    1.0000 0.97320  0.60070  0.33850  Biso   1.000  H
  C354     1.0000 0.88357  0.61036  0.14928  Biso   1.000  C
  H1324    1.0000 0.91580  0.60640  0.14470  Biso   1.000  H
  H1325    1.0000 0.75440  0.61170  0.20790  Biso   1.000  H
  C355     1.0000 0.97664  0.61501  0.18350  Biso   1.000  C
  H1326    1.0000 0.95720  0.61570  0.15710  Biso   1.000  H
  H1327    1.0000 0.02650  0.62720  0.31660  Biso   1.000  H
  H1328    1.0000 0.02680  0.54670  0.31310  Biso   1.000  H
  H1329    1.0000 0.76240  0.69080  0.19970  Biso   1.000  H
  C356     1.0000 0.86696  0.65709  0.16629  Biso   1.000  C
  H1330    1.0000 0.89070  0.67950  0.17000  Biso   1.000  H
  H1331    1.0000 0.77820  0.54830  0.18420  Biso   1.000  H
  H1332    1.0000 0.74280  0.60290  0.22840  Biso   1.000  H
  O89      1.0000 0.71800  0.52300  0.24000  Biso   1.000  O
  H1333    1.0000 0.72060  0.54660  0.25620  Biso   1.000  H
  H1334    1.0000 0.78250  0.52120  0.23660  Biso   1.000  H
  H1335    1.0000 0.76670  0.48650  0.26360  Biso   1.000  H
  N179     1.0000 0.46177  0.11390  0.73073  Biso   1.000  N
  N180     1.0000 0.35999  0.11828  0.69408  Biso   1.000  N
  C357     1.0000 0.47688  0.14494  0.70110  Biso   1.000  C
  H1336    1.0000 0.45790  0.16430  0.68260  Biso   1.000  H
  H1337    1.0000 0.47340  0.04040  0.78430  Biso   1.000  H
  H1338    1.0000 0.47320  0.10070  0.83850  Biso   1.000  H
  C358     1.0000 0.38357  0.11036  0.64928  Biso   1.000  C
  H1339    1.0000 0.41580  0.10640  0.64470  Biso   1.000  H
  H1340    1.0000 0.25440  0.11170  0.70790  Biso   1.000  H
  C359     1.0000 0.47664  0.11501  0.68350  Biso   1.000  C
  H1341    1.0000 0.45720  0.11570  0.65710  Biso   1.000  H
  H1342    1.0000 0.52650  0.12720  0.81660  Biso   1.000  H
  H1343    1.0000 0.52680  0.04670  0.81310  Biso   1.000  H
  H1344    1.0000 0.26240  0.19080  0.69970  Biso   1.000  H
  C360     1.0000 0.36696  0.15709  0.66629  Biso   1.000  C
  H1345    1.0000 0.39070  0.17950  0.67000  Biso   1.000  H
  H1346    1.0000 0.27820  0.04830  0.68420  Biso   1.000  H
  H1347    1.0000 0.24280  0.10290  0.72840  Biso   1.000  H
  O90      1.0000 0.21800  0.02300  0.74000  Biso   1.000  O
  H1348    1.0000 0.22060  0.04660  0.75620  Biso   1.000  H
  H1349    1.0000 0.28250  0.02120  0.73660  Biso   1.000  H
  H1350    1.0000 0.26670  0.98650  0.76360  Biso   1.000  H
  N181     1.0000 0.96177  0.38610  0.76927  Biso   1.000  N
  N182     1.0000 0.85999  0.38172  0.80592  Biso   1.000  N
  C361     1.0000 0.97688  0.35506  0.79890  Biso   1.000  C
  H1351    1.0000 0.95790  0.33570  0.81740  Biso   1.000  H
  H1352    1.0000 0.97340  0.45960  0.71570  Biso   1.000  H
  H1353    1.0000 0.97320  0.39930  0.66150  Biso   1.000  H
  C362     1.0000 0.88357  0.38964  0.85072  Biso   1.000  C
  H1354    1.0000 0.91580  0.39360  0.85530  Biso   1.000  H
  H1355    1.0000 0.75440  0.38830  0.79210  Biso   1.000  H
  C363     1.0000 0.97664  0.38499  0.81650  Biso   1.000  C
  H1356    1.0000 0.95720  0.38430  0.84290  Biso   1.000  H
  H1357    1.0000 0.02650  0.37280  0.68340  Biso   1.000  H
  H1358    1.0000 0.02680  0.45330  0.68690  Biso   1.000  H
  H1359    1.0000 0.76240  0.30920  0.80030  Biso   1.000  H
  C364     1.0000 0.86696  0.34291  0.83371  Biso   1.000  C
  H1360    1.0000 0.89070  0.32050  0.83000  Biso   1.000  H
  H1361    1.0000 0.77820  0.45170  0.81580  Biso   1.000  H
  H1362    1.0000 0.74280  0.39710  0.77160  Biso   1.000  H
  O91      1.0000 0.71800  0.47700  0.76000  Biso   1.000  O
  H1363    1.0000 0.72060  0.45340  0.74380  Biso   1.000  H
  H1364    1.0000 0.78250  0.47880  0.76340  Biso   1.000  H
  H1365    1.0000 0.76670  0.51350  0.73640  Biso   1.000  H
  N183     1.0000 0.46177  0.88610  0.26927  Biso   1.000  N
  N184     1.0000 0.35999  0.88172  0.30592  Biso   1.000  N
  C365     1.0000 0.47688  0.85506  0.29890  Biso   1.000  C
  H1366    1.0000 0.45790  0.83570  0.31740  Biso   1.000  H
  H1367    1.0000 0.47340  0.95960  0.21570  Biso   1.000  H
  H1368    1.0000 0.47320  0.89930  0.16150  Biso   1.000  H
  C366     1.0000 0.38357  0.88964  0.35072  Biso   1.000  C
  H1369    1.0000 0.41580  0.89360  0.35530  Biso   1.000  H
  H1370    1.0000 0.25440  0.88830  0.29210  Biso   1.000  H
  C367     1.0000 0.47664  0.88499  0.31650  Biso   1.000  C
  H1371    1.0000 0.45720  0.88430  0.34290  Biso   1.000  H
  H1372    1.0000 0.52650  0.87280  0.18340  Biso   1.000  H
  H1373    1.0000 0.52680  0.95330  0.18690  Biso   1.000  H
  H1374    1.0000 0.26240  0.80920  0.30030  Biso   1.000  H
  C368     1.0000 0.36696  0.84291  0.33371  Biso   1.000  C
  H1375    1.0000 0.39070  0.82050  0.33000  Biso   1.000  H
  H1376    1.0000 0.27820  0.95170  0.31580  Biso   1.000  H
  H1377    1.0000 0.24280  0.89710  0.27160  Biso   1.000  H
  O92      1.0000 0.21800  0.97700  0.26000  Biso   1.000  O
  H1378    1.0000 0.22060  0.95340  0.24380  Biso   1.000  H
  H1379    1.0000 0.28250  0.97880  0.26340  Biso   1.000  H
  H1380    1.0000 0.26670  0.01350  0.23640  Biso   1.000  H
  N185     1.0000 0.03823  0.61390  0.76927  Biso   1.000  N
  N186     1.0000 0.14001  0.61828  0.80592  Biso   1.000  N
  C369     1.0000 0.02312  0.64494  0.79890  Biso   1.000  C
  H1381    1.0000 0.04210  0.66430  0.81740  Biso   1.000  H
  H1382    1.0000 0.02660  0.54040  0.71570  Biso   1.000  H
  H1383    1.0000 0.02680  0.60070  0.66150  Biso   1.000  H
  C370     1.0000 0.11643  0.61036  0.85072  Biso   1.000  C
  H1384    1.0000 0.08420  0.60640  0.85530  Biso   1.000  H
  H1385    1.0000 0.24560  0.61170  0.79210  Biso   1.000  H
  C371     1.0000 0.02336  0.61501  0.81650  Biso   1.000  C
  H1386    1.0000 0.04280  0.61570  0.84290  Biso   1.000  H
  H1387    1.0000 0.97350  0.62720  0.68340  Biso   1.000  H
  H1388    1.0000 0.97320  0.54670  0.68690  Biso   1.000  H
  H1389    1.0000 0.23760  0.69080  0.80030  Biso   1.000  H
  C372     1.0000 0.13304  0.65709  0.83371  Biso   1.000  C
  H1390    1.0000 0.10930  0.67950  0.83000  Biso   1.000  H
  H1391    1.0000 0.22180  0.54830  0.81580  Biso   1.000  H
  H1392    1.0000 0.25720  0.60290  0.77160  Biso   1.000  H
  O93      1.0000 0.28200  0.52300  0.76000  Biso   1.000  O
  H1393    1.0000 0.27940  0.54660  0.74380  Biso   1.000  H
  H1394    1.0000 0.21750  0.52120  0.76340  Biso   1.000  H
  H1395    1.0000 0.23330  0.48650  0.73640  Biso   1.000  H
  N187     1.0000 0.53823  0.11390  0.26927  Biso   1.000  N
  N188     1.0000 0.64001  0.11828  0.30592  Biso   1.000  N
  C373     1.0000 0.52312  0.14494  0.29890  Biso   1.000  C
  H1396    1.0000 0.54210  0.16430  0.31740  Biso   1.000  H
  H1397    1.0000 0.52660  0.04040  0.21570  Biso   1.000  H
  H1398    1.0000 0.52680  0.10070  0.16150  Biso   1.000  H
  C374     1.0000 0.61643  0.11036  0.35072  Biso   1.000  C
  H1399    1.0000 0.58420  0.10640  0.35530  Biso   1.000  H
  H1400    1.0000 0.74560  0.11170  0.29210  Biso   1.000  H
  C375     1.0000 0.52336  0.11501  0.31650  Biso   1.000  C
  H1401    1.0000 0.54280  0.11570  0.34290  Biso   1.000  H
  H1402    1.0000 0.47350  0.12720  0.18340  Biso   1.000  H
  H1403    1.0000 0.47320  0.04670  0.18690  Biso   1.000  H
  H1404    1.0000 0.73760  0.19080  0.30030  Biso   1.000  H
  C376     1.0000 0.63304  0.15709  0.33371  Biso   1.000  C
  H1405    1.0000 0.60930  0.17950  0.33000  Biso   1.000  H
  H1406    1.0000 0.72180  0.04830  0.31580  Biso   1.000  H
  H1407    1.0000 0.75720  0.10290  0.27160  Biso   1.000  H
  O94      1.0000 0.78200  0.02300  0.26000  Biso   1.000  O
  H1408    1.0000 0.77940  0.04660  0.24380  Biso   1.000  H
  H1409    1.0000 0.71750  0.02120  0.26340  Biso   1.000  H
  H1410    1.0000 0.73330  0.98650  0.23640  Biso   1.000  H
  N189     1.0000 0.03823  0.38610  0.23073  Biso   1.000  N
  N190     1.0000 0.14001  0.38172  0.19408  Biso   1.000  N
  C377     1.0000 0.02312  0.35506  0.20110  Biso   1.000  C
  H1411    1.0000 0.04210  0.33570  0.18260  Biso   1.000  H
  H1412    1.0000 0.02660  0.45960  0.28430  Biso   1.000  H
  H1413    1.0000 0.02680  0.39930  0.33850  Biso   1.000  H
  C378     1.0000 0.11643  0.38964  0.14928  Biso   1.000  C
  H1414    1.0000 0.08420  0.39360  0.14470  Biso   1.000  H
  H1415    1.0000 0.24560  0.38830  0.20790  Biso   1.000  H
  C379     1.0000 0.02336  0.38499  0.18350  Biso   1.000  C
  H1416    1.0000 0.04280  0.38430  0.15710  Biso   1.000  H
  H1417    1.0000 0.97350  0.37280  0.31660  Biso   1.000  H
  H1418    1.0000 0.97320  0.45330  0.31310  Biso   1.000  H
  H1419    1.0000 0.23760  0.30920  0.19970  Biso   1.000  H
  C380     1.0000 0.13304  0.34291  0.16629  Biso   1.000  C
  H1420    1.0000 0.10930  0.32050  0.17000  Biso   1.000  H
  H1421    1.0000 0.22180  0.45170  0.18420  Biso   1.000  H
  H1422    1.0000 0.25720  0.39710  0.22840  Biso   1.000  H
  O95      1.0000 0.28200  0.47700  0.24000  Biso   1.000  O
  H1423    1.0000 0.27940  0.45340  0.25620  Biso   1.000  H
  H1424    1.0000 0.21750  0.47880  0.23660  Biso   1.000  H
  H1425    1.0000 0.23330  0.51350  0.26360  Biso   1.000  H
  N191     1.0000 0.53823  0.88610  0.73073  Biso   1.000  N
  N192     1.0000 0.64001  0.88172  0.69408  Biso   1.000  N
  C381     1.0000 0.52312  0.85506  0.70110  Biso   1.000  C
  H1426    1.0000 0.54210  0.83570  0.68260  Biso   1.000  H
  H1427    1.0000 0.52660  0.95960  0.78430  Biso   1.000  H
  H1428    1.0000 0.52680  0.89930  0.83850  Biso   1.000  H
  C382     1.0000 0.61643  0.88964  0.64928  Biso   1.000  C
  H1429    1.0000 0.58420  0.89360  0.64470  Biso   1.000  H
  H1430    1.0000 0.74560  0.88830  0.70790  Biso   1.000  H
  C383     1.0000 0.52336  0.88499  0.68350  Biso   1.000  C
  H1431    1.0000 0.54280  0.88430  0.65710  Biso   1.000  H
  H1432    1.0000 0.47350  0.87280  0.81660  Biso   1.000  H
  H1433    1.0000 0.47320  0.95330  0.81310  Biso   1.000  H
  H1434    1.0000 0.73760  0.80920  0.69970  Biso   1.000  H
  C384     1.0000 0.63304  0.84291  0.66629  Biso   1.000  C
  H1435    1.0000 0.60930  0.82050  0.67000  Biso   1.000  H
  H1436    1.0000 0.72180  0.95170  0.68420  Biso   1.000  H
  H1437    1.0000 0.75720  0.89710  0.72840  Biso   1.000  H
  O96      1.0000 0.78200  0.97700  0.74000  Biso   1.000  O
  H1438    1.0000 0.77940  0.95340  0.75620  Biso   1.000  H
  H1439    1.0000 0.71750  0.97880  0.73660  Biso   1.000  H
  H1440    1.0000 0.73330  0.01350  0.76360  Biso   1.000  H
  Zn1      1.0000 0.25000  0.39625  0.10375  Biso   1.000  Zn
  Zn2      1.0000 0.75000  0.60375  0.10375  Biso   1.000  Zn
  Zn3      1.0000 0.75000  0.39625  0.89625  Biso   1.000  Zn
  Zn4      1.0000 0.25000  0.60375  0.89625  Biso   1.000  Zn
  Zn5      1.0000 0.10375  0.25000  0.39625  Biso   1.000  Zn
  Zn6      1.0000 0.10375  0.75000  0.60375  Biso   1.000  Zn
  Zn7      1.0000 0.89625  0.75000  0.39625  Biso   1.000  Zn
  Zn8      1.0000 0.89625  0.25000  0.60375  Biso   1.000  Zn
  Zn9      1.0000 0.39625  0.10375  0.25000  Biso   1.000  Zn
  Zn10     1.0000 0.60375  0.10375  0.75000  Biso   1.000  Zn
  Zn11     1.0000 0.39625  0.89625  0.75000  Biso   1.000  Zn
  Zn12     1.0000 0.60375  0.89625  0.25000  Biso   1.000  Zn
  Zn13     1.0000 0.39625  0.25000  0.89625  Biso   1.000  Zn
  Zn14     1.0000 0.60375  0.75000  0.89625  Biso   1.000  Zn
  Zn15     1.0000 0.39625  0.75000  0.10375  Biso   1.000  Zn
  Zn16     1.0000 0.60375  0.25000  0.10375  Biso   1.000  Zn
  Zn17     1.0000 0.25000  0.10375  0.60375  Biso   1.000  Zn
  Zn18     1.0000 0.75000  0.10375  0.39625  Biso   1.000  Zn
  Zn19     1.0000 0.75000  0.89625  0.60375  Biso   1.000  Zn
  Zn20     1.0000 0.25000  0.89625  0.39625  Biso   1.000  Zn
  Zn21     1.0000 0.10375  0.39625  0.75000  Biso   1.000  Zn
  Zn22     1.0000 0.10375  0.60375  0.25000  Biso   1.000  Zn
  Zn23     1.0000 0.89625  0.39625  0.25000  Biso   1.000  Zn
  Zn24     1.0000 0.89625  0.60375  0.75000  Biso   1.000  Zn
  Zn25     1.0000 0.75000  0.60375  0.89625  Biso   1.000  Zn
  Zn26     1.0000 0.25000  0.10375  0.39625  Biso   1.000  Zn
  Zn27     1.0000 0.25000  0.39625  0.89625  Biso   1.000  Zn
  Zn28     1.0000 0.25000  0.60375  0.10375  Biso   1.000  Zn
  Zn29     1.0000 0.75000  0.39625  0.10375  Biso   1.000  Zn
  Zn30     1.0000 0.89625  0.75000  0.60375  Biso   1.000  Zn
  Zn31     1.0000 0.39625  0.25000  0.10375  Biso   1.000  Zn
  Zn32     1.0000 0.89625  0.25000  0.39625  Biso   1.000  Zn
  Zn33     1.0000 0.10375  0.25000  0.60375  Biso   1.000  Zn
  Zn34     1.0000 0.10375  0.75000  0.39625  Biso   1.000  Zn
  Zn35     1.0000 0.60375  0.89625  0.75000  Biso   1.000  Zn
  Zn36     1.0000 0.10375  0.39625  0.25000  Biso   1.000  Zn
  Zn37     1.0000 0.39625  0.89625  0.25000  Biso   1.000  Zn
  Zn38     1.0000 0.60375  0.10375  0.25000  Biso   1.000  Zn
  Zn39     1.0000 0.39625  0.10375  0.75000  Biso   1.000  Zn
  Zn40     1.0000 0.60375  0.75000  0.10375  Biso   1.000  Zn
  Zn41     1.0000 0.60375  0.25000  0.89625  Biso   1.000  Zn
  Zn42     1.0000 0.39625  0.75000  0.89625  Biso   1.000  Zn
  Zn43     1.0000 0.75000  0.89625  0.39625  Biso   1.000  Zn
  Zn44     1.0000 0.25000  0.89625  0.60375  Biso   1.000  Zn
  Zn45     1.0000 0.75000  0.10375  0.60375  Biso   1.000  Zn
  Zn46     1.0000 0.89625  0.60375  0.25000  Biso   1.000  Zn
  Zn47     1.0000 0.89625  0.39625  0.75000  Biso   1.000  Zn
  Zn48     1.0000 0.10375  0.60375  0.75000  Biso   1.000  Zn
  C385     1.0000 0.24990  0.40460  0.00000  Biso   1.000  C
  C386     1.0000 0.28760  0.44060  0.00000  Biso   1.000  C
  C387     1.0000 0.33490  0.41790  0.00000  Biso   1.000  C
  H1441    1.0000 0.35760  0.44160  0.00000  Biso   1.000  H
  C388     1.0000 0.25450  0.38684  0.00000  Biso   1.000  C
  C389     1.0000 0.30550  0.38860  0.00000  Biso   1.000  C
  C390     1.0000 0.32350  0.43740  0.00000  Biso   1.000  C
  H1442    1.0000 0.35620  0.43610  0.00000  Biso   1.000  H
  C391     1.0000 0.74990  0.90460  0.50000  Biso   1.000  C
  C392     1.0000 0.78760  0.94060  0.50000  Biso   1.000  C
  C393     1.0000 0.83490  0.91790  0.50000  Biso   1.000  C
  H1443    1.0000 0.85760  0.94160  0.50000  Biso   1.000  H
  C394     1.0000 0.75450  0.88684  0.50000  Biso   1.000  C
  C395     1.0000 0.80550  0.88860  0.50000  Biso   1.000  C
  C396     1.0000 0.82350  0.93740  0.50000  Biso   1.000  C
  H1444    1.0000 0.85620  0.93610  0.50000  Biso   1.000  H
  C397     1.0000 0.75010  0.59540  0.00000  Biso   1.000  C
  C398     1.0000 0.71240  0.55940  0.00000  Biso   1.000  C
  C399     1.0000 0.66510  0.58210  0.00000  Biso   1.000  C
  H1445    1.0000 0.64240  0.55840  0.00000  Biso   1.000  H
  C400     1.0000 0.74550  0.61316  0.00000  Biso   1.000  C
  C401     1.0000 0.69450  0.61140  0.00000  Biso   1.000  C
  C402     1.0000 0.67650  0.56260  0.00000  Biso   1.000  C
  H1446    1.0000 0.64380  0.56390  0.00000  Biso   1.000  H
  C403     1.0000 0.25010  0.09540  0.50000  Biso   1.000  C
  C404     1.0000 0.21240  0.05940  0.50000  Biso   1.000  C
  C405     1.0000 0.16510  0.08210  0.50000  Biso   1.000  C
  H1447    1.0000 0.14240  0.05840  0.50000  Biso   1.000  H
  C406     1.0000 0.24550  0.11316  0.50000  Biso   1.000  C
  C407     1.0000 0.19450  0.11140  0.50000  Biso   1.000  C
  C408     1.0000 0.17650  0.06260  0.50000  Biso   1.000  C
  H1448    1.0000 0.14380  0.06390  0.50000  Biso   1.000  H
  C409     1.0000 0.75010  0.40460  0.00000  Biso   1.000  C
  C410     1.0000 0.71240  0.44060  0.00000  Biso   1.000  C
  C411     1.0000 0.66510  0.41790  0.00000  Biso   1.000  C
  H1449    1.0000 0.64240  0.44160  0.00000  Biso   1.000  H
  C412     1.0000 0.74550  0.38684  0.00000  Biso   1.000  C
  C413     1.0000 0.69450  0.38860  0.00000  Biso   1.000  C
  C414     1.0000 0.67650  0.43740  0.00000  Biso   1.000  C
  H1450    1.0000 0.64380  0.43610  0.00000  Biso   1.000  H
  C415     1.0000 0.25010  0.90460  0.50000  Biso   1.000  C
  C416     1.0000 0.21240  0.94060  0.50000  Biso   1.000  C
  C417     1.0000 0.16510  0.91790  0.50000  Biso   1.000  C
  H1451    1.0000 0.14240  0.94160  0.50000  Biso   1.000  H
  C418     1.0000 0.24550  0.88684  0.50000  Biso   1.000  C
  C419     1.0000 0.19450  0.88860  0.50000  Biso   1.000  C
  C420     1.0000 0.17650  0.93740  0.50000  Biso   1.000  C
  H1452    1.0000 0.14380  0.93610  0.50000  Biso   1.000  H
  C421     1.0000 0.24990  0.59540  0.00000  Biso   1.000  C
  C422     1.0000 0.28760  0.55940  0.00000  Biso   1.000  C
  C423     1.0000 0.33490  0.58210  0.00000  Biso   1.000  C
  H1453    1.0000 0.35760  0.55840  0.00000  Biso   1.000  H
  C424     1.0000 0.25450  0.61316  0.00000  Biso   1.000  C
  C425     1.0000 0.30550  0.61140  0.00000  Biso   1.000  C
  C426     1.0000 0.32350  0.56260  0.00000  Biso   1.000  C
  H1454    1.0000 0.35620  0.56390  0.00000  Biso   1.000  H
  C427     1.0000 0.74990  0.09540  0.50000  Biso   1.000  C
  C428     1.0000 0.78760  0.05940  0.50000  Biso   1.000  C
  C429     1.0000 0.83490  0.08210  0.50000  Biso   1.000  C
  H1455    1.0000 0.85760  0.05840  0.50000  Biso   1.000  H
  C430     1.0000 0.75450  0.11316  0.50000  Biso   1.000  C
  C431     1.0000 0.80550  0.11140  0.50000  Biso   1.000  C
  C432     1.0000 0.82350  0.06260  0.50000  Biso   1.000  C
  H1456    1.0000 0.85620  0.06390  0.50000  Biso   1.000  H
  C433     1.0000 0.00000  0.24990  0.40460  Biso   1.000  C
  C434     1.0000 0.00000  0.28760  0.44060  Biso   1.000  C
  C435     1.0000 0.00000  0.33490  0.41790  Biso   1.000  C
  H1457    1.0000 0.00000  0.35760  0.44160  Biso   1.000  H
  C436     1.0000 0.00000  0.25450  0.38684  Biso   1.000  C
  C437     1.0000 0.00000  0.30550  0.38860  Biso   1.000  C
  C438     1.0000 0.00000  0.32350  0.43740  Biso   1.000  C
  H1458    1.0000 0.00000  0.35620  0.43610  Biso   1.000  H
  C439     1.0000 0.50000  0.74990  0.90460  Biso   1.000  C
  C440     1.0000 0.50000  0.78760  0.94060  Biso   1.000  C
  C441     1.0000 0.50000  0.83490  0.91790  Biso   1.000  C
  H1459    1.0000 0.50000  0.85760  0.94160  Biso   1.000  H
  C442     1.0000 0.50000  0.75450  0.88684  Biso   1.000  C
  C443     1.0000 0.50000  0.80550  0.88860  Biso   1.000  C
  C444     1.0000 0.50000  0.82350  0.93740  Biso   1.000  C
  H1460    1.0000 0.50000  0.85620  0.93610  Biso   1.000  H
  C445     1.0000 0.00000  0.75010  0.59540  Biso   1.000  C
  C446     1.0000 0.00000  0.71240  0.55940  Biso   1.000  C
  C447     1.0000 0.00000  0.66510  0.58210  Biso   1.000  C
  H1461    1.0000 0.00000  0.64240  0.55840  Biso   1.000  H
  C448     1.0000 0.00000  0.74550  0.61316  Biso   1.000  C
  C449     1.0000 0.00000  0.69450  0.61140  Biso   1.000  C
  C450     1.0000 0.00000  0.67650  0.56260  Biso   1.000  C
  H1462    1.0000 0.00000  0.64380  0.56390  Biso   1.000  H
  C451     1.0000 0.50000  0.25010  0.09540  Biso   1.000  C
  C452     1.0000 0.50000  0.21240  0.05940  Biso   1.000  C
  C453     1.0000 0.50000  0.16510  0.08210  Biso   1.000  C
  H1463    1.0000 0.50000  0.14240  0.05840  Biso   1.000  H
  C454     1.0000 0.50000  0.24550  0.11316  Biso   1.000  C
  C455     1.0000 0.50000  0.19450  0.11140  Biso   1.000  C
  C456     1.0000 0.50000  0.17650  0.06260  Biso   1.000  C
  H1464    1.0000 0.50000  0.14380  0.06390  Biso   1.000  H
  C457     1.0000 0.00000  0.75010  0.40460  Biso   1.000  C
  C458     1.0000 0.00000  0.71240  0.44060  Biso   1.000  C
  C459     1.0000 0.00000  0.66510  0.41790  Biso   1.000  C
  H1465    1.0000 0.00000  0.64240  0.44160  Biso   1.000  H
  C460     1.0000 0.00000  0.74550  0.38684  Biso   1.000  C
  C461     1.0000 0.00000  0.69450  0.38860  Biso   1.000  C
  C462     1.0000 0.00000  0.67650  0.43740  Biso   1.000  C
  H1466    1.0000 0.00000  0.64380  0.43610  Biso   1.000  H
  C463     1.0000 0.50000  0.25010  0.90460  Biso   1.000  C
  C464     1.0000 0.50000  0.21240  0.94060  Biso   1.000  C
  C465     1.0000 0.50000  0.16510  0.91790  Biso   1.000  C
  H1467    1.0000 0.50000  0.14240  0.94160  Biso   1.000  H
  C466     1.0000 0.50000  0.24550  0.88684  Biso   1.000  C
  C467     1.0000 0.50000  0.19450  0.88860  Biso   1.000  C
  C468     1.0000 0.50000  0.17650  0.93740  Biso   1.000  C
  H1468    1.0000 0.50000  0.14380  0.93610  Biso   1.000  H
  C469     1.0000 0.00000  0.24990  0.59540  Biso   1.000  C
  C470     1.0000 0.00000  0.28760  0.55940  Biso   1.000  C
  C471     1.0000 0.00000  0.33490  0.58210  Biso   1.000  C
  H1469    1.0000 0.00000  0.35760  0.55840  Biso   1.000  H
  C472     1.0000 0.00000  0.25450  0.61316  Biso   1.000  C
  C473     1.0000 0.00000  0.30550  0.61140  Biso   1.000  C
  C474     1.0000 0.00000  0.32350  0.56260  Biso   1.000  C
  H1470    1.0000 0.00000  0.35620  0.56390  Biso   1.000  H
  C475     1.0000 0.50000  0.74990  0.09540  Biso   1.000  C
  C476     1.0000 0.50000  0.78760  0.05940  Biso   1.000  C
  C477     1.0000 0.50000  0.83490  0.08210  Biso   1.000  C
  H1471    1.0000 0.50000  0.85760  0.05840  Biso   1.000  H
  C478     1.0000 0.50000  0.75450  0.11316  Biso   1.000  C
  C479     1.0000 0.50000  0.80550  0.11140  Biso   1.000  C
  C480     1.0000 0.50000  0.82350  0.06260  Biso   1.000  C
  H1472    1.0000 0.50000  0.85620  0.06390  Biso   1.000  H
  C481     1.0000 0.40460  0.00000  0.24990  Biso   1.000  C
  C482     1.0000 0.44060  0.00000  0.28760  Biso   1.000  C
  C483     1.0000 0.41790  0.00000  0.33490  Biso   1.000  C
  H1473    1.0000 0.44160  0.00000  0.35760  Biso   1.000  H
  C484     1.0000 0.38684  0.00000  0.25450  Biso   1.000  C
  C485     1.0000 0.38860  0.00000  0.30550  Biso   1.000  C
  C486     1.0000 0.43740  0.00000  0.32350  Biso   1.000  C
  H1474    1.0000 0.43610  0.00000  0.35620  Biso   1.000  H
  C487     1.0000 0.90460  0.50000  0.74990  Biso   1.000  C
  C488     1.0000 0.94060  0.50000  0.78760  Biso   1.000  C
  C489     1.0000 0.91790  0.50000  0.83490  Biso   1.000  C
  H1475    1.0000 0.94160  0.50000  0.85760  Biso   1.000  H
  C490     1.0000 0.88684  0.50000  0.75450  Biso   1.000  C
  C491     1.0000 0.88860  0.50000  0.80550  Biso   1.000  C
  C492     1.0000 0.93740  0.50000  0.82350  Biso   1.000  C
  H1476    1.0000 0.93610  0.50000  0.85620  Biso   1.000  H
  C493     1.0000 0.59540  0.00000  0.75010  Biso   1.000  C
  C494     1.0000 0.55940  0.00000  0.71240  Biso   1.000  C
  C495     1.0000 0.58210  0.00000  0.66510  Biso   1.000  C
  H1477    1.0000 0.55840  0.00000  0.64240  Biso   1.000  H
  C496     1.0000 0.61316  0.00000  0.74550  Biso   1.000  C
  C497     1.0000 0.61140  0.00000  0.69450  Biso   1.000  C
  C498     1.0000 0.56260  0.00000  0.67650  Biso   1.000  C
  H1478    1.0000 0.56390  0.00000  0.64380  Biso   1.000  H
  C499     1.0000 0.09540  0.50000  0.25010  Biso   1.000  C
  C500     1.0000 0.05940  0.50000  0.21240  Biso   1.000  C
  C501     1.0000 0.08210  0.50000  0.16510  Biso   1.000  C
  H1479    1.0000 0.05840  0.50000  0.14240  Biso   1.000  H
  C502     1.0000 0.11316  0.50000  0.24550  Biso   1.000  C
  C503     1.0000 0.11140  0.50000  0.19450  Biso   1.000  C
  C504     1.0000 0.06260  0.50000  0.17650  Biso   1.000  C
  H1480    1.0000 0.06390  0.50000  0.14380  Biso   1.000  H
  C505     1.0000 0.40460  0.00000  0.75010  Biso   1.000  C
  C506     1.0000 0.44060  0.00000  0.71240  Biso   1.000  C
  C507     1.0000 0.41790  0.00000  0.66510  Biso   1.000  C
  H1481    1.0000 0.44160  0.00000  0.64240  Biso   1.000  H
  C508     1.0000 0.38684  0.00000  0.74550  Biso   1.000  C
  C509     1.0000 0.38860  0.00000  0.69450  Biso   1.000  C
  C510     1.0000 0.43740  0.00000  0.67650  Biso   1.000  C
  H1482    1.0000 0.43610  0.00000  0.64380  Biso   1.000  H
  C511     1.0000 0.90460  0.50000  0.25010  Biso   1.000  C
  C512     1.0000 0.94060  0.50000  0.21240  Biso   1.000  C
  C513     1.0000 0.91790  0.50000  0.16510  Biso   1.000  C
  H1483    1.0000 0.94160  0.50000  0.14240  Biso   1.000  H
  C514     1.0000 0.88684  0.50000  0.24550  Biso   1.000  C
  C515     1.0000 0.88860  0.50000  0.19450  Biso   1.000  C
  C516     1.0000 0.93740  0.50000  0.17650  Biso   1.000  C
  H1484    1.0000 0.93610  0.50000  0.14380  Biso   1.000  H
  C517     1.0000 0.59540  0.00000  0.24990  Biso   1.000  C
  C518     1.0000 0.55940  0.00000  0.28760  Biso   1.000  C
  C519     1.0000 0.58210  0.00000  0.33490  Biso   1.000  C
  H1485    1.0000 0.55840  0.00000  0.35760  Biso   1.000  H
  C520     1.0000 0.61316  0.00000  0.25450  Biso   1.000  C
  C521     1.0000 0.61140  0.00000  0.30550  Biso   1.000  C
  C522     1.0000 0.56260  0.00000  0.32350  Biso   1.000  C
  H1486    1.0000 0.56390  0.00000  0.35620  Biso   1.000  H
  C523     1.0000 0.09540  0.50000  0.74990  Biso   1.000  C
  C524     1.0000 0.05940  0.50000  0.78760  Biso   1.000  C
  C525     1.0000 0.08210  0.50000  0.83490  Biso   1.000  C
  H1487    1.0000 0.05840  0.50000  0.85760  Biso   1.000  H
  C526     1.0000 0.11316  0.50000  0.75450  Biso   1.000  C
  C527     1.0000 0.11140  0.50000  0.80550  Biso   1.000  C
  C528     1.0000 0.06260  0.50000  0.82350  Biso   1.000  C
  H1488    1.0000 0.06390  0.50000  0.85620  Biso   1.000  H
  C529     1.0000 0.40460  0.24990  0.00000  Biso   1.000  C
  C530     1.0000 0.44060  0.28760  0.00000  Biso   1.000  C
  C531     1.0000 0.41790  0.33490  0.00000  Biso   1.000  C
  H1489    1.0000 0.44160  0.35760  0.00000  Biso   1.000  H
  C532     1.0000 0.38684  0.25450  0.00000  Biso   1.000  C
  C533     1.0000 0.38860  0.30550  0.00000  Biso   1.000  C
  C534     1.0000 0.43740  0.32350  0.00000  Biso   1.000  C
  H1490    1.0000 0.43610  0.35620  0.00000  Biso   1.000  H
  C535     1.0000 0.90460  0.74990  0.50000  Biso   1.000  C
  C536     1.0000 0.94060  0.78760  0.50000  Biso   1.000  C
  C537     1.0000 0.91790  0.83490  0.50000  Biso   1.000  C
  H1491    1.0000 0.94160  0.85760  0.50000  Biso   1.000  H
  C538     1.0000 0.88684  0.75450  0.50000  Biso   1.000  C
  C539     1.0000 0.88860  0.80550  0.50000  Biso   1.000  C
  C540     1.0000 0.93740  0.82350  0.50000  Biso   1.000  C
  H1492    1.0000 0.93610  0.85620  0.50000  Biso   1.000  H
  C541     1.0000 0.59540  0.75010  0.00000  Biso   1.000  C
  C542     1.0000 0.55940  0.71240  0.00000  Biso   1.000  C
  C543     1.0000 0.58210  0.66510  0.00000  Biso   1.000  C
  H1493    1.0000 0.55840  0.64240  0.00000  Biso   1.000  H
  C544     1.0000 0.61316  0.74550  0.00000  Biso   1.000  C
  C545     1.0000 0.61140  0.69450  0.00000  Biso   1.000  C
  C546     1.0000 0.56260  0.67650  0.00000  Biso   1.000  C
  H1494    1.0000 0.56390  0.64380  0.00000  Biso   1.000  H
  C547     1.0000 0.09540  0.25010  0.50000  Biso   1.000  C
  C548     1.0000 0.05940  0.21240  0.50000  Biso   1.000  C
  C549     1.0000 0.08210  0.16510  0.50000  Biso   1.000  C
  H1495    1.0000 0.05840  0.14240  0.50000  Biso   1.000  H
  C550     1.0000 0.11316  0.24550  0.50000  Biso   1.000  C
  C551     1.0000 0.11140  0.19450  0.50000  Biso   1.000  C
  C552     1.0000 0.06260  0.17650  0.50000  Biso   1.000  C
  H1496    1.0000 0.06390  0.14380  0.50000  Biso   1.000  H
  C553     1.0000 0.40460  0.75010  0.00000  Biso   1.000  C
  C554     1.0000 0.44060  0.71240  0.00000  Biso   1.000  C
  C555     1.0000 0.41790  0.66510  0.00000  Biso   1.000  C
  H1497    1.0000 0.44160  0.64240  0.00000  Biso   1.000  H
  C556     1.0000 0.38684  0.74550  0.00000  Biso   1.000  C
  C557     1.0000 0.38860  0.69450  0.00000  Biso   1.000  C
  C558     1.0000 0.43740  0.67650  0.00000  Biso   1.000  C
  H1498    1.0000 0.43610  0.64380  0.00000  Biso   1.000  H
  C559     1.0000 0.90460  0.25010  0.50000  Biso   1.000  C
  C560     1.0000 0.94060  0.21240  0.50000  Biso   1.000  C
  C561     1.0000 0.91790  0.16510  0.50000  Biso   1.000  C
  H1499    1.0000 0.94160  0.14240  0.50000  Biso   1.000  H
  C562     1.0000 0.88684  0.24550  0.50000  Biso   1.000  C
  C563     1.0000 0.88860  0.19450  0.50000  Biso   1.000  C
  C564     1.0000 0.93740  0.17650  0.50000  Biso   1.000  C
  H1500    1.0000 0.93610  0.14380  0.50000  Biso   1.000  H
  C565     1.0000 0.59540  0.24990  0.00000  Biso   1.000  C
  C566     1.0000 0.55940  0.28760  0.00000  Biso   1.000  C
  C567     1.0000 0.58210  0.33490  0.00000  Biso   1.000  C
  H1501    1.0000 0.55840  0.35760  0.00000  Biso   1.000  H
  C568     1.0000 0.61316  0.25450  0.00000  Biso   1.000  C
  C569     1.0000 0.61140  0.30550  0.00000  Biso   1.000  C
  C570     1.0000 0.56260  0.32350  0.00000  Biso   1.000  C
  H1502    1.0000 0.56390  0.35620  0.00000  Biso   1.000  H
  C571     1.0000 0.09540  0.74990  0.50000  Biso   1.000  C
  C572     1.0000 0.05940  0.78760  0.50000  Biso   1.000  C
  C573     1.0000 0.08210  0.83490  0.50000  Biso   1.000  C
  H1503    1.0000 0.05840  0.85760  0.50000  Biso   1.000  H
  C574     1.0000 0.11316  0.75450  0.50000  Biso   1.000  C
  C575     1.0000 0.11140  0.80550  0.50000  Biso   1.000  C
  C576     1.0000 0.06260  0.82350  0.50000  Biso   1.000  C
  H1504    1.0000 0.06390  0.85620  0.50000  Biso   1.000  H
  C577     1.0000 0.24990  0.00000  0.59540  Biso   1.000  C
  C578     1.0000 0.28760  0.00000  0.55940  Biso   1.000  C
  C579     1.0000 0.33490  0.00000  0.58210  Biso   1.000  C
  H1505    1.0000 0.35760  0.00000  0.55840  Biso   1.000  H
  C580     1.0000 0.25450  0.00000  0.61316  Biso   1.000  C
  C581     1.0000 0.30550  0.00000  0.61140  Biso   1.000  C
  C582     1.0000 0.32350  0.00000  0.56260  Biso   1.000  C
  H1506    1.0000 0.35620  0.00000  0.56390  Biso   1.000  H
  C583     1.0000 0.74990  0.50000  0.09540  Biso   1.000  C
  C584     1.0000 0.78760  0.50000  0.05940  Biso   1.000  C
  C585     1.0000 0.83490  0.50000  0.08210  Biso   1.000  C
  H1507    1.0000 0.85760  0.50000  0.05840  Biso   1.000  H
  C586     1.0000 0.75450  0.50000  0.11316  Biso   1.000  C
  C587     1.0000 0.80550  0.50000  0.11140  Biso   1.000  C
  C588     1.0000 0.82350  0.50000  0.06260  Biso   1.000  C
  H1508    1.0000 0.85620  0.50000  0.06390  Biso   1.000  H
  C589     1.0000 0.75010  0.00000  0.40460  Biso   1.000  C
  C590     1.0000 0.71240  0.00000  0.44060  Biso   1.000  C
  C591     1.0000 0.66510  0.00000  0.41790  Biso   1.000  C
  H1509    1.0000 0.64240  0.00000  0.44160  Biso   1.000  H
  C592     1.0000 0.74550  0.00000  0.38684  Biso   1.000  C
  C593     1.0000 0.69450  0.00000  0.38860  Biso   1.000  C
  C594     1.0000 0.67650  0.00000  0.43740  Biso   1.000  C
  H1510    1.0000 0.64380  0.00000  0.43610  Biso   1.000  H
  C595     1.0000 0.25010  0.50000  0.90460  Biso   1.000  C
  C596     1.0000 0.21240  0.50000  0.94060  Biso   1.000  C
  C597     1.0000 0.16510  0.50000  0.91790  Biso   1.000  C
  H1511    1.0000 0.14240  0.50000  0.94160  Biso   1.000  H
  C598     1.0000 0.24550  0.50000  0.88684  Biso   1.000  C
  C599     1.0000 0.19450  0.50000  0.88860  Biso   1.000  C
  C600     1.0000 0.17650  0.50000  0.93740  Biso   1.000  C
  H1512    1.0000 0.14380  0.50000  0.93610  Biso   1.000  H
  C601     1.0000 0.75010  0.00000  0.59540  Biso   1.000  C
  C602     1.0000 0.71240  0.00000  0.55940  Biso   1.000  C
  C603     1.0000 0.66510  0.00000  0.58210  Biso   1.000  C
  H1513    1.0000 0.64240  0.00000  0.55840  Biso   1.000  H
  C604     1.0000 0.74550  0.00000  0.61316  Biso   1.000  C
  C605     1.0000 0.69450  0.00000  0.61140  Biso   1.000  C
  C606     1.0000 0.67650  0.00000  0.56260  Biso   1.000  C
  H1514    1.0000 0.64380  0.00000  0.56390  Biso   1.000  H
  C607     1.0000 0.25010  0.50000  0.09540  Biso   1.000  C
  C608     1.0000 0.21240  0.50000  0.05940  Biso   1.000  C
  C609     1.0000 0.16510  0.50000  0.08210  Biso   1.000  C
  H1515    1.0000 0.14240  0.50000  0.05840  Biso   1.000  H
  C610     1.0000 0.24550  0.50000  0.11316  Biso   1.000  C
  C611     1.0000 0.19450  0.50000  0.11140  Biso   1.000  C
  C612     1.0000 0.17650  0.50000  0.06260  Biso   1.000  C
  H1516    1.0000 0.14380  0.50000  0.06390  Biso   1.000  H
  C613     1.0000 0.24990  0.00000  0.40460  Biso   1.000  C
  C614     1.0000 0.28760  0.00000  0.44060  Biso   1.000  C
  C615     1.0000 0.33490  0.00000  0.41790  Biso   1.000  C
  H1517    1.0000 0.35760  0.00000  0.44160  Biso   1.000  H
  C616     1.0000 0.25450  0.00000  0.38684  Biso   1.000  C
  C617     1.0000 0.30550  0.00000  0.38860  Biso   1.000  C
  C618     1.0000 0.32350  0.00000  0.43740  Biso   1.000  C
  H1518    1.0000 0.35620  0.00000  0.43610  Biso   1.000  H
  C619     1.0000 0.74990  0.50000  0.90460  Biso   1.000  C
  C620     1.0000 0.78760  0.50000  0.94060  Biso   1.000  C
  C621     1.0000 0.83490  0.50000  0.91790  Biso   1.000  C
  H1519    1.0000 0.85760  0.50000  0.94160  Biso   1.000  H
  C622     1.0000 0.75450  0.50000  0.88684  Biso   1.000  C
  C623     1.0000 0.80550  0.50000  0.88860  Biso   1.000  C
  C624     1.0000 0.82350  0.50000  0.93740  Biso   1.000  C
  H1520    1.0000 0.85620  0.50000  0.93610  Biso   1.000  H
  C625     1.0000 0.00000  0.40460  0.75010  Biso   1.000  C
  C626     1.0000 0.00000  0.44060  0.71240  Biso   1.000  C
  C627     1.0000 0.00000  0.41790  0.66510  Biso   1.000  C
  H1521    1.0000 0.00000  0.44160  0.64240  Biso   1.000  H
  C628     1.0000 0.00000  0.38684  0.74550  Biso   1.000  C
  C629     1.0000 0.00000  0.38860  0.69450  Biso   1.000  C
  C630     1.0000 0.00000  0.43740  0.67650  Biso   1.000  C
  H1522    1.0000 0.00000  0.43610  0.64380  Biso   1.000  H
  C631     1.0000 0.50000  0.90460  0.25010  Biso   1.000  C
  C632     1.0000 0.50000  0.94060  0.21240  Biso   1.000  C
  C633     1.0000 0.50000  0.91790  0.16510  Biso   1.000  C
  H1523    1.0000 0.50000  0.94160  0.14240  Biso   1.000  H
  C634     1.0000 0.50000  0.88684  0.24550  Biso   1.000  C
  C635     1.0000 0.50000  0.88860  0.19450  Biso   1.000  C
  C636     1.0000 0.50000  0.93740  0.17650  Biso   1.000  C
  H1524    1.0000 0.50000  0.93610  0.14380  Biso   1.000  H
  C637     1.0000 0.00000  0.59540  0.24990  Biso   1.000  C
  C638     1.0000 0.00000  0.55940  0.28760  Biso   1.000  C
  C639     1.0000 0.00000  0.58210  0.33490  Biso   1.000  C
  H1525    1.0000 0.00000  0.55840  0.35760  Biso   1.000  H
  C640     1.0000 0.00000  0.61316  0.25450  Biso   1.000  C
  C641     1.0000 0.00000  0.61140  0.30550  Biso   1.000  C
  C642     1.0000 0.00000  0.56260  0.32350  Biso   1.000  C
  H1526    1.0000 0.00000  0.56390  0.35620  Biso   1.000  H
  C643     1.0000 0.50000  0.09540  0.74990  Biso   1.000  C
  C644     1.0000 0.50000  0.05940  0.78760  Biso   1.000  C
  C645     1.0000 0.50000  0.08210  0.83490  Biso   1.000  C
  H1527    1.0000 0.50000  0.05840  0.85760  Biso   1.000  H
  C646     1.0000 0.50000  0.11316  0.75450  Biso   1.000  C
  C647     1.0000 0.50000  0.11140  0.80550  Biso   1.000  C
  C648     1.0000 0.50000  0.06260  0.82350  Biso   1.000  C
  H1528    1.0000 0.50000  0.06390  0.85620  Biso   1.000  H
  C649     1.0000 0.00000  0.40460  0.24990  Biso   1.000  C
  C650     1.0000 0.00000  0.44060  0.28760  Biso   1.000  C
  C651     1.0000 0.00000  0.41790  0.33490  Biso   1.000  C
  H1529    1.0000 0.00000  0.44160  0.35760  Biso   1.000  H
  C652     1.0000 0.00000  0.38684  0.25450  Biso   1.000  C
  C653     1.0000 0.00000  0.38860  0.30550  Biso   1.000  C
  C654     1.0000 0.00000  0.43740  0.32350  Biso   1.000  C
  H1530    1.0000 0.00000  0.43610  0.35620  Biso   1.000  H
  C655     1.0000 0.50000  0.90460  0.74990  Biso   1.000  C
  C656     1.0000 0.50000  0.94060  0.78760  Biso   1.000  C
  C657     1.0000 0.50000  0.91790  0.83490  Biso   1.000  C
  H1531    1.0000 0.50000  0.94160  0.85760  Biso   1.000  H
  C658     1.0000 0.50000  0.88684  0.75450  Biso   1.000  C
  C659     1.0000 0.50000  0.88860  0.80550  Biso   1.000  C
  C660     1.0000 0.50000  0.93740  0.82350  Biso   1.000  C
  H1532    1.0000 0.50000  0.93610  0.85620  Biso   1.000  H
  C661     1.0000 0.00000  0.59540  0.75010  Biso   1.000  C
  C662     1.0000 0.00000  0.55940  0.71240  Biso   1.000  C
  C663     1.0000 0.00000  0.58210  0.66510  Biso   1.000  C
  H1533    1.0000 0.00000  0.55840  0.64240  Biso   1.000  H
  C664     1.0000 0.00000  0.61316  0.74550  Biso   1.000  C
  C665     1.0000 0.00000  0.61140  0.69450  Biso   1.000  C
  C666     1.0000 0.00000  0.56260  0.67650  Biso   1.000  C
  H1534    1.0000 0.00000  0.56390  0.64380  Biso   1.000  H
  C667     1.0000 0.50000  0.09540  0.25010  Biso   1.000  C
  C668     1.0000 0.50000  0.05940  0.21240  Biso   1.000  C
  C669     1.0000 0.50000  0.08210  0.16510  Biso   1.000  C
  H1535    1.0000 0.50000  0.05840  0.14240  Biso   1.000  H
  C670     1.0000 0.50000  0.11316  0.24550  Biso   1.000  C
  C671     1.0000 0.50000  0.11140  0.19450  Biso   1.000  C
  C672     1.0000 0.50000  0.06260  0.17650  Biso   1.000  C
  H1536    1.0000 0.50000  0.06390  0.14380  Biso   1.000  H
  C673     1.0000 0.18130  0.37994  0.18130  Biso   1.000  C
  C674     1.0000 0.21770  0.37370  0.21770  Biso   1.000  C
  C675     1.0000 0.22720  0.32370  0.22720  Biso   1.000  C
  H1537    1.0000 0.25040  0.32100  0.25040  Biso   1.000  H
  C676     1.0000 0.18220  0.39580  0.18220  Biso   1.000  C
  C677     1.0000 0.20620  0.43290  0.20620  Biso   1.000  C
  C678     1.0000 0.24010  0.41540  0.24010  Biso   1.000  C
  H1538    1.0000 0.25560  0.44040  0.25560  Biso   1.000  H
  C679     1.0000 0.68130  0.87994  0.68130  Biso   1.000  C
  C680     1.0000 0.71770  0.87370  0.71770  Biso   1.000  C
  C681     1.0000 0.72720  0.82370  0.72720  Biso   1.000  C
  H1539    1.0000 0.75040  0.82100  0.75040  Biso   1.000  H
  C682     1.0000 0.68220  0.89580  0.68220  Biso   1.000  C
  C683     1.0000 0.70620  0.93290  0.70620  Biso   1.000  C
  C684     1.0000 0.74010  0.91540  0.74010  Biso   1.000  C
  H1540    1.0000 0.75560  0.94040  0.75560  Biso   1.000  H
  C685     1.0000 0.81870  0.62006  0.18130  Biso   1.000  C
  C686     1.0000 0.78230  0.62630  0.21770  Biso   1.000  C
  C687     1.0000 0.77280  0.67630  0.22720  Biso   1.000  C
  H1541    1.0000 0.74960  0.67900  0.25040  Biso   1.000  H
  C688     1.0000 0.81780  0.60420  0.18220  Biso   1.000  C
  C689     1.0000 0.79380  0.56710  0.20620  Biso   1.000  C
  C690     1.0000 0.75990  0.58460  0.24010  Biso   1.000  C
  H1542    1.0000 0.74440  0.55960  0.25560  Biso   1.000  H
  C691     1.0000 0.31870  0.12006  0.68130  Biso   1.000  C
  C692     1.0000 0.28230  0.12630  0.71770  Biso   1.000  C
  C693     1.0000 0.27280  0.17630  0.72720  Biso   1.000  C
  H1543    1.0000 0.24960  0.17900  0.75040  Biso   1.000  H
  C694     1.0000 0.31780  0.10420  0.68220  Biso   1.000  C
  C695     1.0000 0.29380  0.06710  0.70620  Biso   1.000  C
  C696     1.0000 0.25990  0.08460  0.74010  Biso   1.000  C
  H1544    1.0000 0.24440  0.05960  0.75560  Biso   1.000  H
  C697     1.0000 0.81870  0.37994  0.81870  Biso   1.000  C
  C698     1.0000 0.78230  0.37370  0.78230  Biso   1.000  C
  C699     1.0000 0.77280  0.32370  0.77280  Biso   1.000  C
  H1545    1.0000 0.74960  0.32100  0.74960  Biso   1.000  H
  C700     1.0000 0.81780  0.39580  0.81780  Biso   1.000  C
  C701     1.0000 0.79380  0.43290  0.79380  Biso   1.000  C
  C702     1.0000 0.75990  0.41540  0.75990  Biso   1.000  C
  H1546    1.0000 0.74440  0.44040  0.74440  Biso   1.000  H
  C703     1.0000 0.31870  0.87994  0.31870  Biso   1.000  C
  C704     1.0000 0.28230  0.87370  0.28230  Biso   1.000  C
  C705     1.0000 0.27280  0.82370  0.27280  Biso   1.000  C
  H1547    1.0000 0.24960  0.82100  0.24960  Biso   1.000  H
  C706     1.0000 0.31780  0.89580  0.31780  Biso   1.000  C
  C707     1.0000 0.29380  0.93290  0.29380  Biso   1.000  C
  C708     1.0000 0.25990  0.91540  0.25990  Biso   1.000  C
  H1548    1.0000 0.24440  0.94040  0.24440  Biso   1.000  H
  C709     1.0000 0.18130  0.62006  0.81870  Biso   1.000  C
  C710     1.0000 0.21770  0.62630  0.78230  Biso   1.000  C
  C711     1.0000 0.22720  0.67630  0.77280  Biso   1.000  C
  H1549    1.0000 0.25040  0.67900  0.74960  Biso   1.000  H
  C712     1.0000 0.18220  0.60420  0.81780  Biso   1.000  C
  C713     1.0000 0.20620  0.56710  0.79380  Biso   1.000  C
  C714     1.0000 0.24010  0.58460  0.75990  Biso   1.000  C
  H1550    1.0000 0.25560  0.55960  0.74440  Biso   1.000  H
  C715     1.0000 0.68130  0.12006  0.31870  Biso   1.000  C
  C716     1.0000 0.71770  0.12630  0.28230  Biso   1.000  C
  C717     1.0000 0.72720  0.17630  0.27280  Biso   1.000  C
  H1551    1.0000 0.75040  0.17900  0.24960  Biso   1.000  H
  C718     1.0000 0.68220  0.10420  0.31780  Biso   1.000  C
  C719     1.0000 0.70620  0.06710  0.29380  Biso   1.000  C
  C720     1.0000 0.74010  0.08460  0.25990  Biso   1.000  C
  H1552    1.0000 0.75560  0.05960  0.24440  Biso   1.000  H
  C721     1.0000 0.18130  0.18130  0.37994  Biso   1.000  C
  C722     1.0000 0.21770  0.21770  0.37370  Biso   1.000  C
  C723     1.0000 0.22720  0.22720  0.32370  Biso   1.000  C
  H1553    1.0000 0.25040  0.25040  0.32100  Biso   1.000  H
  C724     1.0000 0.18220  0.18220  0.39580  Biso   1.000  C
  C725     1.0000 0.20620  0.20620  0.43290  Biso   1.000  C
  C726     1.0000 0.24010  0.24010  0.41540  Biso   1.000  C
  H1554    1.0000 0.25560  0.25560  0.44040  Biso   1.000  H
  C727     1.0000 0.68130  0.68130  0.87994  Biso   1.000  C
  C728     1.0000 0.71770  0.71770  0.87370  Biso   1.000  C
  C729     1.0000 0.72720  0.72720  0.82370  Biso   1.000  C
  H1555    1.0000 0.75040  0.75040  0.82100  Biso   1.000  H
  C730     1.0000 0.68220  0.68220  0.89580  Biso   1.000  C
  C731     1.0000 0.70620  0.70620  0.93290  Biso   1.000  C
  C732     1.0000 0.74010  0.74010  0.91540  Biso   1.000  C
  H1556    1.0000 0.75560  0.75560  0.94040  Biso   1.000  H
  C733     1.0000 0.18130  0.81870  0.62006  Biso   1.000  C
  C734     1.0000 0.21770  0.78230  0.62630  Biso   1.000  C
  C735     1.0000 0.22720  0.77280  0.67630  Biso   1.000  C
  H1557    1.0000 0.25040  0.74960  0.67900  Biso   1.000  H
  C736     1.0000 0.18220  0.81780  0.60420  Biso   1.000  C
  C737     1.0000 0.20620  0.79380  0.56710  Biso   1.000  C
  C738     1.0000 0.24010  0.75990  0.58460  Biso   1.000  C
  H1558    1.0000 0.25560  0.74440  0.55960  Biso   1.000  H
  C739     1.0000 0.68130  0.31870  0.12006  Biso   1.000  C
  C740     1.0000 0.71770  0.28230  0.12630  Biso   1.000  C
  C741     1.0000 0.72720  0.27280  0.17630  Biso   1.000  C
  H1559    1.0000 0.75040  0.24960  0.17900  Biso   1.000  H
  C742     1.0000 0.68220  0.31780  0.10420  Biso   1.000  C
  C743     1.0000 0.70620  0.29380  0.06710  Biso   1.000  C
  C744     1.0000 0.74010  0.25990  0.08460  Biso   1.000  C
  H1560    1.0000 0.75560  0.24440  0.05960  Biso   1.000  H
  C745     1.0000 0.81870  0.81870  0.37994  Biso   1.000  C
  C746     1.0000 0.78230  0.78230  0.37370  Biso   1.000  C
  C747     1.0000 0.77280  0.77280  0.32370  Biso   1.000  C
  H1561    1.0000 0.74960  0.74960  0.32100  Biso   1.000  H
  C748     1.0000 0.81780  0.81780  0.39580  Biso   1.000  C
  C749     1.0000 0.79380  0.79380  0.43290  Biso   1.000  C
  C750     1.0000 0.75990  0.75990  0.41540  Biso   1.000  C
  H1562    1.0000 0.74440  0.74440  0.44040  Biso   1.000  H
  C751     1.0000 0.31870  0.31870  0.87994  Biso   1.000  C
  C752     1.0000 0.28230  0.28230  0.87370  Biso   1.000  C
  C753     1.0000 0.27280  0.27280  0.82370  Biso   1.000  C
  H1563    1.0000 0.24960  0.24960  0.82100  Biso   1.000  H
  C754     1.0000 0.31780  0.31780  0.89580  Biso   1.000  C
  C755     1.0000 0.29380  0.29380  0.93290  Biso   1.000  C
  C756     1.0000 0.25990  0.25990  0.91540  Biso   1.000  C
  H1564    1.0000 0.24440  0.24440  0.94040  Biso   1.000  H
  C757     1.0000 0.81870  0.18130  0.62006  Biso   1.000  C
  C758     1.0000 0.78230  0.21770  0.62630  Biso   1.000  C
  C759     1.0000 0.77280  0.22720  0.67630  Biso   1.000  C
  H1565    1.0000 0.74960  0.25040  0.67900  Biso   1.000  H
  C760     1.0000 0.81780  0.18220  0.60420  Biso   1.000  C
  C761     1.0000 0.79380  0.20620  0.56710  Biso   1.000  C
  C762     1.0000 0.75990  0.24010  0.58460  Biso   1.000  C
  H1566    1.0000 0.74440  0.25560  0.55960  Biso   1.000  H
  C763     1.0000 0.31870  0.68130  0.12006  Biso   1.000  C
  C764     1.0000 0.28230  0.71770  0.12630  Biso   1.000  C
  C765     1.0000 0.27280  0.72720  0.17630  Biso   1.000  C
  H1567    1.0000 0.24960  0.75040  0.17900  Biso   1.000  H
  C766     1.0000 0.31780  0.68220  0.10420  Biso   1.000  C
  C767     1.0000 0.29380  0.70620  0.06710  Biso   1.000  C
  C768     1.0000 0.25990  0.74010  0.08460  Biso   1.000  C
  H1568    1.0000 0.24440  0.75560  0.05960  Biso   1.000  H
  C769     1.0000 0.37994  0.18130  0.18130  Biso   1.000  C
  C770     1.0000 0.37370  0.21770  0.21770  Biso   1.000  C
  C771     1.0000 0.32370  0.22720  0.22720  Biso   1.000  C
  H1569    1.0000 0.32100  0.25040  0.25040  Biso   1.000  H
  C772     1.0000 0.39580  0.18220  0.18220  Biso   1.000  C
  C773     1.0000 0.43290  0.20620  0.20620  Biso   1.000  C
  C774     1.0000 0.41540  0.24010  0.24010  Biso   1.000  C
  H1570    1.0000 0.44040  0.25560  0.25560  Biso   1.000  H
  C775     1.0000 0.87994  0.68130  0.68130  Biso   1.000  C
  C776     1.0000 0.87370  0.71770  0.71770  Biso   1.000  C
  C777     1.0000 0.82370  0.72720  0.72720  Biso   1.000  C
  H1571    1.0000 0.82100  0.75040  0.75040  Biso   1.000  H
  C778     1.0000 0.89580  0.68220  0.68220  Biso   1.000  C
  C779     1.0000 0.93290  0.70620  0.70620  Biso   1.000  C
  C780     1.0000 0.91540  0.74010  0.74010  Biso   1.000  C
  H1572    1.0000 0.94040  0.75560  0.75560  Biso   1.000  H
  C781     1.0000 0.62006  0.18130  0.81870  Biso   1.000  C
  C782     1.0000 0.62630  0.21770  0.78230  Biso   1.000  C
  C783     1.0000 0.67630  0.22720  0.77280  Biso   1.000  C
  H1573    1.0000 0.67900  0.25040  0.74960  Biso   1.000  H
  C784     1.0000 0.60420  0.18220  0.81780  Biso   1.000  C
  C785     1.0000 0.56710  0.20620  0.79380  Biso   1.000  C
  C786     1.0000 0.58460  0.24010  0.75990  Biso   1.000  C
  H1574    1.0000 0.55960  0.25560  0.74440  Biso   1.000  H
  C787     1.0000 0.12006  0.68130  0.31870  Biso   1.000  C
  C788     1.0000 0.12630  0.71770  0.28230  Biso   1.000  C
  C789     1.0000 0.17630  0.72720  0.27280  Biso   1.000  C
  H1575    1.0000 0.17900  0.75040  0.24960  Biso   1.000  H
  C790     1.0000 0.10420  0.68220  0.31780  Biso   1.000  C
  C791     1.0000 0.06710  0.70620  0.29380  Biso   1.000  C
  C792     1.0000 0.08460  0.74010  0.25990  Biso   1.000  C
  H1576    1.0000 0.05960  0.75560  0.24440  Biso   1.000  H
  C793     1.0000 0.37994  0.81870  0.81870  Biso   1.000  C
  C794     1.0000 0.37370  0.78230  0.78230  Biso   1.000  C
  C795     1.0000 0.32370  0.77280  0.77280  Biso   1.000  C
  H1577    1.0000 0.32100  0.74960  0.74960  Biso   1.000  H
  C796     1.0000 0.39580  0.81780  0.81780  Biso   1.000  C
  C797     1.0000 0.43290  0.79380  0.79380  Biso   1.000  C
  C798     1.0000 0.41540  0.75990  0.75990  Biso   1.000  C
  H1578    1.0000 0.44040  0.74440  0.74440  Biso   1.000  H
  C799     1.0000 0.87994  0.31870  0.31870  Biso   1.000  C
  C800     1.0000 0.87370  0.28230  0.28230  Biso   1.000  C
  C801     1.0000 0.82370  0.27280  0.27280  Biso   1.000  C
  H1579    1.0000 0.82100  0.24960  0.24960  Biso   1.000  H
  C802     1.0000 0.89580  0.31780  0.31780  Biso   1.000  C
  C803     1.0000 0.93290  0.29380  0.29380  Biso   1.000  C
  C804     1.0000 0.91540  0.25990  0.25990  Biso   1.000  C
  H1580    1.0000 0.94040  0.24440  0.24440  Biso   1.000  H
  C805     1.0000 0.62006  0.81870  0.18130  Biso   1.000  C
  C806     1.0000 0.62630  0.78230  0.21770  Biso   1.000  C
  C807     1.0000 0.67630  0.77280  0.22720  Biso   1.000  C
  H1581    1.0000 0.67900  0.74960  0.25040  Biso   1.000  H
  C808     1.0000 0.60420  0.81780  0.18220  Biso   1.000  C
  C809     1.0000 0.56710  0.79380  0.20620  Biso   1.000  C
  C810     1.0000 0.58460  0.75990  0.24010  Biso   1.000  C
  H1582    1.0000 0.55960  0.74440  0.25560  Biso   1.000  H
  C811     1.0000 0.12006  0.31870  0.68130  Biso   1.000  C
  C812     1.0000 0.12630  0.28230  0.71770  Biso   1.000  C
  C813     1.0000 0.17630  0.27280  0.72720  Biso   1.000  C
  H1583    1.0000 0.17900  0.24960  0.75040  Biso   1.000  H
  C814     1.0000 0.10420  0.31780  0.68220  Biso   1.000  C
  C815     1.0000 0.06710  0.29380  0.70620  Biso   1.000  C
  C816     1.0000 0.08460  0.25990  0.74010  Biso   1.000  C
  H1584    1.0000 0.05960  0.24440  0.75560  Biso   1.000  H
  C817     1.0000 0.37994  0.18130  0.81870  Biso   1.000  C
  C818     1.0000 0.37370  0.21770  0.78230  Biso   1.000  C
  C819     1.0000 0.32370  0.22720  0.77280  Biso   1.000  C
  H1585    1.0000 0.32100  0.25040  0.74960  Biso   1.000  H
  C820     1.0000 0.39580  0.18220  0.81780  Biso   1.000  C
  C821     1.0000 0.43290  0.20620  0.79380  Biso   1.000  C
  C822     1.0000 0.41540  0.24010  0.75990  Biso   1.000  C
  H1586    1.0000 0.44040  0.25560  0.74440  Biso   1.000  H
  C823     1.0000 0.87994  0.68130  0.31870  Biso   1.000  C
  C824     1.0000 0.87370  0.71770  0.28230  Biso   1.000  C
  C825     1.0000 0.82370  0.72720  0.27280  Biso   1.000  C
  H1587    1.0000 0.82100  0.75040  0.24960  Biso   1.000  H
  C826     1.0000 0.89580  0.68220  0.31780  Biso   1.000  C
  C827     1.0000 0.93290  0.70620  0.29380  Biso   1.000  C
  C828     1.0000 0.91540  0.74010  0.25990  Biso   1.000  C
  H1588    1.0000 0.94040  0.75560  0.24440  Biso   1.000  H
  C829     1.0000 0.62006  0.81870  0.81870  Biso   1.000  C
  C830     1.0000 0.62630  0.78230  0.78230  Biso   1.000  C
  C831     1.0000 0.67630  0.77280  0.77280  Biso   1.000  C
  H1589    1.0000 0.67900  0.74960  0.74960  Biso   1.000  H
  C832     1.0000 0.60420  0.81780  0.81780  Biso   1.000  C
  C833     1.0000 0.56710  0.79380  0.79380  Biso   1.000  C
  C834     1.0000 0.58460  0.75990  0.75990  Biso   1.000  C
  H1590    1.0000 0.55960  0.74440  0.74440  Biso   1.000  H
  C835     1.0000 0.12006  0.31870  0.31870  Biso   1.000  C
  C836     1.0000 0.12630  0.28230  0.28230  Biso   1.000  C
  C837     1.0000 0.17630  0.27280  0.27280  Biso   1.000  C
  H1591    1.0000 0.17900  0.24960  0.24960  Biso   1.000  H
  C838     1.0000 0.10420  0.31780  0.31780  Biso   1.000  C
  C839     1.0000 0.06710  0.29380  0.29380  Biso   1.000  C
  C840     1.0000 0.08460  0.25990  0.25990  Biso   1.000  C
  H1592    1.0000 0.05960  0.24440  0.24440  Biso   1.000  H
  C841     1.0000 0.37994  0.81870  0.18130  Biso   1.000  C
  C842     1.0000 0.37370  0.78230  0.21770  Biso   1.000  C
  C843     1.0000 0.32370  0.77280  0.22720  Biso   1.000  C
  H1593    1.0000 0.32100  0.74960  0.25040  Biso   1.000  H
  C844     1.0000 0.39580  0.81780  0.18220  Biso   1.000  C
  C845     1.0000 0.43290  0.79380  0.20620  Biso   1.000  C
  C846     1.0000 0.41540  0.75990  0.24010  Biso   1.000  C
  H1594    1.0000 0.44040  0.74440  0.25560  Biso   1.000  H
  C847     1.0000 0.87994  0.31870  0.68130  Biso   1.000  C
  C848     1.0000 0.87370  0.28230  0.71770  Biso   1.000  C
  C849     1.0000 0.82370  0.27280  0.72720  Biso   1.000  C
  H1595    1.0000 0.82100  0.24960  0.75040  Biso   1.000  H
  C850     1.0000 0.89580  0.31780  0.68220  Biso   1.000  C
  C851     1.0000 0.93290  0.29380  0.70620  Biso   1.000  C
  C852     1.0000 0.91540  0.25990  0.74010  Biso   1.000  C
  H1596    1.0000 0.94040  0.24440  0.75560  Biso   1.000  H
  C853     1.0000 0.62006  0.18130  0.18130  Biso   1.000  C
  C854     1.0000 0.62630  0.21770  0.21770  Biso   1.000  C
  C855     1.0000 0.67630  0.22720  0.22720  Biso   1.000  C
  H1597    1.0000 0.67900  0.25040  0.25040  Biso   1.000  H
  C856     1.0000 0.60420  0.18220  0.18220  Biso   1.000  C
  C857     1.0000 0.56710  0.20620  0.20620  Biso   1.000  C
  C858     1.0000 0.58460  0.24010  0.24010  Biso   1.000  C
  H1598    1.0000 0.55960  0.25560  0.25560  Biso   1.000  H
  C859     1.0000 0.12006  0.68130  0.68130  Biso   1.000  C
  C860     1.0000 0.12630  0.71770  0.71770  Biso   1.000  C
  C861     1.0000 0.17630  0.72720  0.72720  Biso   1.000  C
  H1599    1.0000 0.17900  0.75040  0.75040  Biso   1.000  H
  C862     1.0000 0.10420  0.68220  0.68220  Biso   1.000  C
  C863     1.0000 0.06710  0.70620  0.70620  Biso   1.000  C
  C864     1.0000 0.08460  0.74010  0.74010  Biso   1.000  C
  H1600    1.0000 0.05960  0.75560  0.75560  Biso   1.000  H
  C865     1.0000 0.18130  0.18130  0.62006  Biso   1.000  C
  C866     1.0000 0.21770  0.21770  0.62630  Biso   1.000  C
  C867     1.0000 0.22720  0.22720  0.67630  Biso   1.000  C
  H1601    1.0000 0.25040  0.25040  0.67900  Biso   1.000  H
  C868     1.0000 0.18220  0.18220  0.60420  Biso   1.000  C
  C869     1.0000 0.20620  0.20620  0.56710  Biso   1.000  C
  C870     1.0000 0.24010  0.24010  0.58460  Biso   1.000  C
  H1602    1.0000 0.25560  0.25560  0.55960  Biso   1.000  H
  C871     1.0000 0.68130  0.68130  0.12006  Biso   1.000  C
  C872     1.0000 0.71770  0.71770  0.12630  Biso   1.000  C
  C873     1.0000 0.72720  0.72720  0.17630  Biso   1.000  C
  H1603    1.0000 0.75040  0.75040  0.17900  Biso   1.000  H
  C874     1.0000 0.68220  0.68220  0.10420  Biso   1.000  C
  C875     1.0000 0.70620  0.70620  0.06710  Biso   1.000  C
  C876     1.0000 0.74010  0.74010  0.08460  Biso   1.000  C
  H1604    1.0000 0.75560  0.75560  0.05960  Biso   1.000  H
  C877     1.0000 0.81870  0.18130  0.37994  Biso   1.000  C
  C878     1.0000 0.78230  0.21770  0.37370  Biso   1.000  C
  C879     1.0000 0.77280  0.22720  0.32370  Biso   1.000  C
  H1605    1.0000 0.74960  0.25040  0.32100  Biso   1.000  H
  C880     1.0000 0.81780  0.18220  0.39580  Biso   1.000  C
  C881     1.0000 0.79380  0.20620  0.43290  Biso   1.000  C
  C882     1.0000 0.75990  0.24010  0.41540  Biso   1.000  C
  H1606    1.0000 0.74440  0.25560  0.44040  Biso   1.000  H
  C883     1.0000 0.31870  0.68130  0.87994  Biso   1.000  C
  C884     1.0000 0.28230  0.71770  0.87370  Biso   1.000  C
  C885     1.0000 0.27280  0.72720  0.82370  Biso   1.000  C
  H1607    1.0000 0.24960  0.75040  0.82100  Biso   1.000  H
  C886     1.0000 0.31780  0.68220  0.89580  Biso   1.000  C
  C887     1.0000 0.29380  0.70620  0.93290  Biso   1.000  C
  C888     1.0000 0.25990  0.74010  0.91540  Biso   1.000  C
  H1608    1.0000 0.24440  0.75560  0.94040  Biso   1.000  H
  C889     1.0000 0.81870  0.81870  0.62006  Biso   1.000  C
  C890     1.0000 0.78230  0.78230  0.62630  Biso   1.000  C
  C891     1.0000 0.77280  0.77280  0.67630  Biso   1.000  C
  H1609    1.0000 0.74960  0.74960  0.67900  Biso   1.000  H
  C892     1.0000 0.81780  0.81780  0.60420  Biso   1.000  C
  C893     1.0000 0.79380  0.79380  0.56710  Biso   1.000  C
  C894     1.0000 0.75990  0.75990  0.58460  Biso   1.000  C
  H1610    1.0000 0.74440  0.74440  0.55960  Biso   1.000  H
  C895     1.0000 0.31870  0.31870  0.12006  Biso   1.000  C
  C896     1.0000 0.28230  0.28230  0.12630  Biso   1.000  C
  C897     1.0000 0.27280  0.27280  0.17630  Biso   1.000  C
  H1611    1.0000 0.24960  0.24960  0.17900  Biso   1.000  H
  C898     1.0000 0.31780  0.31780  0.10420  Biso   1.000  C
  C899     1.0000 0.29380  0.29380  0.06710  Biso   1.000  C
  C900     1.0000 0.25990  0.25990  0.08460  Biso   1.000  C
  H1612    1.0000 0.24440  0.24440  0.05960  Biso   1.000  H
  C901     1.0000 0.18130  0.81870  0.37994  Biso   1.000  C
  C902     1.0000 0.21770  0.78230  0.37370  Biso   1.000  C
  C903     1.0000 0.22720  0.77280  0.32370  Biso   1.000  C
  H1613    1.0000 0.25040  0.74960  0.32100  Biso   1.000  H
  C904     1.0000 0.18220  0.81780  0.39580  Biso   1.000  C
  C905     1.0000 0.20620  0.79380  0.43290  Biso   1.000  C
  C906     1.0000 0.24010  0.75990  0.41540  Biso   1.000  C
  H1614    1.0000 0.25560  0.74440  0.44040  Biso   1.000  H
  C907     1.0000 0.68130  0.31870  0.87994  Biso   1.000  C
  C908     1.0000 0.71770  0.28230  0.87370  Biso   1.000  C
  C909     1.0000 0.72720  0.27280  0.82370  Biso   1.000  C
  H1615    1.0000 0.75040  0.24960  0.82100  Biso   1.000  H
  C910     1.0000 0.68220  0.31780  0.89580  Biso   1.000  C
  C911     1.0000 0.70620  0.29380  0.93290  Biso   1.000  C
  C912     1.0000 0.74010  0.25990  0.91540  Biso   1.000  C
  H1616    1.0000 0.75560  0.24440  0.94040  Biso   1.000  H
  C913     1.0000 0.18130  0.37994  0.81870  Biso   1.000  C
  C914     1.0000 0.21770  0.37370  0.78230  Biso   1.000  C
  C915     1.0000 0.22720  0.32370  0.77280  Biso   1.000  C
  H1617    1.0000 0.25040  0.32100  0.74960  Biso   1.000  H
  C916     1.0000 0.18220  0.39580  0.81780  Biso   1.000  C
  C917     1.0000 0.20620  0.43290  0.79380  Biso   1.000  C
  C918     1.0000 0.24010  0.41540  0.75990  Biso   1.000  C
  H1618    1.0000 0.25560  0.44040  0.74440  Biso   1.000  H
  C919     1.0000 0.68130  0.87994  0.31870  Biso   1.000  C
  C920     1.0000 0.71770  0.87370  0.28230  Biso   1.000  C
  C921     1.0000 0.72720  0.82370  0.27280  Biso   1.000  C
  H1619    1.0000 0.75040  0.82100  0.24960  Biso   1.000  H
  C922     1.0000 0.68220  0.89580  0.31780  Biso   1.000  C
  C923     1.0000 0.70620  0.93290  0.29380  Biso   1.000  C
  C924     1.0000 0.74010  0.91540  0.25990  Biso   1.000  C
  H1620    1.0000 0.75560  0.94040  0.24440  Biso   1.000  H
  C925     1.0000 0.18130  0.62006  0.18130  Biso   1.000  C
  C926     1.0000 0.21770  0.62630  0.21770  Biso   1.000  C
  C927     1.0000 0.22720  0.67630  0.22720  Biso   1.000  C
  H1621    1.0000 0.25040  0.67900  0.25040  Biso   1.000  H
  C928     1.0000 0.18220  0.60420  0.18220  Biso   1.000  C
  C929     1.0000 0.20620  0.56710  0.20620  Biso   1.000  C
  C930     1.0000 0.24010  0.58460  0.24010  Biso   1.000  C
  H1622    1.0000 0.25560  0.55960  0.25560  Biso   1.000  H
  C931     1.0000 0.68130  0.12006  0.68130  Biso   1.000  C
  C932     1.0000 0.71770  0.12630  0.71770  Biso   1.000  C
  C933     1.0000 0.72720  0.17630  0.72720  Biso   1.000  C
  H1623    1.0000 0.75040  0.17900  0.75040  Biso   1.000  H
  C934     1.0000 0.68220  0.10420  0.68220  Biso   1.000  C
  C935     1.0000 0.70620  0.06710  0.70620  Biso   1.000  C
  C936     1.0000 0.74010  0.08460  0.74010  Biso   1.000  C
  H1624    1.0000 0.75560  0.05960  0.75560  Biso   1.000  H
  C937     1.0000 0.81870  0.37994  0.18130  Biso   1.000  C
  C938     1.0000 0.78230  0.37370  0.21770  Biso   1.000  C
  C939     1.0000 0.77280  0.32370  0.22720  Biso   1.000  C
  H1625    1.0000 0.74960  0.32100  0.25040  Biso   1.000  H
  C940     1.0000 0.81780  0.39580  0.18220  Biso   1.000  C
  C941     1.0000 0.79380  0.43290  0.20620  Biso   1.000  C
  C942     1.0000 0.75990  0.41540  0.24010  Biso   1.000  C
  H1626    1.0000 0.74440  0.44040  0.25560  Biso   1.000  H
  C943     1.0000 0.31870  0.87994  0.68130  Biso   1.000  C
  C944     1.0000 0.28230  0.87370  0.71770  Biso   1.000  C
  C945     1.0000 0.27280  0.82370  0.72720  Biso   1.000  C
  H1627    1.0000 0.24960  0.82100  0.75040  Biso   1.000  H
  C946     1.0000 0.31780  0.89580  0.68220  Biso   1.000  C
  C947     1.0000 0.29380  0.93290  0.70620  Biso   1.000  C
  C948     1.0000 0.25990  0.91540  0.74010  Biso   1.000  C
  H1628    1.0000 0.24440  0.94040  0.75560  Biso   1.000  H
  C949     1.0000 0.81870  0.62006  0.81870  Biso   1.000  C
  C950     1.0000 0.78230  0.62630  0.78230  Biso   1.000  C
  C951     1.0000 0.77280  0.67630  0.77280  Biso   1.000  C
  H1629    1.0000 0.74960  0.67900  0.74960  Biso   1.000  H
  C952     1.0000 0.81780  0.60420  0.81780  Biso   1.000  C
  C953     1.0000 0.79380  0.56710  0.79380  Biso   1.000  C
  C954     1.0000 0.75990  0.58460  0.75990  Biso   1.000  C
  H1630    1.0000 0.74440  0.55960  0.74440  Biso   1.000  H
  C955     1.0000 0.31870  0.12006  0.31870  Biso   1.000  C
  C956     1.0000 0.28230  0.12630  0.28230  Biso   1.000  C
  C957     1.0000 0.27280  0.17630  0.27280  Biso   1.000  C
  H1631    1.0000 0.24960  0.17900  0.24960  Biso   1.000  H
  C958     1.0000 0.31780  0.10420  0.31780  Biso   1.000  C
  C959     1.0000 0.29380  0.06710  0.29380  Biso   1.000  C
  C960     1.0000 0.25990  0.08460  0.25990  Biso   1.000  C
  H1632    1.0000 0.24440  0.05960  0.24440  Biso   1.000  H
  O97      1.0000 0.23820  0.50000  0.23820  Biso   1.000  O
  O98      1.0000 0.73820  0.00000  0.73820  Biso   1.000  O
  O99      1.0000 0.76180  0.50000  0.23820  Biso   1.000  O
  O100     1.0000 0.26180  0.00000  0.73820  Biso   1.000  O
  O101     1.0000 0.76180  0.50000  0.76180  Biso   1.000  O
  O102     1.0000 0.26180  0.00000  0.26180  Biso   1.000  O
  O103     1.0000 0.23820  0.50000  0.76180  Biso   1.000  O
  O104     1.0000 0.73820  0.00000  0.26180  Biso   1.000  O
  O105     1.0000 0.23820  0.23820  0.50000  Biso   1.000  O
  O106     1.0000 0.73820  0.73820  0.00000  Biso   1.000  O
  O107     1.0000 0.23820  0.76180  0.50000  Biso   1.000  O
  O108     1.0000 0.73820  0.26180  0.00000  Biso   1.000  O
  O109     1.0000 0.76180  0.76180  0.50000  Biso   1.000  O
  O110     1.0000 0.26180  0.26180  0.00000  Biso   1.000  O
  O111     1.0000 0.76180  0.23820  0.50000  Biso   1.000  O
  O112     1.0000 0.26180  0.73820  0.00000  Biso   1.000  O
  O113     1.0000 0.50000  0.23820  0.23820  Biso   1.000  O
  O114     1.0000 0.00000  0.73820  0.73820  Biso   1.000  O
  O115     1.0000 0.50000  0.23820  0.76180  Biso   1.000  O
  O116     1.0000 0.00000  0.73820  0.26180  Biso   1.000  O
  O117     1.0000 0.50000  0.76180  0.76180  Biso   1.000  O
  O118     1.0000 0.00000  0.26180  0.26180  Biso   1.000  O
  O119     1.0000 0.50000  0.76180  0.23820  Biso   1.000  O
  O120     1.0000 0.00000  0.26180  0.73820  Biso   1.000  O
  H1633    1.0000 0.25430  0.50000  0.29960  Biso   1.000  H
  H1634    1.0000 0.75430  0.00000  0.79960  Biso   1.000  H
  H1635    1.0000 0.74570  0.50000  0.29960  Biso   1.000  H
  H1636    1.0000 0.24570  0.00000  0.79960  Biso   1.000  H
  H1637    1.0000 0.74570  0.50000  0.70040  Biso   1.000  H
  H1638    1.0000 0.24570  0.00000  0.20040  Biso   1.000  H
  H1639    1.0000 0.25430  0.50000  0.70040  Biso   1.000  H
  H1640    1.0000 0.75430  0.00000  0.20040  Biso   1.000  H
  H1641    1.0000 0.29960  0.25430  0.50000  Biso   1.000  H
  H1642    1.0000 0.79960  0.75430  0.00000  Biso   1.000  H
  H1643    1.0000 0.29960  0.74570  0.50000  Biso   1.000  H
  H1644    1.0000 0.79960  0.24570  0.00000  Biso   1.000  H
  H1645    1.0000 0.70040  0.74570  0.50000  Biso   1.000  H
  H1646    1.0000 0.20040  0.24570  0.00000  Biso   1.000  H
  H1647    1.0000 0.70040  0.25430  0.50000  Biso   1.000  H
  H1648    1.0000 0.20040  0.75430  0.00000  Biso   1.000  H
  H1649    1.0000 0.50000  0.29960  0.25430  Biso   1.000  H
  H1650    1.0000 0.00000  0.79960  0.75430  Biso   1.000  H
  H1651    1.0000 0.50000  0.29960  0.74570  Biso   1.000  H
  H1652    1.0000 0.00000  0.79960  0.24570  Biso   1.000  H
  H1653    1.0000 0.50000  0.70040  0.74570  Biso   1.000  H
  H1654    1.0000 0.00000  0.20040  0.24570  Biso   1.000  H
  H1655    1.0000 0.50000  0.70040  0.25430  Biso   1.000  H
  H1656    1.0000 0.00000  0.20040  0.75430  Biso   1.000  H
  H1657    1.0000 0.50000  0.25430  0.70040  Biso   1.000  H
  H1658    1.0000 0.00000  0.75430  0.20040  Biso   1.000  H
  H1659    1.0000 0.50000  0.74570  0.70040  Biso   1.000  H
  H1660    1.0000 0.00000  0.24570  0.20040  Biso   1.000  H
  H1661    1.0000 0.50000  0.74570  0.29960  Biso   1.000  H
  H1662    1.0000 0.00000  0.24570  0.79960  Biso   1.000  H
  H1663    1.0000 0.50000  0.25430  0.29960  Biso   1.000  H
  H1664    1.0000 0.00000  0.75430  0.79960  Biso   1.000  H
  H1665    1.0000 0.25430  0.29960  0.50000  Biso   1.000  H
  H1666    1.0000 0.75430  0.79960  0.00000  Biso   1.000  H
  H1667    1.0000 0.74570  0.29960  0.50000  Biso   1.000  H
  H1668    1.0000 0.24570  0.79960  0.00000  Biso   1.000  H
  H1669    1.0000 0.74570  0.70040  0.50000  Biso   1.000  H
  H1670    1.0000 0.24570  0.20040  0.00000  Biso   1.000  H
  H1671    1.0000 0.25430  0.70040  0.50000  Biso   1.000  H
  H1672    1.0000 0.75430  0.20040  0.00000  Biso   1.000  H
  H1673    1.0000 0.29960  0.50000  0.74570  Biso   1.000  H
  H1674    1.0000 0.79960  0.00000  0.24570  Biso   1.000  H
  H1675    1.0000 0.29960  0.50000  0.25430  Biso   1.000  H
  H1676    1.0000 0.79960  0.00000  0.75430  Biso   1.000  H
  H1677    1.0000 0.70040  0.50000  0.25430  Biso   1.000  H
  H1678    1.0000 0.20040  0.00000  0.75430  Biso   1.000  H
  H1679    1.0000 0.70040  0.50000  0.74570  Biso   1.000  H
  H1680    1.0000 0.20040  0.00000  0.24570  Biso   1.000  H
