data_image0
_cell_length_a       18.515
_cell_length_b       57.377
_cell_length_c       48.822
_cell_angle_alpha    90
_cell_angle_beta     90
_cell_angle_gamma    90

_symmetry_space_group_name_H-M    "P 1"
_symmetry_int_tables_number       1

loop_
  _symmetry_equiv_pos_as_xyz
  'x, y, z'

loop_
  _atom_site_label
  _atom_site_occupancy
  _atom_site_fract_x
  _atom_site_fract_y
  _atom_site_fract_z
  _atom_site_thermal_displace_type
  _atom_site_B_iso_or_equiv
  _atom_site_type_symbol
  C1       1.0000 0.07500  0.28240  0.04410  Biso   1.000  C
  H1       1.0000 0.10020  0.28710  0.06080  Biso   1.000  H
  H2       1.0000 0.02840  0.29070  0.04310  Biso   1.000  H
  H3       1.0000 0.10400  0.28630  0.02810  Biso   1.000  H
  C2       1.0000 0.14300  0.34120  0.01770  Biso   1.000  C
  H4       1.0000 0.10370  0.35270  0.01670  Biso   1.000  H
  H5       1.0000 0.18780  0.34890  0.02440  Biso   1.000  H
  C3       1.0000 0.15600  0.32880  0.98950  Biso   1.000  C
  H6       1.0000 0.12400  0.31510  0.98730  Biso   1.000  H
  H7       1.0000 0.20680  0.32410  0.98710  Biso   1.000  H
  C4       1.0000 0.13400  0.34910  0.96960  Biso   1.000  C
  H8       1.0000 0.17790  0.35570  0.96120  Biso   1.000  H
  H9       1.0000 0.10920  0.36140  0.97990  Biso   1.000  H
  H10      1.0000 0.10230  0.34310  0.95530  Biso   1.000  H
  C5       1.0000 0.66070  0.35279  0.00658  Biso   1.000  C
  C6       1.0000 0.65650  0.33945  0.03031  Biso   1.000  C
  C7       1.0000 0.64180  0.35317  0.05240  Biso   1.000  C
  H11      1.0000 0.63820  0.34700  0.07040  Biso   1.000  H
  C8       1.0000 0.63290  0.37552  0.04728  Biso   1.000  C
  C9       1.0000 0.96230  0.39058  0.94027  Biso   1.000  C
  C10      1.0000 0.93590  0.37295  0.96221  Biso   1.000  C
  C11      1.0000 0.93220  0.34989  0.95991  Biso   1.000  C
  H12      1.0000 0.94000  0.34160  0.94330  Biso   1.000  H
  C12      1.0000 0.91450  0.33862  0.98630  Biso   1.000  C
  C13      1.0000 0.91060  0.35551  0.00597  Biso   1.000  C
  C14      1.0000 0.89540  0.35229  0.03563  Biso   1.000  C
  C15      1.0000 0.93170  0.34030  0.05500  Biso   1.000  C
  C16      1.0000 0.89330  0.34008  0.08023  Biso   1.000  C
  H13      1.0000 0.90770  0.33050  0.09510  Biso   1.000  H
  C17      1.0000 0.83780  0.35367  0.08189  Biso   1.000  C
  C18      1.0000 0.78990  0.35798  0.10623  Biso   1.000  C
  C19      1.0000 0.90580  0.31316  0.98840  Biso   1.000  C
  H14      1.0000 0.89440  0.30890  0.00760  Biso   1.000  H
  H15      1.0000 0.95170  0.30540  0.98340  Biso   1.000  H
  C20      1.0000 0.84580  0.30450  0.96970  Biso   1.000  C
  H16      1.0000 0.79860  0.31120  0.97520  Biso   1.000  H
  H17      1.0000 0.85560  0.30880  0.95040  Biso   1.000  H
  C21      1.0000 0.84620  0.27822  0.97340  Biso   1.000  C
  H18      1.0000 0.89190  0.27140  0.96650  Biso   1.000  H
  H19      1.0000 0.84050  0.27400  0.99290  Biso   1.000  H
  C22      1.0000 0.78260  0.26955  0.95677  Biso   1.000  C
  H20      1.0000 0.77120  0.25320  0.96150  Biso   1.000  H
  H21      1.0000 0.73930  0.27930  0.96020  Biso   1.000  H
  C23      1.0000 0.80550  0.27140  0.92740  Biso   1.000  C
  H22      1.0000 0.84480  0.26020  0.92340  Biso   1.000  H
  H23      1.0000 0.82300  0.28740  0.92330  Biso   1.000  H
  C24      1.0000 0.73940  0.26590  0.91050  Biso   1.000  C
  H24      1.0000 0.75110  0.26730  0.89100  Biso   1.000  H
  H25      1.0000 0.70070  0.27680  0.91510  Biso   1.000  H
  H26      1.0000 0.72350  0.24990  0.91450  Biso   1.000  H
  C25      1.0000 0.99820  0.32540  0.04800  Biso   1.000  C
  H27      1.0000 0.00050  0.32430  0.02780  Biso   1.000  H
  H28      1.0000 0.98850  0.30950  0.05490  Biso   1.000  H
  C26      1.0000 0.07500  0.33240  0.05810  Biso   1.000  C
  H29      1.0000 0.08480  0.32630  0.07670  Biso   1.000  H
  H30      1.0000 0.08220  0.34950  0.05780  Biso   1.000  H
  C27      1.0000 0.12240  0.31980  0.03600  Biso   1.000  C
  H31      1.0000 0.16550  0.31230  0.04420  Biso   1.000  H
  H32      1.0000 0.09440  0.30810  0.02560  Biso   1.000  H
  C28      1.0000 0.78290  0.34590  0.90780  Biso   1.000  C
  C29      1.0000 0.72680  0.34288  0.93351  Biso   1.000  C
  C30      1.0000 0.67740  0.32730  0.93669  Biso   1.000  C
  H33      1.0000 0.66520  0.31600  0.92330  Biso   1.000  H
  C31      1.0000 0.64300  0.32930  0.96285  Biso   1.000  C
  C32      1.0000 0.67810  0.34610  0.97852  Biso   1.000  C
  C33      1.0000 0.60910  0.39437  0.06448  Biso   1.000  C
  C34      1.0000 0.58250  0.31440  0.97110  Biso   1.000  C
  H34      1.0000 0.57270  0.31670  0.99090  Biso   1.000  H
  H35      1.0000 0.59590  0.29790  0.96830  Biso   1.000  H
  C35      1.0000 0.51430  0.31970  0.95490  Biso   1.000  C
  H36      1.0000 0.47620  0.30800  0.95880  Biso   1.000  H
  H37      1.0000 0.52430  0.31970  0.93500  Biso   1.000  H
  C36      1.0000 0.49160  0.34380  0.96460  Biso   1.000  C
  H38      1.0000 0.47110  0.34310  0.98330  Biso   1.000  H
  H39      1.0000 0.53330  0.35460  0.96460  Biso   1.000  H
  C37      1.0000 0.43470  0.35160  0.94400  Biso   1.000  C
  H40      1.0000 0.40220  0.36350  0.95220  Biso   1.000  H
  H41      1.0000 0.45760  0.35830  0.92740  Biso   1.000  H
  C38      1.0000 0.39350  0.32950  0.93710  Biso   1.000  C
  H42      1.0000 0.34270  0.33300  0.93230  Biso   1.000  H
  H43      1.0000 0.39410  0.31840  0.95270  Biso   1.000  H
  C39      1.0000 0.43400  0.31940  0.91260  Biso   1.000  C
  H44      1.0000 0.40300  0.30810  0.90320  Biso   1.000  H
  H45      1.0000 0.47800  0.31170  0.91890  Biso   1.000  H
  H46      1.0000 0.44640  0.33200  0.89990  Biso   1.000  H
  C40      1.0000 0.67890  0.31325  0.03305  Biso   1.000  C
  H47      1.0000 0.63620  0.30420  0.03910  Biso   1.000  H
  H48      1.0000 0.69290  0.30740  0.01470  Biso   1.000  H
  C41      1.0000 0.74050  0.30848  0.05286  Biso   1.000  C
  H49      1.0000 0.78610  0.31530  0.04600  Biso   1.000  H
  H50      1.0000 0.72990  0.31520  0.07110  Biso   1.000  H
  C42      1.0000 0.74650  0.28239  0.05460  Biso   1.000  C
  H51      1.0000 0.73690  0.27510  0.03660  Biso   1.000  H
  H52      1.0000 0.71200  0.27600  0.06820  Biso   1.000  H
  C43      1.0000 0.82350  0.27810  0.06350  Biso   1.000  C
  H53      1.0000 0.84660  0.26620  0.05170  Biso   1.000  H
  H54      1.0000 0.85210  0.29260  0.06250  Biso   1.000  H
  C44      1.0000 0.81820  0.26950  0.09260  Biso   1.000  C
  H55      1.0000 0.77390  0.27540  0.10160  Biso   1.000  H
  H56      1.0000 0.86070  0.27450  0.10350  Biso   1.000  H
  C45      1.0000 0.81600  0.24310  0.08980  Biso   1.000  C
  H57      1.0000 0.80800  0.23600  0.10780  Biso   1.000  H
  H58      1.0000 0.86170  0.23750  0.08220  Biso   1.000  H
  H59      1.0000 0.77620  0.23870  0.07750  Biso   1.000  H
  C46      1.0000 0.04410  0.39150  0.85080  Biso   1.000  C
  C47      1.0000 0.15450  0.41331  0.79084  Biso   1.000  C
  C48      1.0000 0.07750  0.39685  0.82203  Biso   1.000  C
  C49      1.0000 0.12720  0.41360  0.81740  Biso   1.000  C
  H60      1.0000 0.14200  0.42450  0.83090  Biso   1.000  H
  C50      1.0000 0.11930  0.39835  0.77405  Biso   1.000  C
  C51      1.0000 0.11890  0.39297  0.74547  Biso   1.000  C
  C52      1.0000 0.12090  0.40700  0.72303  Biso   1.000  C
  C53      1.0000 0.12850  0.39566  0.69729  Biso   1.000  C
  H61      1.0000 0.12830  0.40300  0.67980  Biso   1.000  H
  C54      1.0000 0.13620  0.37231  0.70213  Biso   1.000  C
  C55      1.0000 0.15220  0.35389  0.68145  Biso   1.000  C
  C56      1.0000 0.22010  0.42670  0.78000  Biso   1.000  C
  H62      1.0000 0.20750  0.44350  0.77960  Biso   1.000  H
  H63      1.0000 0.22880  0.42180  0.76090  Biso   1.000  H
  C57      1.0000 0.29160  0.42400  0.79610  Biso   1.000  C
  H64      1.0000 0.28280  0.42230  0.81600  Biso   1.000  H
  H65      1.0000 0.32430  0.43740  0.79290  Biso   1.000  H
  C58      1.0000 0.32310  0.40110  0.78360  Biso   1.000  C
  H66      1.0000 0.35950  0.40440  0.76930  Biso   1.000  H
  H67      1.0000 0.28460  0.39100  0.77600  Biso   1.000  H
  C59      1.0000 0.35820  0.39010  0.80990  Biso   1.000  C
  H68      1.0000 0.35510  0.40070  0.82580  Biso   1.000  H
  H69      1.0000 0.40920  0.38570  0.80670  Biso   1.000  H
  C60      1.0000 0.30900  0.36810  0.81350  Biso   1.000  C
  H70      1.0000 0.25960  0.37080  0.80590  Biso   1.000  H
  H71      1.0000 0.32990  0.35410  0.80490  Biso   1.000  H
  C61      1.0000 0.30700  0.36610  0.84550  Biso   1.000  C
  H72      1.0000 0.27390  0.35360  0.85090  Biso   1.000  H
  H73      1.0000 0.29060  0.38090  0.85340  Biso   1.000  H
  H74      1.0000 0.35570  0.36250  0.85220  Biso   1.000  H
  C62      1.0000 0.10880  0.43370  0.72330  Biso   1.000  C
  H75      1.0000 0.10560  0.43920  0.74250  Biso   1.000  H
  H76      1.0000 0.15060  0.44150  0.71460  Biso   1.000  H
  C63      1.0000 0.03970  0.44038  0.70810  Biso   1.000  C
  H77      1.0000 0.04100  0.43460  0.68900  Biso   1.000  H
  H78      1.0000 0.99670  0.43380  0.71740  Biso   1.000  H
  C64      1.0000 0.03820  0.46671  0.70870  Biso   1.000  C
  H79      1.0000 0.04960  0.47250  0.72730  Biso   1.000  H
  H80      1.0000 0.07390  0.47320  0.69570  Biso   1.000  H
  C65      1.0000 0.96300  0.47370  0.70060  Biso   1.000  C
  H81      1.0000 0.95520  0.49050  0.70440  Biso   1.000  H
  H82      1.0000 0.92690  0.46460  0.71110  Biso   1.000  H
  C66      1.0000 0.95580  0.46880  0.67040  Biso   1.000  C
  H83      1.0000 0.94960  0.45190  0.66700  Biso   1.000  H
  H84      1.0000 0.99880  0.47440  0.66020  Biso   1.000  H
  C67      1.0000 0.88850  0.48230  0.66190  Biso   1.000  C
  H85      1.0000 0.87790  0.47930  0.64260  Biso   1.000  H
  H86      1.0000 0.89690  0.49900  0.66460  Biso   1.000  H
  H87      1.0000 0.84750  0.47740  0.67320  Biso   1.000  H
  C68      1.0000 0.94770  0.31613  0.88080  Biso   1.000  C
  C69      1.0000 0.97140  0.29631  0.89260  Biso   1.000  C
  C70      1.0000 0.02050  0.29710  0.91270  Biso   1.000  C
  H88      1.0000 0.03240  0.31170  0.92070  Biso   1.000  H
  C71      1.0000 0.06170  0.27300  0.92430  Biso   1.000  C
  C72      1.0000 0.02550  0.25728  0.90420  Biso   1.000  C
  C73      1.0000 0.03900  0.23222  0.90420  Biso   1.000  C
  C74      1.0000 0.00820  0.21470  0.91540  Biso   1.000  C
  C75      1.0000 0.03120  0.19201  0.90730  Biso   1.000  C
  H89      1.0000 0.01240  0.17780  0.91430  Biso   1.000  H
  C76      1.0000 0.08390  0.19382  0.88828  Biso   1.000  C
  C77      1.0000 0.12630  0.17442  0.87490  Biso   1.000  C
  C78      1.0000 0.10410  0.27300  0.95090  Biso   1.000  C
  H90      1.0000 0.10900  0.28890  0.95860  Biso   1.000  H
  H91      1.0000 0.15250  0.26590  0.94860  Biso   1.000  H
  C79      1.0000 0.05350  0.25750  0.96840  Biso   1.000  C
  H92      1.0000 0.05170  0.24130  0.96140  Biso   1.000  H
  H93      1.0000 0.00390  0.26390  0.96920  Biso   1.000  H
  C80      1.0000 0.09140  0.25860  0.99710  Biso   1.000  C
  H94      1.0000 0.11000  0.27440  0.00120  Biso   1.000  H
  H95      1.0000 0.13110  0.24710  0.99870  Biso   1.000  H
  C81      1.0000 0.02570  0.25200  0.01590  Biso   1.000  C
  H96      1.0000 0.98420  0.26270  0.01310  Biso   1.000  H
  H97      1.0000 0.00990  0.23570  0.01300  Biso   1.000  H
  C82      1.0000 0.06070  0.25550  0.04480  Biso   1.000  C
  H98      1.0000 0.10620  0.24660  0.04660  Biso   1.000  H
  H99      1.0000 0.02720  0.25110  0.05970  Biso   1.000  H
  C83      1.0000 0.94110  0.21550  0.93350  Biso   1.000  C
  H100     1.0000 0.90500  0.20580  0.92380  Biso   1.000  H
  H101     1.0000 0.92350  0.23180  0.93190  Biso   1.000  H
  C84      1.0000 0.93200  0.20930  0.96420  Biso   1.000  C
  H102     1.0000 0.96220  0.21930  0.97600  Biso   1.000  H
  H103     1.0000 0.94380  0.19270  0.96770  Biso   1.000  H
  C85      1.0000 0.85020  0.21420  0.96830  Biso   1.000  C
  H104     1.0000 0.84100  0.23100  0.97150  Biso   1.000  H
  H105     1.0000 0.82130  0.20890  0.95240  Biso   1.000  H
  C86      1.0000 0.83400  0.19950  0.99420  Biso   1.000  C
  H106     1.0000 0.86530  0.18560  0.99530  Biso   1.000  H
  H107     1.0000 0.78260  0.19460  0.99480  Biso   1.000  H
  C87      1.0000 0.85200  0.21740  0.01720  Biso   1.000  C
  H108     1.0000 0.86590  0.23270  0.00960  Biso   1.000  H
  H109     1.0000 0.88990  0.21150  0.02960  Biso   1.000  H
  C88      1.0000 0.77700  0.21870  0.03200  Biso   1.000  C
  H110     1.0000 0.77020  0.23430  0.03960  Biso   1.000  H
  H111     1.0000 0.77560  0.20710  0.04680  Biso   1.000  H
  H112     1.0000 0.73840  0.21530  0.01880  Biso   1.000  H
  C89      1.0000 0.67140  0.43595  0.12990  Biso   1.000  C
  C90      1.0000 0.71540  0.45669  0.14300  Biso   1.000  C
  C91      1.0000 0.76360  0.45488  0.16170  Biso   1.000  C
  H113     1.0000 0.77600  0.44080  0.17080  Biso   1.000  H
  C92      1.0000 0.79550  0.47676  0.16670  Biso   1.000  C
  C93      1.0000 0.76580  0.49519  0.15161  Biso   1.000  C
  C94      1.0000 0.78600  0.51933  0.14960  Biso   1.000  C
  C95      1.0000 0.74540  0.53920  0.15840  Biso   1.000  C
  C96      1.0000 0.84010  0.55709  0.13755  Biso   1.000  C
  C97      1.0000 0.77630  0.55974  0.15190  Biso   1.000  C
  H114     1.0000 0.75630  0.57440  0.15660  Biso   1.000  H
  C98      1.0000 0.88230  0.57409  0.12530  Biso   1.000  C
  C99      1.0000 0.84700  0.48110  0.18880  Biso   1.000  C
  H115     1.0000 0.86420  0.49730  0.18600  Biso   1.000  H
  H116     1.0000 0.88880  0.47090  0.18500  Biso   1.000  H
  C100     1.0000 0.83250  0.47880  0.21947  Biso   1.000  C
  H117     1.0000 0.87660  0.48240  0.23020  Biso   1.000  H
  H118     1.0000 0.81620  0.46290  0.22410  Biso   1.000  H
  C101     1.0000 0.77290  0.49670  0.22529  Biso   1.000  C
  H119     1.0000 0.78690  0.51230  0.21860  Biso   1.000  H
  H120     1.0000 0.72700  0.49200  0.21650  Biso   1.000  H
  C102     1.0000 0.76570  0.49660  0.25652  Biso   1.000  C
  H121     1.0000 0.75360  0.48080  0.26330  Biso   1.000  H
  H122     1.0000 0.81120  0.50170  0.26530  Biso   1.000  H
  C103     1.0000 0.70490  0.51360  0.26260  Biso   1.000  C
  H123     1.0000 0.71820  0.52960  0.25680  Biso   1.000  H
  H124     1.0000 0.66010  0.50900  0.25290  Biso   1.000  H
  C104     1.0000 0.69430  0.51250  0.29340  Biso   1.000  C
  H125     1.0000 0.65620  0.52340  0.29880  Biso   1.000  H
  H126     1.0000 0.73960  0.51670  0.30260  Biso   1.000  H
  H127     1.0000 0.68050  0.49660  0.29870  Biso   1.000  H
  C105     1.0000 0.67700  0.53680  0.16880  Biso   1.000  C
  H128     1.0000 0.66640  0.52010  0.17250  Biso   1.000  H
  H129     1.0000 0.64080  0.54270  0.15560  Biso   1.000  H
  C106     1.0000 0.67460  0.55090  0.19540  Biso   1.000  C
  H130     1.0000 0.68580  0.56750  0.19200  Biso   1.000  H
  H131     1.0000 0.70870  0.54460  0.20920  Biso   1.000  H
  C107     1.0000 0.59550  0.54760  0.20460  Biso   1.000  C
  H132     1.0000 0.56740  0.56220  0.20240  Biso   1.000  H
  H133     1.0000 0.57160  0.53500  0.19410  Biso   1.000  H
  C108     1.0000 0.60400  0.54100  0.23500  Biso   1.000  C
  H134     1.0000 0.60280  0.52390  0.23760  Biso   1.000  H
  H135     1.0000 0.65000  0.54720  0.24260  Biso   1.000  H
  C109     1.0000 0.68010  0.36496  0.19161  Biso   1.000  C
  C110     1.0000 0.65830  0.38246  0.21125  Biso   1.000  C
  C111     1.0000 0.65960  0.40524  0.20525  Biso   1.000  C
  H136     1.0000 0.67270  0.41180  0.18810  Biso   1.000  H
  C112     1.0000 0.62160  0.40390  0.25198  Biso   1.000  C
  C113     1.0000 0.60690  0.40952  0.28077  Biso   1.000  C
  C114     1.0000 0.54240  0.40791  0.32506  Biso   1.000  C
  C115     1.0000 0.49110  0.40510  0.34950  Biso   1.000  C
  C116     1.0000 0.61960  0.44515  0.22938  Biso   1.000  C
  H137     1.0000 0.60630  0.45040  0.24800  Biso   1.000  H
  H138     1.0000 0.66400  0.45360  0.22400  Biso   1.000  H
  C117     1.0000 0.55940  0.45165  0.20986  Biso   1.000  C
  H139     1.0000 0.57030  0.44570  0.19130  Biso   1.000  H
  H140     1.0000 0.51330  0.44460  0.21600  Biso   1.000  H
  C118     1.0000 0.48440  0.48344  0.19434  Biso   1.000  C
  H141     1.0000 0.44480  0.47310  0.20040  Biso   1.000  H
  H142     1.0000 0.47030  0.49980  0.19820  Biso   1.000  H
  C119     1.0000 0.42880  0.48650  0.14980  Biso   1.000  C
  H143     1.0000 0.43590  0.48510  0.13000  Biso   1.000  H
  H144     1.0000 0.41550  0.50260  0.15430  Biso   1.000  H
  H145     1.0000 0.39030  0.47590  0.15570  Biso   1.000  H
  C120     1.0000 0.76870  0.43020  0.31250  Biso   1.000  C
  H146     1.0000 0.75290  0.43080  0.33190  Biso   1.000  H
  H147     1.0000 0.78390  0.41410  0.30810  Biso   1.000  H
  C121     1.0000 0.83010  0.44720  0.30760  Biso   1.000  C
  H148     1.0000 0.84940  0.45310  0.32510  Biso   1.000  H
  H149     1.0000 0.81380  0.46050  0.29630  Biso   1.000  H
  C122     1.0000 0.63660  0.41861  0.23026  Biso   1.000  C
  C123     1.0000 0.63710  0.42333  0.29775  Biso   1.000  C
  C124     1.0000 0.59530  0.42365  0.32497  Biso   1.000  C
  H150     1.0000 0.60580  0.43380  0.33980  Biso   1.000  H
  C125     1.0000 0.55310  0.47754  0.20937  Biso   1.000  C
  H151     1.0000 0.59520  0.48450  0.19990  Biso   1.000  H
  H152     1.0000 0.55140  0.48380  0.22830  Biso   1.000  H
  C126     1.0000 0.49800  0.48030  0.16440  Biso   1.000  C
  H153     1.0000 0.51150  0.46390  0.16050  Biso   1.000  H
  H154     1.0000 0.53780  0.49050  0.15830  Biso   1.000  H
  C127     1.0000 0.70790  0.43790  0.29370  Biso   1.000  C
  H155     1.0000 0.72400  0.43640  0.27440  Biso   1.000  H
  H156     1.0000 0.69720  0.45460  0.29710  Biso   1.000  H
  C128     1.0000 0.88660  0.43290  0.29250  Biso   1.000  C
  H157     1.0000 0.86800  0.42760  0.27450  Biso   1.000  H
  H158     1.0000 0.90080  0.41910  0.30340  Biso   1.000  H
  C129     1.0000 0.95020  0.44940  0.28890  Biso   1.000  C
  H159     1.0000 0.95300  0.46050  0.30430  Biso   1.000  H
  H160     1.0000 0.99610  0.44060  0.28780  Biso   1.000  H
  C130     1.0000 0.93500  0.46210  0.26220  Biso   1.000  C
  H161     1.0000 0.97500  0.47300  0.25850  Biso   1.000  H
  H162     1.0000 0.89000  0.47070  0.26370  Biso   1.000  H
  H163     1.0000 0.93200  0.45080  0.24730  Biso   1.000  H
  O1       1.0000 0.96710  0.41075  0.94558  Biso   1.000  O
  O2       1.0000 0.97250  0.38237  0.91570  Biso   1.000  O
  O3       1.0000 0.74160  0.37259  0.10469  Biso   1.000  O
  O4       1.0000 0.80900  0.34580  0.12772  Biso   1.000  O
  O5       1.0000 0.81860  0.36274  0.90577  Biso   1.000  O
  O6       1.0000 0.76860  0.32811  0.88946  Biso   1.000  O
  O7       1.0000 0.60010  0.41465  0.05536  Biso   1.000  O
  O8       1.0000 0.59430  0.39015  0.09032  Biso   1.000  O
  O9       1.0000 0.06850  0.40491  0.86974  Biso   1.000  O
  O10      1.0000 0.99660  0.37728  0.85193  Biso   1.000  O
  O11      1.0000 0.15690  0.35877  0.65551  Biso   1.000  O
  O12      1.0000 0.16920  0.33337  0.68989  Biso   1.000  O
  O13      1.0000 0.95440  0.33653  0.88874  Biso   1.000  O
  O14      1.0000 0.89950  0.30906  0.86303  Biso   1.000  O
  O15      1.0000 0.17830  0.18128  0.85795  Biso   1.000  O
  O16      1.0000 0.10550  0.15393  0.87901  Biso   1.000  O
  O17      1.0000 0.68490  0.41599  0.13644  Biso   1.000  O
  O18      1.0000 0.62260  0.44223  0.11152  Biso   1.000  O
  O19      1.0000 0.94150  0.56729  0.11430  Biso   1.000  O
  O20      1.0000 0.86800  0.59475  0.12783  Biso   1.000  O
  O21      1.0000 0.69260  0.34335  0.19900  Biso   1.000  O
  O22      1.0000 0.70120  0.37040  0.16620  Biso   1.000  O
  O23      1.0000 0.44890  0.38906  0.34832  Biso   1.000  O
  O24      1.0000 0.51370  0.41761  0.37035  Biso   1.000  O
  S1       1.0000 0.92339  0.38344  0.99415  Biso   1.000  S
  S2       1.0000 0.82249  0.36654  0.05074  Biso   1.000  S
  S3       1.0000 0.74680  0.35973  0.96111  Biso   1.000  S
  S4       1.0000 0.64692  0.38142  0.01308  Biso   1.000  S
  S5       1.0000 0.05412  0.38314  0.79364  Biso   1.000  S
  S6       1.0000 0.13425  0.36460  0.73552  Biso   1.000  S
  S7       1.0000 0.96910  0.26891  0.88137  Biso   1.000  S
  S8       1.0000 0.10425  0.22233  0.88048  Biso   1.000  S
  S9       1.0000 0.69772  0.48371  0.13075  Biso   1.000  S
  S10      1.0000 0.86027  0.52713  0.13284  Biso   1.000  S
  S11      1.0000 0.63630  0.37452  0.24318  Biso   1.000  S
  S12      1.0000 0.53301  0.39387  0.29530  Biso   1.000  S
  Mn1      1.0000 0.02892  0.41672  0.90670  Biso   1.000  Mn
  Mn2      1.0000 0.90966  0.37034  0.87962  Biso   1.000  Mn
  Mn3      1.0000 0.79831  0.32154  0.85096  Biso   1.000  Mn
  Mn4      1.0000 0.53610  0.42528  0.09299  Biso   1.000  Mn
  Mn5      1.0000 0.64743  0.38069  0.12859  Biso   1.000  Mn
  Mn6      1.0000 0.75874  0.33510  0.16237  Biso   1.000  Mn
  H164     1.0000 0.02250  0.33140  0.03130  Biso   1.000  H
  H165     1.0000 0.98430  0.30900  0.04490  Biso   1.000  H
  C131     1.0000 0.04820  0.32770  0.07340  Biso   1.000  C
  H166     1.0000 0.02750  0.31970  0.08960  Biso   1.000  H
  H167     1.0000 0.05770  0.34420  0.07800  Biso   1.000  H
  C132     1.0000 0.11780  0.31530  0.06310  Biso   1.000  C
  H168     1.0000 0.11370  0.29810  0.06460  Biso   1.000  H
  H169     1.0000 0.12900  0.31950  0.04390  Biso   1.000  H
  C133     1.0000 0.17510  0.32520  0.08320  Biso   1.000  C
  H170     1.0000 0.15370  0.32860  0.10130  Biso   1.000  H
  H171     1.0000 0.19790  0.33950  0.07580  Biso   1.000  H
  C134     1.0000 0.22980  0.30470  0.08470  Biso   1.000  C
  H172     1.0000 0.27270  0.30760  0.07310  Biso   1.000  H
  H173     1.0000 0.20730  0.28970  0.07930  Biso   1.000  H
  C135     1.0000 0.24900  0.30510  0.11580  Biso   1.000  C
  H174     1.0000 0.28970  0.29450  0.11920  Biso   1.000  H
  H175     1.0000 0.20740  0.30010  0.12650  Biso   1.000  H
  H176     1.0000 0.26310  0.32100  0.12110  Biso   1.000  H
  H177     1.0000 0.54750  0.55590  0.26810  Biso   1.000  H
  H178     1.0000 0.49470  0.54310  0.24660  Biso   1.000  H
  H179     1.0000 0.49510  0.58580  0.24140  Biso   1.000  H
  H180     1.0000 0.51480  0.57240  0.21370  Biso   1.000  H
  H181     1.0000 0.57750  0.58380  0.23180  Biso   1.000  H
  C136     1.0000 0.53900  0.55280  0.24850  Biso   1.000  C
  C137     1.0000 0.53100  0.57580  0.23240  Biso   1.000  C
  C138     1.0000 0.57500  0.78240  0.04410  Biso   1.000  C
  H182     1.0000 0.60020  0.78710  0.06080  Biso   1.000  H
  H183     1.0000 0.52840  0.79070  0.04310  Biso   1.000  H
  H184     1.0000 0.60400  0.78630  0.02810  Biso   1.000  H
  C139     1.0000 0.64300  0.84120  0.01770  Biso   1.000  C
  H185     1.0000 0.60370  0.85270  0.01670  Biso   1.000  H
  H186     1.0000 0.68780  0.84890  0.02440  Biso   1.000  H
  C140     1.0000 0.65600  0.82880  0.98950  Biso   1.000  C
  H187     1.0000 0.62400  0.81510  0.98730  Biso   1.000  H
  H188     1.0000 0.70680  0.82410  0.98710  Biso   1.000  H
  C141     1.0000 0.63400  0.84910  0.96960  Biso   1.000  C
  H189     1.0000 0.67790  0.85570  0.96120  Biso   1.000  H
  H190     1.0000 0.60920  0.86140  0.97990  Biso   1.000  H
  H191     1.0000 0.60230  0.84310  0.95530  Biso   1.000  H
  C142     1.0000 0.16070  0.85279  0.00658  Biso   1.000  C
  C143     1.0000 0.15650  0.83945  0.03031  Biso   1.000  C
  C144     1.0000 0.14180  0.85317  0.05240  Biso   1.000  C
  H192     1.0000 0.13820  0.84700  0.07040  Biso   1.000  H
  C145     1.0000 0.13290  0.87552  0.04728  Biso   1.000  C
  C146     1.0000 0.46230  0.89058  0.94027  Biso   1.000  C
  C147     1.0000 0.43590  0.87295  0.96221  Biso   1.000  C
  C148     1.0000 0.43220  0.84989  0.95991  Biso   1.000  C
  H193     1.0000 0.44000  0.84160  0.94330  Biso   1.000  H
  C149     1.0000 0.41450  0.83862  0.98630  Biso   1.000  C
  C150     1.0000 0.41060  0.85551  0.00597  Biso   1.000  C
  C151     1.0000 0.39540  0.85229  0.03563  Biso   1.000  C
  C152     1.0000 0.43170  0.84030  0.05500  Biso   1.000  C
  C153     1.0000 0.39330  0.84008  0.08023  Biso   1.000  C
  H194     1.0000 0.40770  0.83050  0.09510  Biso   1.000  H
  C154     1.0000 0.33780  0.85367  0.08189  Biso   1.000  C
  C155     1.0000 0.28990  0.85798  0.10623  Biso   1.000  C
  C156     1.0000 0.40580  0.81316  0.98840  Biso   1.000  C
  H195     1.0000 0.39440  0.80890  0.00760  Biso   1.000  H
  H196     1.0000 0.45170  0.80540  0.98340  Biso   1.000  H
  C157     1.0000 0.34580  0.80450  0.96970  Biso   1.000  C
  H197     1.0000 0.29860  0.81120  0.97520  Biso   1.000  H
  H198     1.0000 0.35560  0.80880  0.95040  Biso   1.000  H
  C158     1.0000 0.34620  0.77822  0.97340  Biso   1.000  C
  H199     1.0000 0.39190  0.77140  0.96650  Biso   1.000  H
  H200     1.0000 0.34050  0.77400  0.99290  Biso   1.000  H
  C159     1.0000 0.28260  0.76955  0.95677  Biso   1.000  C
  H201     1.0000 0.27120  0.75320  0.96150  Biso   1.000  H
  H202     1.0000 0.23930  0.77930  0.96020  Biso   1.000  H
  C160     1.0000 0.30550  0.77140  0.92740  Biso   1.000  C
  H203     1.0000 0.34480  0.76020  0.92340  Biso   1.000  H
  H204     1.0000 0.32300  0.78740  0.92330  Biso   1.000  H
  C161     1.0000 0.23940  0.76590  0.91050  Biso   1.000  C
  H205     1.0000 0.25110  0.76730  0.89100  Biso   1.000  H
  H206     1.0000 0.20070  0.77680  0.91510  Biso   1.000  H
  H207     1.0000 0.22350  0.74990  0.91450  Biso   1.000  H
  C162     1.0000 0.49820  0.82540  0.04800  Biso   1.000  C
  H208     1.0000 0.50050  0.82430  0.02780  Biso   1.000  H
  H209     1.0000 0.48850  0.80950  0.05490  Biso   1.000  H
  C163     1.0000 0.57500  0.83240  0.05810  Biso   1.000  C
  H210     1.0000 0.58480  0.82630  0.07670  Biso   1.000  H
  H211     1.0000 0.58220  0.84950  0.05780  Biso   1.000  H
  C164     1.0000 0.62240  0.81980  0.03600  Biso   1.000  C
  H212     1.0000 0.66550  0.81230  0.04420  Biso   1.000  H
  H213     1.0000 0.59440  0.80810  0.02560  Biso   1.000  H
  C165     1.0000 0.28290  0.84590  0.90780  Biso   1.000  C
  C166     1.0000 0.22680  0.84288  0.93351  Biso   1.000  C
  C167     1.0000 0.17740  0.82730  0.93669  Biso   1.000  C
  H214     1.0000 0.16520  0.81600  0.92330  Biso   1.000  H
  C168     1.0000 0.14300  0.82930  0.96285  Biso   1.000  C
  C169     1.0000 0.17810  0.84610  0.97852  Biso   1.000  C
  C170     1.0000 0.10910  0.89437  0.06448  Biso   1.000  C
  C171     1.0000 0.08250  0.81440  0.97110  Biso   1.000  C
  H215     1.0000 0.07270  0.81670  0.99090  Biso   1.000  H
  H216     1.0000 0.09590  0.79790  0.96830  Biso   1.000  H
  C172     1.0000 0.01430  0.81970  0.95490  Biso   1.000  C
  H217     1.0000 0.97620  0.80800  0.95880  Biso   1.000  H
  H218     1.0000 0.02430  0.81970  0.93500  Biso   1.000  H
  C173     1.0000 0.99160  0.84380  0.96460  Biso   1.000  C
  H219     1.0000 0.97110  0.84310  0.98330  Biso   1.000  H
  H220     1.0000 0.03330  0.85460  0.96460  Biso   1.000  H
  C174     1.0000 0.93470  0.85160  0.94400  Biso   1.000  C
  H221     1.0000 0.90220  0.86350  0.95220  Biso   1.000  H
  H222     1.0000 0.95760  0.85830  0.92740  Biso   1.000  H
  C175     1.0000 0.89350  0.82950  0.93710  Biso   1.000  C
  H223     1.0000 0.84270  0.83300  0.93230  Biso   1.000  H
  H224     1.0000 0.89410  0.81840  0.95270  Biso   1.000  H
  C176     1.0000 0.93400  0.81940  0.91260  Biso   1.000  C
  H225     1.0000 0.90300  0.80810  0.90320  Biso   1.000  H
  H226     1.0000 0.97800  0.81170  0.91890  Biso   1.000  H
  H227     1.0000 0.94640  0.83200  0.89990  Biso   1.000  H
  C177     1.0000 0.17890  0.81325  0.03305  Biso   1.000  C
  H228     1.0000 0.13620  0.80420  0.03910  Biso   1.000  H
  H229     1.0000 0.19290  0.80740  0.01470  Biso   1.000  H
  C178     1.0000 0.24050  0.80848  0.05286  Biso   1.000  C
  H230     1.0000 0.28610  0.81530  0.04600  Biso   1.000  H
  H231     1.0000 0.22990  0.81520  0.07110  Biso   1.000  H
  C179     1.0000 0.24650  0.78239  0.05460  Biso   1.000  C
  H232     1.0000 0.23690  0.77510  0.03660  Biso   1.000  H
  H233     1.0000 0.21200  0.77600  0.06820  Biso   1.000  H
  C180     1.0000 0.32350  0.77810  0.06350  Biso   1.000  C
  H234     1.0000 0.34660  0.76620  0.05170  Biso   1.000  H
  H235     1.0000 0.35210  0.79260  0.06250  Biso   1.000  H
  C181     1.0000 0.31820  0.76950  0.09260  Biso   1.000  C
  H236     1.0000 0.27390  0.77540  0.10160  Biso   1.000  H
  H237     1.0000 0.36070  0.77450  0.10350  Biso   1.000  H
  C182     1.0000 0.31600  0.74310  0.08980  Biso   1.000  C
  H238     1.0000 0.30800  0.73600  0.10780  Biso   1.000  H
  H239     1.0000 0.36170  0.73750  0.08220  Biso   1.000  H
  H240     1.0000 0.27620  0.73870  0.07750  Biso   1.000  H
  C183     1.0000 0.54410  0.89150  0.85080  Biso   1.000  C
  C184     1.0000 0.65450  0.91331  0.79084  Biso   1.000  C
  C185     1.0000 0.57750  0.89685  0.82203  Biso   1.000  C
  C186     1.0000 0.62720  0.91360  0.81740  Biso   1.000  C
  H241     1.0000 0.64200  0.92450  0.83090  Biso   1.000  H
  C187     1.0000 0.61930  0.89835  0.77405  Biso   1.000  C
  C188     1.0000 0.61890  0.89297  0.74547  Biso   1.000  C
  C189     1.0000 0.62090  0.90700  0.72303  Biso   1.000  C
  C190     1.0000 0.62850  0.89566  0.69729  Biso   1.000  C
  H242     1.0000 0.62830  0.90300  0.67980  Biso   1.000  H
  C191     1.0000 0.63620  0.87231  0.70213  Biso   1.000  C
  C192     1.0000 0.65220  0.85389  0.68145  Biso   1.000  C
  C193     1.0000 0.72010  0.92670  0.78000  Biso   1.000  C
  H243     1.0000 0.70750  0.94350  0.77960  Biso   1.000  H
  H244     1.0000 0.72880  0.92180  0.76090  Biso   1.000  H
  C194     1.0000 0.79160  0.92400  0.79610  Biso   1.000  C
  H245     1.0000 0.78280  0.92230  0.81600  Biso   1.000  H
  H246     1.0000 0.82430  0.93740  0.79290  Biso   1.000  H
  C195     1.0000 0.82310  0.90110  0.78360  Biso   1.000  C
  H247     1.0000 0.85950  0.90440  0.76930  Biso   1.000  H
  H248     1.0000 0.78460  0.89100  0.77600  Biso   1.000  H
  C196     1.0000 0.85820  0.89010  0.80990  Biso   1.000  C
  H249     1.0000 0.85510  0.90070  0.82580  Biso   1.000  H
  H250     1.0000 0.90920  0.88570  0.80670  Biso   1.000  H
  C197     1.0000 0.80900  0.86810  0.81350  Biso   1.000  C
  H251     1.0000 0.75960  0.87080  0.80590  Biso   1.000  H
  H252     1.0000 0.82990  0.85410  0.80490  Biso   1.000  H
  C198     1.0000 0.80700  0.86610  0.84550  Biso   1.000  C
  H253     1.0000 0.77390  0.85360  0.85090  Biso   1.000  H
  H254     1.0000 0.79060  0.88090  0.85340  Biso   1.000  H
  H255     1.0000 0.85570  0.86250  0.85220  Biso   1.000  H
  C199     1.0000 0.60880  0.93370  0.72330  Biso   1.000  C
  H256     1.0000 0.60560  0.93920  0.74250  Biso   1.000  H
  H257     1.0000 0.65060  0.94150  0.71460  Biso   1.000  H
  C200     1.0000 0.53970  0.94038  0.70810  Biso   1.000  C
  H258     1.0000 0.54100  0.93460  0.68900  Biso   1.000  H
  H259     1.0000 0.49670  0.93380  0.71740  Biso   1.000  H
  C201     1.0000 0.53820  0.96671  0.70870  Biso   1.000  C
  H260     1.0000 0.54960  0.97250  0.72730  Biso   1.000  H
  H261     1.0000 0.57390  0.97320  0.69570  Biso   1.000  H
  C202     1.0000 0.46300  0.97370  0.70060  Biso   1.000  C
  H262     1.0000 0.45520  0.99050  0.70440  Biso   1.000  H
  H263     1.0000 0.42690  0.96460  0.71110  Biso   1.000  H
  C203     1.0000 0.45580  0.96880  0.67040  Biso   1.000  C
  H264     1.0000 0.44960  0.95190  0.66700  Biso   1.000  H
  H265     1.0000 0.49880  0.97440  0.66020  Biso   1.000  H
  C204     1.0000 0.38850  0.98230  0.66190  Biso   1.000  C
  H266     1.0000 0.37790  0.97930  0.64260  Biso   1.000  H
  H267     1.0000 0.39690  0.99900  0.66460  Biso   1.000  H
  H268     1.0000 0.34750  0.97740  0.67320  Biso   1.000  H
  C205     1.0000 0.44770  0.81613  0.88080  Biso   1.000  C
  C206     1.0000 0.47140  0.79631  0.89260  Biso   1.000  C
  C207     1.0000 0.52050  0.79710  0.91270  Biso   1.000  C
  H269     1.0000 0.53240  0.81170  0.92070  Biso   1.000  H
  C208     1.0000 0.56170  0.77300  0.92430  Biso   1.000  C
  C209     1.0000 0.52550  0.75728  0.90420  Biso   1.000  C
  C210     1.0000 0.53900  0.73222  0.90420  Biso   1.000  C
  C211     1.0000 0.50820  0.71470  0.91540  Biso   1.000  C
  C212     1.0000 0.53120  0.69201  0.90730  Biso   1.000  C
  H270     1.0000 0.51240  0.67780  0.91430  Biso   1.000  H
  C213     1.0000 0.58390  0.69382  0.88828  Biso   1.000  C
  C214     1.0000 0.62630  0.67442  0.87490  Biso   1.000  C
  C215     1.0000 0.60410  0.77300  0.95090  Biso   1.000  C
  H271     1.0000 0.60900  0.78890  0.95860  Biso   1.000  H
  H272     1.0000 0.65250  0.76590  0.94860  Biso   1.000  H
  C216     1.0000 0.55350  0.75750  0.96840  Biso   1.000  C
  H273     1.0000 0.55170  0.74130  0.96140  Biso   1.000  H
  H274     1.0000 0.50390  0.76390  0.96920  Biso   1.000  H
  C217     1.0000 0.59140  0.75860  0.99710  Biso   1.000  C
  H275     1.0000 0.61000  0.77440  0.00120  Biso   1.000  H
  H276     1.0000 0.63110  0.74710  0.99870  Biso   1.000  H
  C218     1.0000 0.52570  0.75200  0.01590  Biso   1.000  C
  H277     1.0000 0.48420  0.76270  0.01310  Biso   1.000  H
  H278     1.0000 0.50990  0.73570  0.01300  Biso   1.000  H
  C219     1.0000 0.56070  0.75550  0.04480  Biso   1.000  C
  H279     1.0000 0.60620  0.74660  0.04660  Biso   1.000  H
  H280     1.0000 0.52720  0.75110  0.05970  Biso   1.000  H
  C220     1.0000 0.44110  0.71550  0.93350  Biso   1.000  C
  H281     1.0000 0.40500  0.70580  0.92380  Biso   1.000  H
  H282     1.0000 0.42350  0.73180  0.93190  Biso   1.000  H
  C221     1.0000 0.43200  0.70930  0.96420  Biso   1.000  C
  H283     1.0000 0.46220  0.71930  0.97600  Biso   1.000  H
  H284     1.0000 0.44380  0.69270  0.96770  Biso   1.000  H
  C222     1.0000 0.35020  0.71420  0.96830  Biso   1.000  C
  H285     1.0000 0.34100  0.73100  0.97150  Biso   1.000  H
  H286     1.0000 0.32130  0.70890  0.95240  Biso   1.000  H
  C223     1.0000 0.33400  0.69950  0.99420  Biso   1.000  C
  H287     1.0000 0.36530  0.68560  0.99530  Biso   1.000  H
  H288     1.0000 0.28260  0.69460  0.99480  Biso   1.000  H
  C224     1.0000 0.35200  0.71740  0.01720  Biso   1.000  C
  H289     1.0000 0.36590  0.73270  0.00960  Biso   1.000  H
  H290     1.0000 0.38990  0.71150  0.02960  Biso   1.000  H
  C225     1.0000 0.27700  0.71870  0.03200  Biso   1.000  C
  H291     1.0000 0.27020  0.73430  0.03960  Biso   1.000  H
  H292     1.0000 0.27560  0.70710  0.04680  Biso   1.000  H
  H293     1.0000 0.23840  0.71530  0.01880  Biso   1.000  H
  C226     1.0000 0.17140  0.93595  0.12990  Biso   1.000  C
  C227     1.0000 0.21540  0.95669  0.14300  Biso   1.000  C
  C228     1.0000 0.26360  0.95488  0.16170  Biso   1.000  C
  H294     1.0000 0.27600  0.94080  0.17080  Biso   1.000  H
  C229     1.0000 0.29550  0.97676  0.16670  Biso   1.000  C
  C230     1.0000 0.26580  0.99519  0.15161  Biso   1.000  C
  C231     1.0000 0.28600  0.01933  0.14960  Biso   1.000  C
  C232     1.0000 0.24540  0.03920  0.15840  Biso   1.000  C
  C233     1.0000 0.34010  0.05709  0.13755  Biso   1.000  C
  C234     1.0000 0.27630  0.05974  0.15190  Biso   1.000  C
  H295     1.0000 0.25630  0.07440  0.15660  Biso   1.000  H
  C235     1.0000 0.38230  0.07409  0.12530  Biso   1.000  C
  C236     1.0000 0.34700  0.98110  0.18880  Biso   1.000  C
  H296     1.0000 0.36420  0.99730  0.18600  Biso   1.000  H
  H297     1.0000 0.38880  0.97090  0.18500  Biso   1.000  H
  C237     1.0000 0.33250  0.97880  0.21947  Biso   1.000  C
  H298     1.0000 0.37660  0.98240  0.23020  Biso   1.000  H
  H299     1.0000 0.31620  0.96290  0.22410  Biso   1.000  H
  C238     1.0000 0.27290  0.99670  0.22529  Biso   1.000  C
  H300     1.0000 0.28690  0.01230  0.21860  Biso   1.000  H
  H301     1.0000 0.22700  0.99200  0.21650  Biso   1.000  H
  C239     1.0000 0.26570  0.99660  0.25652  Biso   1.000  C
  H302     1.0000 0.25360  0.98080  0.26330  Biso   1.000  H
  H303     1.0000 0.31120  0.00170  0.26530  Biso   1.000  H
  C240     1.0000 0.20490  0.01360  0.26260  Biso   1.000  C
  H304     1.0000 0.21820  0.02960  0.25680  Biso   1.000  H
  H305     1.0000 0.16010  0.00900  0.25290  Biso   1.000  H
  C241     1.0000 0.19430  0.01250  0.29340  Biso   1.000  C
  H306     1.0000 0.15620  0.02340  0.29880  Biso   1.000  H
  H307     1.0000 0.23960  0.01670  0.30260  Biso   1.000  H
  H308     1.0000 0.18050  0.99660  0.29870  Biso   1.000  H
  C242     1.0000 0.17700  0.03680  0.16880  Biso   1.000  C
  H309     1.0000 0.16640  0.02010  0.17250  Biso   1.000  H
  H310     1.0000 0.14080  0.04270  0.15560  Biso   1.000  H
  C243     1.0000 0.17460  0.05090  0.19540  Biso   1.000  C
  H311     1.0000 0.18580  0.06750  0.19200  Biso   1.000  H
  H312     1.0000 0.20870  0.04460  0.20920  Biso   1.000  H
  C244     1.0000 0.09550  0.04760  0.20460  Biso   1.000  C
  H313     1.0000 0.06740  0.06220  0.20240  Biso   1.000  H
  H314     1.0000 0.07160  0.03500  0.19410  Biso   1.000  H
  C245     1.0000 0.10400  0.04100  0.23500  Biso   1.000  C
  H315     1.0000 0.10280  0.02390  0.23760  Biso   1.000  H
  H316     1.0000 0.15000  0.04720  0.24260  Biso   1.000  H
  C246     1.0000 0.18010  0.86496  0.19161  Biso   1.000  C
  C247     1.0000 0.15830  0.88246  0.21125  Biso   1.000  C
  C248     1.0000 0.15960  0.90524  0.20525  Biso   1.000  C
  H317     1.0000 0.17270  0.91180  0.18810  Biso   1.000  H
  C249     1.0000 0.12160  0.90390  0.25198  Biso   1.000  C
  C250     1.0000 0.10690  0.90952  0.28077  Biso   1.000  C
  C251     1.0000 0.04240  0.90791  0.32506  Biso   1.000  C
  C252     1.0000 0.99110  0.90510  0.34950  Biso   1.000  C
  C253     1.0000 0.11960  0.94515  0.22938  Biso   1.000  C
  H318     1.0000 0.10630  0.95040  0.24800  Biso   1.000  H
  H319     1.0000 0.16400  0.95360  0.22400  Biso   1.000  H
  C254     1.0000 0.05940  0.95165  0.20986  Biso   1.000  C
  H320     1.0000 0.07030  0.94570  0.19130  Biso   1.000  H
  H321     1.0000 0.01330  0.94460  0.21600  Biso   1.000  H
  C255     1.0000 0.98440  0.98344  0.19434  Biso   1.000  C
  H322     1.0000 0.94480  0.97310  0.20040  Biso   1.000  H
  H323     1.0000 0.97030  0.99980  0.19820  Biso   1.000  H
  C256     1.0000 0.92880  0.98650  0.14980  Biso   1.000  C
  H324     1.0000 0.93590  0.98510  0.13000  Biso   1.000  H
  H325     1.0000 0.91550  0.00260  0.15430  Biso   1.000  H
  H326     1.0000 0.89030  0.97590  0.15570  Biso   1.000  H
  C257     1.0000 0.26870  0.93020  0.31250  Biso   1.000  C
  H327     1.0000 0.25290  0.93080  0.33190  Biso   1.000  H
  H328     1.0000 0.28390  0.91410  0.30810  Biso   1.000  H
  C258     1.0000 0.33010  0.94720  0.30760  Biso   1.000  C
  H329     1.0000 0.34940  0.95310  0.32510  Biso   1.000  H
  H330     1.0000 0.31380  0.96050  0.29630  Biso   1.000  H
  C259     1.0000 0.13660  0.91861  0.23026  Biso   1.000  C
  C260     1.0000 0.13710  0.92333  0.29775  Biso   1.000  C
  C261     1.0000 0.09530  0.92365  0.32497  Biso   1.000  C
  H331     1.0000 0.10580  0.93380  0.33980  Biso   1.000  H
  C262     1.0000 0.05310  0.97754  0.20937  Biso   1.000  C
  H332     1.0000 0.09520  0.98450  0.19990  Biso   1.000  H
  H333     1.0000 0.05140  0.98380  0.22830  Biso   1.000  H
  C263     1.0000 0.99800  0.98030  0.16440  Biso   1.000  C
  H334     1.0000 0.01150  0.96390  0.16050  Biso   1.000  H
  H335     1.0000 0.03780  0.99050  0.15830  Biso   1.000  H
  C264     1.0000 0.20790  0.93790  0.29370  Biso   1.000  C
  H336     1.0000 0.22400  0.93640  0.27440  Biso   1.000  H
  H337     1.0000 0.19720  0.95460  0.29710  Biso   1.000  H
  C265     1.0000 0.38660  0.93290  0.29250  Biso   1.000  C
  H338     1.0000 0.36800  0.92760  0.27450  Biso   1.000  H
  H339     1.0000 0.40080  0.91910  0.30340  Biso   1.000  H
  C266     1.0000 0.45020  0.94940  0.28890  Biso   1.000  C
  H340     1.0000 0.45300  0.96050  0.30430  Biso   1.000  H
  H341     1.0000 0.49610  0.94060  0.28780  Biso   1.000  H
  C267     1.0000 0.43500  0.96210  0.26220  Biso   1.000  C
  H342     1.0000 0.47500  0.97300  0.25850  Biso   1.000  H
  H343     1.0000 0.39000  0.97070  0.26370  Biso   1.000  H
  H344     1.0000 0.43200  0.95080  0.24730  Biso   1.000  H
  O25      1.0000 0.46710  0.91075  0.94558  Biso   1.000  O
  O26      1.0000 0.47250  0.88237  0.91570  Biso   1.000  O
  O27      1.0000 0.24160  0.87259  0.10469  Biso   1.000  O
  O28      1.0000 0.30900  0.84580  0.12772  Biso   1.000  O
  O29      1.0000 0.31860  0.86274  0.90577  Biso   1.000  O
  O30      1.0000 0.26860  0.82811  0.88946  Biso   1.000  O
  O31      1.0000 0.10010  0.91465  0.05536  Biso   1.000  O
  O32      1.0000 0.09430  0.89015  0.09032  Biso   1.000  O
  O33      1.0000 0.56850  0.90491  0.86974  Biso   1.000  O
  O34      1.0000 0.49660  0.87728  0.85193  Biso   1.000  O
  O35      1.0000 0.65690  0.85877  0.65551  Biso   1.000  O
  O36      1.0000 0.66920  0.83337  0.68989  Biso   1.000  O
  O37      1.0000 0.45440  0.83653  0.88874  Biso   1.000  O
  O38      1.0000 0.39950  0.80906  0.86303  Biso   1.000  O
  O39      1.0000 0.67830  0.68128  0.85795  Biso   1.000  O
  O40      1.0000 0.60550  0.65393  0.87901  Biso   1.000  O
  O41      1.0000 0.18490  0.91599  0.13644  Biso   1.000  O
  O42      1.0000 0.12260  0.94223  0.11152  Biso   1.000  O
  O43      1.0000 0.44150  0.06729  0.11430  Biso   1.000  O
  O44      1.0000 0.36800  0.09475  0.12783  Biso   1.000  O
  O45      1.0000 0.19260  0.84335  0.19900  Biso   1.000  O
  O46      1.0000 0.20120  0.87040  0.16620  Biso   1.000  O
  O47      1.0000 0.94890  0.88906  0.34832  Biso   1.000  O
  O48      1.0000 0.01370  0.91761  0.37035  Biso   1.000  O
  S13      1.0000 0.42339  0.88344  0.99415  Biso   1.000  S
  S14      1.0000 0.32249  0.86654  0.05074  Biso   1.000  S
  S15      1.0000 0.24680  0.85973  0.96111  Biso   1.000  S
  S16      1.0000 0.14692  0.88142  0.01308  Biso   1.000  S
  S17      1.0000 0.55412  0.88314  0.79364  Biso   1.000  S
  S18      1.0000 0.63425  0.86460  0.73552  Biso   1.000  S
  S19      1.0000 0.46910  0.76891  0.88137  Biso   1.000  S
  S20      1.0000 0.60425  0.72233  0.88048  Biso   1.000  S
  S21      1.0000 0.19772  0.98371  0.13075  Biso   1.000  S
  S22      1.0000 0.36027  0.02713  0.13284  Biso   1.000  S
  S23      1.0000 0.13630  0.87452  0.24318  Biso   1.000  S
  S24      1.0000 0.03301  0.89387  0.29530  Biso   1.000  S
  Mn7      1.0000 0.52892  0.91672  0.90670  Biso   1.000  Mn
  Mn8      1.0000 0.40966  0.87034  0.87962  Biso   1.000  Mn
  Mn9      1.0000 0.29831  0.82154  0.85096  Biso   1.000  Mn
  Mn10     1.0000 0.03610  0.92528  0.09299  Biso   1.000  Mn
  Mn11     1.0000 0.14743  0.88069  0.12859  Biso   1.000  Mn
  Mn12     1.0000 0.25874  0.83510  0.16237  Biso   1.000  Mn
  H345     1.0000 0.52250  0.83140  0.03130  Biso   1.000  H
  H346     1.0000 0.48430  0.80900  0.04490  Biso   1.000  H
  C268     1.0000 0.54820  0.82770  0.07340  Biso   1.000  C
  H347     1.0000 0.52750  0.81970  0.08960  Biso   1.000  H
  H348     1.0000 0.55770  0.84420  0.07800  Biso   1.000  H
  C269     1.0000 0.61780  0.81530  0.06310  Biso   1.000  C
  H349     1.0000 0.61370  0.79810  0.06460  Biso   1.000  H
  H350     1.0000 0.62900  0.81950  0.04390  Biso   1.000  H
  C270     1.0000 0.67510  0.82520  0.08320  Biso   1.000  C
  H351     1.0000 0.65370  0.82860  0.10130  Biso   1.000  H
  H352     1.0000 0.69790  0.83950  0.07580  Biso   1.000  H
  C271     1.0000 0.72980  0.80470  0.08470  Biso   1.000  C
  H353     1.0000 0.77270  0.80760  0.07310  Biso   1.000  H
  H354     1.0000 0.70730  0.78970  0.07930  Biso   1.000  H
  C272     1.0000 0.74900  0.80510  0.11580  Biso   1.000  C
  H355     1.0000 0.78970  0.79450  0.11920  Biso   1.000  H
  H356     1.0000 0.70740  0.80010  0.12650  Biso   1.000  H
  H357     1.0000 0.76310  0.82100  0.12110  Biso   1.000  H
  H358     1.0000 0.04750  0.05590  0.26810  Biso   1.000  H
  H359     1.0000 0.99470  0.04310  0.24660  Biso   1.000  H
  H360     1.0000 0.99510  0.08580  0.24140  Biso   1.000  H
  H361     1.0000 0.01480  0.07240  0.21370  Biso   1.000  H
  H362     1.0000 0.07750  0.08380  0.23180  Biso   1.000  H
  C273     1.0000 0.03900  0.05280  0.24850  Biso   1.000  C
  C274     1.0000 0.03100  0.07580  0.23240  Biso   1.000  C
  C275     1.0000 0.92500  0.71760  0.54410  Biso   1.000  C
  H363     1.0000 0.89980  0.71290  0.56080  Biso   1.000  H
  H364     1.0000 0.97160  0.70930  0.54310  Biso   1.000  H
  H365     1.0000 0.89600  0.71370  0.52810  Biso   1.000  H
  C276     1.0000 0.85700  0.65880  0.51770  Biso   1.000  C
  H366     1.0000 0.89630  0.64730  0.51670  Biso   1.000  H
  H367     1.0000 0.81220  0.65110  0.52440  Biso   1.000  H
  C277     1.0000 0.84400  0.67120  0.48950  Biso   1.000  C
  H368     1.0000 0.87600  0.68490  0.48730  Biso   1.000  H
  H369     1.0000 0.79320  0.67590  0.48710  Biso   1.000  H
  C278     1.0000 0.86600  0.65090  0.46960  Biso   1.000  C
  H370     1.0000 0.82210  0.64430  0.46120  Biso   1.000  H
  H371     1.0000 0.89080  0.63860  0.47990  Biso   1.000  H
  H372     1.0000 0.89770  0.65690  0.45530  Biso   1.000  H
  C279     1.0000 0.33930  0.64721  0.50658  Biso   1.000  C
  C280     1.0000 0.34350  0.66055  0.53031  Biso   1.000  C
  C281     1.0000 0.35820  0.64683  0.55240  Biso   1.000  C
  H373     1.0000 0.36180  0.65300  0.57040  Biso   1.000  H
  C282     1.0000 0.36710  0.62448  0.54728  Biso   1.000  C
  C283     1.0000 0.03770  0.60942  0.44027  Biso   1.000  C
  C284     1.0000 0.06410  0.62705  0.46221  Biso   1.000  C
  C285     1.0000 0.06780  0.65011  0.45991  Biso   1.000  C
  H374     1.0000 0.06000  0.65840  0.44330  Biso   1.000  H
  C286     1.0000 0.08550  0.66138  0.48630  Biso   1.000  C
  C287     1.0000 0.08940  0.64449  0.50597  Biso   1.000  C
  C288     1.0000 0.10460  0.64771  0.53563  Biso   1.000  C
  C289     1.0000 0.06830  0.65970  0.55500  Biso   1.000  C
  C290     1.0000 0.10670  0.65992  0.58023  Biso   1.000  C
  H375     1.0000 0.09230  0.66950  0.59510  Biso   1.000  H
  C291     1.0000 0.16220  0.64633  0.58189  Biso   1.000  C
  C292     1.0000 0.21010  0.64202  0.60623  Biso   1.000  C
  C293     1.0000 0.09420  0.68684  0.48840  Biso   1.000  C
  H376     1.0000 0.10560  0.69110  0.50760  Biso   1.000  H
  H377     1.0000 0.04830  0.69460  0.48340  Biso   1.000  H
  C294     1.0000 0.15420  0.69550  0.46970  Biso   1.000  C
  H378     1.0000 0.20140  0.68880  0.47520  Biso   1.000  H
  H379     1.0000 0.14440  0.69120  0.45040  Biso   1.000  H
  C295     1.0000 0.15380  0.72178  0.47340  Biso   1.000  C
  H380     1.0000 0.10810  0.72860  0.46650  Biso   1.000  H
  H381     1.0000 0.15950  0.72600  0.49290  Biso   1.000  H
  C296     1.0000 0.21740  0.73045  0.45677  Biso   1.000  C
  H382     1.0000 0.22880  0.74680  0.46150  Biso   1.000  H
  H383     1.0000 0.26070  0.72070  0.46020  Biso   1.000  H
  C297     1.0000 0.19450  0.72860  0.42740  Biso   1.000  C
  H384     1.0000 0.15520  0.73980  0.42340  Biso   1.000  H
  H385     1.0000 0.17700  0.71260  0.42330  Biso   1.000  H
  C298     1.0000 0.26060  0.73410  0.41050  Biso   1.000  C
  H386     1.0000 0.24890  0.73270  0.39100  Biso   1.000  H
  H387     1.0000 0.29930  0.72320  0.41510  Biso   1.000  H
  H388     1.0000 0.27650  0.75010  0.41450  Biso   1.000  H
  C299     1.0000 0.00180  0.67460  0.54800  Biso   1.000  C
  H389     1.0000 0.99950  0.67570  0.52780  Biso   1.000  H
  H390     1.0000 0.01150  0.69050  0.55490  Biso   1.000  H
  C300     1.0000 0.92500  0.66760  0.55810  Biso   1.000  C
  H391     1.0000 0.91520  0.67370  0.57670  Biso   1.000  H
  H392     1.0000 0.91780  0.65050  0.55780  Biso   1.000  H
  C301     1.0000 0.87760  0.68020  0.53600  Biso   1.000  C
  H393     1.0000 0.83450  0.68770  0.54420  Biso   1.000  H
  H394     1.0000 0.90560  0.69190  0.52560  Biso   1.000  H
  C302     1.0000 0.21710  0.65410  0.40780  Biso   1.000  C
  C303     1.0000 0.27320  0.65712  0.43351  Biso   1.000  C
  C304     1.0000 0.32260  0.67270  0.43669  Biso   1.000  C
  H395     1.0000 0.33480  0.68400  0.42330  Biso   1.000  H
  C305     1.0000 0.35700  0.67070  0.46285  Biso   1.000  C
  C306     1.0000 0.32190  0.65390  0.47852  Biso   1.000  C
  C307     1.0000 0.39090  0.60563  0.56448  Biso   1.000  C
  C308     1.0000 0.41750  0.68560  0.47110  Biso   1.000  C
  H396     1.0000 0.42730  0.68330  0.49090  Biso   1.000  H
  H397     1.0000 0.40410  0.70210  0.46830  Biso   1.000  H
  C309     1.0000 0.48570  0.68030  0.45490  Biso   1.000  C
  H398     1.0000 0.52380  0.69200  0.45880  Biso   1.000  H
  H399     1.0000 0.47570  0.68030  0.43500  Biso   1.000  H
  C310     1.0000 0.50840  0.65620  0.46460  Biso   1.000  C
  H400     1.0000 0.52890  0.65690  0.48330  Biso   1.000  H
  H401     1.0000 0.46670  0.64540  0.46460  Biso   1.000  H
  C311     1.0000 0.56530  0.64840  0.44400  Biso   1.000  C
  H402     1.0000 0.59780  0.63650  0.45220  Biso   1.000  H
  H403     1.0000 0.54240  0.64170  0.42740  Biso   1.000  H
  C312     1.0000 0.60650  0.67050  0.43710  Biso   1.000  C
  H404     1.0000 0.65730  0.66700  0.43230  Biso   1.000  H
  H405     1.0000 0.60590  0.68160  0.45270  Biso   1.000  H
  C313     1.0000 0.56600  0.68060  0.41260  Biso   1.000  C
  H406     1.0000 0.59700  0.69190  0.40320  Biso   1.000  H
  H407     1.0000 0.52200  0.68830  0.41890  Biso   1.000  H
  H408     1.0000 0.55360  0.66800  0.39990  Biso   1.000  H
  C314     1.0000 0.32110  0.68675  0.53305  Biso   1.000  C
  H409     1.0000 0.36380  0.69580  0.53910  Biso   1.000  H
  H410     1.0000 0.30710  0.69260  0.51470  Biso   1.000  H
  C315     1.0000 0.25950  0.69152  0.55286  Biso   1.000  C
  H411     1.0000 0.21390  0.68470  0.54600  Biso   1.000  H
  H412     1.0000 0.27010  0.68480  0.57110  Biso   1.000  H
  C316     1.0000 0.25350  0.71761  0.55460  Biso   1.000  C
  H413     1.0000 0.26310  0.72490  0.53660  Biso   1.000  H
  H414     1.0000 0.28800  0.72400  0.56820  Biso   1.000  H
  C317     1.0000 0.17650  0.72190  0.56350  Biso   1.000  C
  H415     1.0000 0.15340  0.73380  0.55170  Biso   1.000  H
  H416     1.0000 0.14790  0.70740  0.56250  Biso   1.000  H
  C318     1.0000 0.18180  0.73050  0.59260  Biso   1.000  C
  H417     1.0000 0.22610  0.72460  0.60160  Biso   1.000  H
  H418     1.0000 0.13930  0.72550  0.60350  Biso   1.000  H
  C319     1.0000 0.18400  0.75690  0.58980  Biso   1.000  C
  H419     1.0000 0.19200  0.76400  0.60780  Biso   1.000  H
  H420     1.0000 0.13830  0.76250  0.58220  Biso   1.000  H
  H421     1.0000 0.22380  0.76130  0.57750  Biso   1.000  H
  C320     1.0000 0.95590  0.60850  0.35080  Biso   1.000  C
  C321     1.0000 0.84550  0.58669  0.29084  Biso   1.000  C
  C322     1.0000 0.92250  0.60315  0.32203  Biso   1.000  C
  C323     1.0000 0.87280  0.58640  0.31740  Biso   1.000  C
  H422     1.0000 0.85800  0.57550  0.33090  Biso   1.000  H
  C324     1.0000 0.88070  0.60165  0.27405  Biso   1.000  C
  C325     1.0000 0.88110  0.60703  0.24547  Biso   1.000  C
  C326     1.0000 0.87910  0.59300  0.22303  Biso   1.000  C
  C327     1.0000 0.87150  0.60434  0.19729  Biso   1.000  C
  H423     1.0000 0.87170  0.59700  0.17980  Biso   1.000  H
  C328     1.0000 0.86380  0.62769  0.20213  Biso   1.000  C
  C329     1.0000 0.84780  0.64611  0.18145  Biso   1.000  C
  C330     1.0000 0.77990  0.57330  0.28000  Biso   1.000  C
  H424     1.0000 0.79250  0.55650  0.27960  Biso   1.000  H
  H425     1.0000 0.77120  0.57820  0.26090  Biso   1.000  H
  C331     1.0000 0.70840  0.57600  0.29610  Biso   1.000  C
  H426     1.0000 0.71720  0.57770  0.31600  Biso   1.000  H
  H427     1.0000 0.67570  0.56260  0.29290  Biso   1.000  H
  C332     1.0000 0.67690  0.59890  0.28360  Biso   1.000  C
  H428     1.0000 0.64050  0.59560  0.26930  Biso   1.000  H
  H429     1.0000 0.71540  0.60900  0.27600  Biso   1.000  H
  C333     1.0000 0.64180  0.60990  0.30990  Biso   1.000  C
  H430     1.0000 0.64490  0.59930  0.32580  Biso   1.000  H
  H431     1.0000 0.59080  0.61430  0.30670  Biso   1.000  H
  C334     1.0000 0.69100  0.63190  0.31350  Biso   1.000  C
  H432     1.0000 0.74040  0.62920  0.30590  Biso   1.000  H
  H433     1.0000 0.67010  0.64590  0.30490  Biso   1.000  H
  C335     1.0000 0.69300  0.63390  0.34550  Biso   1.000  C
  H434     1.0000 0.72610  0.64640  0.35090  Biso   1.000  H
  H435     1.0000 0.70940  0.61910  0.35340  Biso   1.000  H
  H436     1.0000 0.64430  0.63750  0.35220  Biso   1.000  H
  C336     1.0000 0.89120  0.56630  0.22330  Biso   1.000  C
  H437     1.0000 0.89440  0.56080  0.24250  Biso   1.000  H
  H438     1.0000 0.84940  0.55850  0.21460  Biso   1.000  H
  C337     1.0000 0.96030  0.55962  0.20810  Biso   1.000  C
  H439     1.0000 0.95900  0.56540  0.18900  Biso   1.000  H
  H440     1.0000 0.00330  0.56620  0.21740  Biso   1.000  H
  C338     1.0000 0.96180  0.53329  0.20870  Biso   1.000  C
  H441     1.0000 0.95040  0.52750  0.22730  Biso   1.000  H
  H442     1.0000 0.92610  0.52680  0.19570  Biso   1.000  H
  C339     1.0000 0.03700  0.52630  0.20060  Biso   1.000  C
  H443     1.0000 0.04480  0.50950  0.20440  Biso   1.000  H
  H444     1.0000 0.07310  0.53540  0.21110  Biso   1.000  H
  C340     1.0000 0.04420  0.53120  0.17040  Biso   1.000  C
  H445     1.0000 0.05040  0.54810  0.16700  Biso   1.000  H
  H446     1.0000 0.00120  0.52560  0.16020  Biso   1.000  H
  C341     1.0000 0.11150  0.51770  0.16190  Biso   1.000  C
  H447     1.0000 0.12210  0.52070  0.14260  Biso   1.000  H
  H448     1.0000 0.10310  0.50100  0.16460  Biso   1.000  H
  H449     1.0000 0.15250  0.52260  0.17320  Biso   1.000  H
  C342     1.0000 0.05230  0.68387  0.38080  Biso   1.000  C
  C343     1.0000 0.02860  0.70369  0.39260  Biso   1.000  C
  C344     1.0000 0.97950  0.70290  0.41270  Biso   1.000  C
  H450     1.0000 0.96760  0.68830  0.42070  Biso   1.000  H
  C345     1.0000 0.93830  0.72700  0.42430  Biso   1.000  C
  C346     1.0000 0.97450  0.74272  0.40420  Biso   1.000  C
  C347     1.0000 0.96100  0.76778  0.40420  Biso   1.000  C
  C348     1.0000 0.99180  0.78530  0.41540  Biso   1.000  C
  C349     1.0000 0.96880  0.80799  0.40730  Biso   1.000  C
  H451     1.0000 0.98760  0.82220  0.41430  Biso   1.000  H
  C350     1.0000 0.91610  0.80618  0.38828  Biso   1.000  C
  C351     1.0000 0.87370  0.82558  0.37490  Biso   1.000  C
  C352     1.0000 0.89590  0.72700  0.45090  Biso   1.000  C
  H452     1.0000 0.89100  0.71110  0.45860  Biso   1.000  H
  H453     1.0000 0.84750  0.73410  0.44860  Biso   1.000  H
  C353     1.0000 0.94650  0.74250  0.46840  Biso   1.000  C
  H454     1.0000 0.94830  0.75870  0.46140  Biso   1.000  H
  H455     1.0000 0.99610  0.73610  0.46920  Biso   1.000  H
  C354     1.0000 0.90860  0.74140  0.49710  Biso   1.000  C
  H456     1.0000 0.89000  0.72560  0.50120  Biso   1.000  H
  H457     1.0000 0.86890  0.75290  0.49870  Biso   1.000  H
  C355     1.0000 0.97430  0.74800  0.51590  Biso   1.000  C
  H458     1.0000 0.01580  0.73730  0.51310  Biso   1.000  H
  H459     1.0000 0.99010  0.76430  0.51300  Biso   1.000  H
  C356     1.0000 0.93930  0.74450  0.54480  Biso   1.000  C
  H460     1.0000 0.89380  0.75340  0.54660  Biso   1.000  H
  H461     1.0000 0.97280  0.74890  0.55970  Biso   1.000  H
  C357     1.0000 0.05890  0.78450  0.43350  Biso   1.000  C
  H462     1.0000 0.09500  0.79420  0.42380  Biso   1.000  H
  H463     1.0000 0.07650  0.76820  0.43190  Biso   1.000  H
  C358     1.0000 0.06800  0.79070  0.46420  Biso   1.000  C
  H464     1.0000 0.03780  0.78070  0.47600  Biso   1.000  H
  H465     1.0000 0.05620  0.80730  0.46770  Biso   1.000  H
  C359     1.0000 0.14980  0.78580  0.46830  Biso   1.000  C
  H466     1.0000 0.15900  0.76900  0.47150  Biso   1.000  H
  H467     1.0000 0.17870  0.79110  0.45240  Biso   1.000  H
  C360     1.0000 0.16600  0.80050  0.49420  Biso   1.000  C
  H468     1.0000 0.13470  0.81440  0.49530  Biso   1.000  H
  H469     1.0000 0.21740  0.80540  0.49480  Biso   1.000  H
  C361     1.0000 0.14800  0.78260  0.51720  Biso   1.000  C
  H470     1.0000 0.13410  0.76730  0.50960  Biso   1.000  H
  H471     1.0000 0.11010  0.78850  0.52960  Biso   1.000  H
  C362     1.0000 0.22300  0.78130  0.53200  Biso   1.000  C
  H472     1.0000 0.22980  0.76570  0.53960  Biso   1.000  H
  H473     1.0000 0.22440  0.79290  0.54680  Biso   1.000  H
  H474     1.0000 0.26160  0.78470  0.51880  Biso   1.000  H
  C363     1.0000 0.32860  0.56405  0.62990  Biso   1.000  C
  C364     1.0000 0.28460  0.54331  0.64300  Biso   1.000  C
  C365     1.0000 0.23640  0.54512  0.66170  Biso   1.000  C
  H475     1.0000 0.22400  0.55920  0.67080  Biso   1.000  H
  C366     1.0000 0.20450  0.52324  0.66670  Biso   1.000  C
  C367     1.0000 0.23420  0.50481  0.65161  Biso   1.000  C
  C368     1.0000 0.21400  0.48067  0.64960  Biso   1.000  C
  C369     1.0000 0.25460  0.46080  0.65840  Biso   1.000  C
  C370     1.0000 0.15990  0.44291  0.63755  Biso   1.000  C
  C371     1.0000 0.22370  0.44026  0.65190  Biso   1.000  C
  H476     1.0000 0.24370  0.42560  0.65660  Biso   1.000  H
  C372     1.0000 0.11770  0.42591  0.62530  Biso   1.000  C
  C373     1.0000 0.15300  0.51890  0.68880  Biso   1.000  C
  H477     1.0000 0.13580  0.50270  0.68600  Biso   1.000  H
  H478     1.0000 0.11120  0.52910  0.68500  Biso   1.000  H
  C374     1.0000 0.16750  0.52120  0.71947  Biso   1.000  C
  H479     1.0000 0.12340  0.51760  0.73020  Biso   1.000  H
  H480     1.0000 0.18380  0.53710  0.72410  Biso   1.000  H
  C375     1.0000 0.22710  0.50330  0.72529  Biso   1.000  C
  H481     1.0000 0.21310  0.48770  0.71860  Biso   1.000  H
  H482     1.0000 0.27300  0.50800  0.71650  Biso   1.000  H
  C376     1.0000 0.23430  0.50340  0.75652  Biso   1.000  C
  H483     1.0000 0.24640  0.51920  0.76330  Biso   1.000  H
  H484     1.0000 0.18880  0.49830  0.76530  Biso   1.000  H
  C377     1.0000 0.29510  0.48640  0.76260  Biso   1.000  C
  H485     1.0000 0.28180  0.47040  0.75680  Biso   1.000  H
  H486     1.0000 0.33990  0.49100  0.75290  Biso   1.000  H
  C378     1.0000 0.30570  0.48750  0.79340  Biso   1.000  C
  H487     1.0000 0.34380  0.47660  0.79880  Biso   1.000  H
  H488     1.0000 0.26040  0.48330  0.80260  Biso   1.000  H
  H489     1.0000 0.31950  0.50340  0.79870  Biso   1.000  H
  C379     1.0000 0.32300  0.46320  0.66880  Biso   1.000  C
  H490     1.0000 0.33360  0.47990  0.67250  Biso   1.000  H
  H491     1.0000 0.35920  0.45730  0.65560  Biso   1.000  H
  C380     1.0000 0.32540  0.44910  0.69540  Biso   1.000  C
  H492     1.0000 0.31420  0.43250  0.69200  Biso   1.000  H
  H493     1.0000 0.29130  0.45540  0.70920  Biso   1.000  H
  C381     1.0000 0.40450  0.45240  0.70460  Biso   1.000  C
  H494     1.0000 0.43260  0.43780  0.70240  Biso   1.000  H
  H495     1.0000 0.42840  0.46500  0.69410  Biso   1.000  H
  C382     1.0000 0.39600  0.45900  0.73500  Biso   1.000  C
  H496     1.0000 0.39720  0.47610  0.73760  Biso   1.000  H
  H497     1.0000 0.35000  0.45280  0.74260  Biso   1.000  H
  C383     1.0000 0.31990  0.63504  0.69161  Biso   1.000  C
  C384     1.0000 0.34170  0.61754  0.71125  Biso   1.000  C
  C385     1.0000 0.34040  0.59476  0.70525  Biso   1.000  C
  H498     1.0000 0.32730  0.58820  0.68810  Biso   1.000  H
  C386     1.0000 0.37840  0.59610  0.75198  Biso   1.000  C
  C387     1.0000 0.39310  0.59048  0.78077  Biso   1.000  C
  C388     1.0000 0.45760  0.59209  0.82506  Biso   1.000  C
  C389     1.0000 0.50890  0.59490  0.84950  Biso   1.000  C
  C390     1.0000 0.38040  0.55485  0.72938  Biso   1.000  C
  H499     1.0000 0.39370  0.54960  0.74800  Biso   1.000  H
  H500     1.0000 0.33600  0.54640  0.72400  Biso   1.000  H
  C391     1.0000 0.44060  0.54835  0.70986  Biso   1.000  C
  H501     1.0000 0.42970  0.55430  0.69130  Biso   1.000  H
  H502     1.0000 0.48670  0.55540  0.71600  Biso   1.000  H
  C392     1.0000 0.51560  0.51656  0.69434  Biso   1.000  C
  H503     1.0000 0.55520  0.52690  0.70040  Biso   1.000  H
  H504     1.0000 0.52970  0.50020  0.69820  Biso   1.000  H
  C393     1.0000 0.57120  0.51350  0.64980  Biso   1.000  C
  H505     1.0000 0.56410  0.51490  0.63000  Biso   1.000  H
  H506     1.0000 0.58450  0.49740  0.65430  Biso   1.000  H
  H507     1.0000 0.60970  0.52410  0.65570  Biso   1.000  H
  C394     1.0000 0.23130  0.56980  0.81250  Biso   1.000  C
  H508     1.0000 0.24710  0.56920  0.83190  Biso   1.000  H
  H509     1.0000 0.21610  0.58590  0.80810  Biso   1.000  H
  C395     1.0000 0.16990  0.55280  0.80760  Biso   1.000  C
  H510     1.0000 0.15060  0.54690  0.82510  Biso   1.000  H
  H511     1.0000 0.18620  0.53950  0.79630  Biso   1.000  H
  C396     1.0000 0.36340  0.58139  0.73026  Biso   1.000  C
  C397     1.0000 0.36290  0.57667  0.79775  Biso   1.000  C
  C398     1.0000 0.40470  0.57635  0.82497  Biso   1.000  C
  H512     1.0000 0.39420  0.56620  0.83980  Biso   1.000  H
  C399     1.0000 0.44690  0.52246  0.70937  Biso   1.000  C
  H513     1.0000 0.40480  0.51550  0.69990  Biso   1.000  H
  H514     1.0000 0.44860  0.51620  0.72830  Biso   1.000  H
  C400     1.0000 0.50200  0.51970  0.66440  Biso   1.000  C
  H515     1.0000 0.48850  0.53610  0.66050  Biso   1.000  H
  H516     1.0000 0.46220  0.50950  0.65830  Biso   1.000  H
  C401     1.0000 0.29210  0.56210  0.79370  Biso   1.000  C
  H517     1.0000 0.27600  0.56360  0.77440  Biso   1.000  H
  H518     1.0000 0.30280  0.54540  0.79710  Biso   1.000  H
  C402     1.0000 0.11340  0.56710  0.79250  Biso   1.000  C
  H519     1.0000 0.13200  0.57240  0.77450  Biso   1.000  H
  H520     1.0000 0.09920  0.58090  0.80340  Biso   1.000  H
  C403     1.0000 0.04980  0.55060  0.78890  Biso   1.000  C
  H521     1.0000 0.04700  0.53950  0.80430  Biso   1.000  H
  H522     1.0000 0.00390  0.55940  0.78780  Biso   1.000  H
  C404     1.0000 0.06500  0.53790  0.76220  Biso   1.000  C
  H523     1.0000 0.02500  0.52700  0.75850  Biso   1.000  H
  H524     1.0000 0.11000  0.52930  0.76370  Biso   1.000  H
  H525     1.0000 0.06800  0.54920  0.74730  Biso   1.000  H
  O49      1.0000 0.03290  0.58925  0.44558  Biso   1.000  O
  O50      1.0000 0.02750  0.61763  0.41570  Biso   1.000  O
  O51      1.0000 0.25840  0.62741  0.60469  Biso   1.000  O
  O52      1.0000 0.19100  0.65420  0.62772  Biso   1.000  O
  O53      1.0000 0.18140  0.63726  0.40577  Biso   1.000  O
  O54      1.0000 0.23140  0.67189  0.38946  Biso   1.000  O
  O55      1.0000 0.39990  0.58535  0.55536  Biso   1.000  O
  O56      1.0000 0.40570  0.60985  0.59032  Biso   1.000  O
  O57      1.0000 0.93150  0.59509  0.36974  Biso   1.000  O
  O58      1.0000 0.00340  0.62272  0.35193  Biso   1.000  O
  O59      1.0000 0.84310  0.64123  0.15551  Biso   1.000  O
  O60      1.0000 0.83080  0.66663  0.18989  Biso   1.000  O
  O61      1.0000 0.04560  0.66347  0.38874  Biso   1.000  O
  O62      1.0000 0.10050  0.69094  0.36303  Biso   1.000  O
  O63      1.0000 0.82170  0.81872  0.35795  Biso   1.000  O
  O64      1.0000 0.89450  0.84607  0.37901  Biso   1.000  O
  O65      1.0000 0.31510  0.58401  0.63644  Biso   1.000  O
  O66      1.0000 0.37740  0.55777  0.61152  Biso   1.000  O
  O67      1.0000 0.05850  0.43271  0.61430  Biso   1.000  O
  O68      1.0000 0.13200  0.40525  0.62783  Biso   1.000  O
  O69      1.0000 0.30740  0.65665  0.69900  Biso   1.000  O
  O70      1.0000 0.29880  0.62960  0.66620  Biso   1.000  O
  O71      1.0000 0.55110  0.61094  0.84832  Biso   1.000  O
  O72      1.0000 0.48630  0.58239  0.87035  Biso   1.000  O
  S25      1.0000 0.07661  0.61656  0.49415  Biso   1.000  S
  S26      1.0000 0.17751  0.63346  0.55074  Biso   1.000  S
  S27      1.0000 0.25320  0.64027  0.46111  Biso   1.000  S
  S28      1.0000 0.35308  0.61858  0.51308  Biso   1.000  S
  S29      1.0000 0.94588  0.61686  0.29364  Biso   1.000  S
  S30      1.0000 0.86575  0.63540  0.23552  Biso   1.000  S
  S31      1.0000 0.03090  0.73109  0.38137  Biso   1.000  S
  S32      1.0000 0.89575  0.77767  0.38048  Biso   1.000  S
  S33      1.0000 0.30228  0.51629  0.63075  Biso   1.000  S
  S34      1.0000 0.13973  0.47287  0.63284  Biso   1.000  S
  S35      1.0000 0.36370  0.62548  0.74318  Biso   1.000  S
  S36      1.0000 0.46699  0.60613  0.79530  Biso   1.000  S
  Mn13     1.0000 0.97108  0.58328  0.40670  Biso   1.000  Mn
  Mn14     1.0000 0.09034  0.62966  0.37962  Biso   1.000  Mn
  Mn15     1.0000 0.20169  0.67846  0.35096  Biso   1.000  Mn
  Mn16     1.0000 0.46390  0.57472  0.59299  Biso   1.000  Mn
  Mn17     1.0000 0.35257  0.61931  0.62859  Biso   1.000  Mn
  Mn18     1.0000 0.24126  0.66490  0.66237  Biso   1.000  Mn
  H526     1.0000 0.97750  0.66860  0.53130  Biso   1.000  H
  H527     1.0000 0.01570  0.69100  0.54490  Biso   1.000  H
  C405     1.0000 0.95180  0.67230  0.57340  Biso   1.000  C
  H528     1.0000 0.97250  0.68030  0.58960  Biso   1.000  H
  H529     1.0000 0.94230  0.65580  0.57800  Biso   1.000  H
  C406     1.0000 0.88220  0.68470  0.56310  Biso   1.000  C
  H530     1.0000 0.88630  0.70190  0.56460  Biso   1.000  H
  H531     1.0000 0.87100  0.68050  0.54390  Biso   1.000  H
  C407     1.0000 0.82490  0.67480  0.58320  Biso   1.000  C
  H532     1.0000 0.84630  0.67140  0.60130  Biso   1.000  H
  H533     1.0000 0.80210  0.66050  0.57580  Biso   1.000  H
  C408     1.0000 0.77020  0.69530  0.58470  Biso   1.000  C
  H534     1.0000 0.72730  0.69240  0.57310  Biso   1.000  H
  H535     1.0000 0.79270  0.71030  0.57930  Biso   1.000  H
  C409     1.0000 0.75100  0.69490  0.61580  Biso   1.000  C
  H536     1.0000 0.71030  0.70550  0.61920  Biso   1.000  H
  H537     1.0000 0.79260  0.69990  0.62650  Biso   1.000  H
  H538     1.0000 0.73690  0.67900  0.62110  Biso   1.000  H
  H539     1.0000 0.45250  0.44410  0.76810  Biso   1.000  H
  H540     1.0000 0.50530  0.45690  0.74660  Biso   1.000  H
  H541     1.0000 0.50490  0.41420  0.74140  Biso   1.000  H
  H542     1.0000 0.48520  0.42760  0.71370  Biso   1.000  H
  H543     1.0000 0.42250  0.41620  0.73180  Biso   1.000  H
  C410     1.0000 0.46100  0.44720  0.74850  Biso   1.000  C
  C411     1.0000 0.46900  0.42420  0.73240  Biso   1.000  C
  C412     1.0000 0.42500  0.21760  0.54410  Biso   1.000  C
  H544     1.0000 0.39980  0.21290  0.56080  Biso   1.000  H
  H545     1.0000 0.47160  0.20930  0.54310  Biso   1.000  H
  H546     1.0000 0.39600  0.21370  0.52810  Biso   1.000  H
  C413     1.0000 0.35700  0.15880  0.51770  Biso   1.000  C
  H547     1.0000 0.39630  0.14730  0.51670  Biso   1.000  H
  H548     1.0000 0.31220  0.15110  0.52440  Biso   1.000  H
  C414     1.0000 0.34400  0.17120  0.48950  Biso   1.000  C
  H549     1.0000 0.37600  0.18490  0.48730  Biso   1.000  H
  H550     1.0000 0.29320  0.17590  0.48710  Biso   1.000  H
  C415     1.0000 0.36600  0.15090  0.46960  Biso   1.000  C
  H551     1.0000 0.32210  0.14430  0.46120  Biso   1.000  H
  H552     1.0000 0.39080  0.13860  0.47990  Biso   1.000  H
  H553     1.0000 0.39770  0.15690  0.45530  Biso   1.000  H
  C416     1.0000 0.83930  0.14721  0.50658  Biso   1.000  C
  C417     1.0000 0.84350  0.16055  0.53031  Biso   1.000  C
  C418     1.0000 0.85820  0.14683  0.55240  Biso   1.000  C
  H554     1.0000 0.86180  0.15300  0.57040  Biso   1.000  H
  C419     1.0000 0.86710  0.12448  0.54728  Biso   1.000  C
  C420     1.0000 0.53770  0.10942  0.44027  Biso   1.000  C
  C421     1.0000 0.56410  0.12705  0.46221  Biso   1.000  C
  C422     1.0000 0.56780  0.15011  0.45991  Biso   1.000  C
  H555     1.0000 0.56000  0.15840  0.44330  Biso   1.000  H
  C423     1.0000 0.58550  0.16138  0.48630  Biso   1.000  C
  C424     1.0000 0.58940  0.14449  0.50597  Biso   1.000  C
  C425     1.0000 0.60460  0.14771  0.53563  Biso   1.000  C
  C426     1.0000 0.56830  0.15970  0.55500  Biso   1.000  C
  C427     1.0000 0.60670  0.15992  0.58023  Biso   1.000  C
  H556     1.0000 0.59230  0.16950  0.59510  Biso   1.000  H
  C428     1.0000 0.66220  0.14633  0.58189  Biso   1.000  C
  C429     1.0000 0.71010  0.14202  0.60623  Biso   1.000  C
  C430     1.0000 0.59420  0.18684  0.48840  Biso   1.000  C
  H557     1.0000 0.60560  0.19110  0.50760  Biso   1.000  H
  H558     1.0000 0.54830  0.19460  0.48340  Biso   1.000  H
  C431     1.0000 0.65420  0.19550  0.46970  Biso   1.000  C
  H559     1.0000 0.70140  0.18880  0.47520  Biso   1.000  H
  H560     1.0000 0.64440  0.19120  0.45040  Biso   1.000  H
  C432     1.0000 0.65380  0.22178  0.47340  Biso   1.000  C
  H561     1.0000 0.60810  0.22860  0.46650  Biso   1.000  H
  H562     1.0000 0.65950  0.22600  0.49290  Biso   1.000  H
  C433     1.0000 0.71740  0.23045  0.45677  Biso   1.000  C
  H563     1.0000 0.72880  0.24680  0.46150  Biso   1.000  H
  H564     1.0000 0.76070  0.22070  0.46020  Biso   1.000  H
  C434     1.0000 0.69450  0.22860  0.42740  Biso   1.000  C
  H565     1.0000 0.65520  0.23980  0.42340  Biso   1.000  H
  H566     1.0000 0.67700  0.21260  0.42330  Biso   1.000  H
  C435     1.0000 0.76060  0.23410  0.41050  Biso   1.000  C
  H567     1.0000 0.74890  0.23270  0.39100  Biso   1.000  H
  H568     1.0000 0.79930  0.22320  0.41510  Biso   1.000  H
  H569     1.0000 0.77650  0.25010  0.41450  Biso   1.000  H
  C436     1.0000 0.50180  0.17460  0.54800  Biso   1.000  C
  H570     1.0000 0.49950  0.17570  0.52780  Biso   1.000  H
  H571     1.0000 0.51150  0.19050  0.55490  Biso   1.000  H
  C437     1.0000 0.42500  0.16760  0.55810  Biso   1.000  C
  H572     1.0000 0.41520  0.17370  0.57670  Biso   1.000  H
  H573     1.0000 0.41780  0.15050  0.55780  Biso   1.000  H
  C438     1.0000 0.37760  0.18020  0.53600  Biso   1.000  C
  H574     1.0000 0.33450  0.18770  0.54420  Biso   1.000  H
  H575     1.0000 0.40560  0.19190  0.52560  Biso   1.000  H
  C439     1.0000 0.71710  0.15410  0.40780  Biso   1.000  C
  C440     1.0000 0.77320  0.15712  0.43351  Biso   1.000  C
  C441     1.0000 0.82260  0.17270  0.43669  Biso   1.000  C
  H576     1.0000 0.83480  0.18400  0.42330  Biso   1.000  H
  C442     1.0000 0.85700  0.17070  0.46285  Biso   1.000  C
  C443     1.0000 0.82190  0.15390  0.47852  Biso   1.000  C
  C444     1.0000 0.89090  0.10563  0.56448  Biso   1.000  C
  C445     1.0000 0.91750  0.18560  0.47110  Biso   1.000  C
  H577     1.0000 0.92730  0.18330  0.49090  Biso   1.000  H
  H578     1.0000 0.90410  0.20210  0.46830  Biso   1.000  H
  C446     1.0000 0.98570  0.18030  0.45490  Biso   1.000  C
  H579     1.0000 0.02380  0.19200  0.45880  Biso   1.000  H
  H580     1.0000 0.97570  0.18030  0.43500  Biso   1.000  H
  C447     1.0000 0.00840  0.15620  0.46460  Biso   1.000  C
  H581     1.0000 0.02890  0.15690  0.48330  Biso   1.000  H
  H582     1.0000 0.96670  0.14540  0.46460  Biso   1.000  H
  C448     1.0000 0.06530  0.14840  0.44400  Biso   1.000  C
  H583     1.0000 0.09780  0.13650  0.45220  Biso   1.000  H
  H584     1.0000 0.04240  0.14170  0.42740  Biso   1.000  H
  C449     1.0000 0.10650  0.17050  0.43710  Biso   1.000  C
  H585     1.0000 0.15730  0.16700  0.43230  Biso   1.000  H
  H586     1.0000 0.10590  0.18160  0.45270  Biso   1.000  H
  C450     1.0000 0.06600  0.18060  0.41260  Biso   1.000  C
  H587     1.0000 0.09700  0.19190  0.40320  Biso   1.000  H
  H588     1.0000 0.02200  0.18830  0.41890  Biso   1.000  H
  H589     1.0000 0.05360  0.16800  0.39990  Biso   1.000  H
  C451     1.0000 0.82110  0.18675  0.53305  Biso   1.000  C
  H590     1.0000 0.86380  0.19580  0.53910  Biso   1.000  H
  H591     1.0000 0.80710  0.19260  0.51470  Biso   1.000  H
  C452     1.0000 0.75950  0.19152  0.55286  Biso   1.000  C
  H592     1.0000 0.71390  0.18470  0.54600  Biso   1.000  H
  H593     1.0000 0.77010  0.18480  0.57110  Biso   1.000  H
  C453     1.0000 0.75350  0.21761  0.55460  Biso   1.000  C
  H594     1.0000 0.76310  0.22490  0.53660  Biso   1.000  H
  H595     1.0000 0.78800  0.22400  0.56820  Biso   1.000  H
  C454     1.0000 0.67650  0.22190  0.56350  Biso   1.000  C
  H596     1.0000 0.65340  0.23380  0.55170  Biso   1.000  H
  H597     1.0000 0.64790  0.20740  0.56250  Biso   1.000  H
  C455     1.0000 0.68180  0.23050  0.59260  Biso   1.000  C
  H598     1.0000 0.72610  0.22460  0.60160  Biso   1.000  H
  H599     1.0000 0.63930  0.22550  0.60350  Biso   1.000  H
  C456     1.0000 0.68400  0.25690  0.58980  Biso   1.000  C
  H600     1.0000 0.69200  0.26400  0.60780  Biso   1.000  H
  H601     1.0000 0.63830  0.26250  0.58220  Biso   1.000  H
  H602     1.0000 0.72380  0.26130  0.57750  Biso   1.000  H
  C457     1.0000 0.45590  0.10850  0.35080  Biso   1.000  C
  C458     1.0000 0.34550  0.08669  0.29084  Biso   1.000  C
  C459     1.0000 0.42250  0.10315  0.32203  Biso   1.000  C
  C460     1.0000 0.37280  0.08640  0.31740  Biso   1.000  C
  H603     1.0000 0.35800  0.07550  0.33090  Biso   1.000  H
  C461     1.0000 0.38070  0.10165  0.27405  Biso   1.000  C
  C462     1.0000 0.38110  0.10703  0.24547  Biso   1.000  C
  C463     1.0000 0.37910  0.09300  0.22303  Biso   1.000  C
  C464     1.0000 0.37150  0.10434  0.19729  Biso   1.000  C
  H604     1.0000 0.37170  0.09700  0.17980  Biso   1.000  H
  C465     1.0000 0.36380  0.12769  0.20213  Biso   1.000  C
  C466     1.0000 0.34780  0.14611  0.18145  Biso   1.000  C
  C467     1.0000 0.27990  0.07330  0.28000  Biso   1.000  C
  H605     1.0000 0.29250  0.05650  0.27960  Biso   1.000  H
  H606     1.0000 0.27120  0.07820  0.26090  Biso   1.000  H
  C468     1.0000 0.20840  0.07600  0.29610  Biso   1.000  C
  H607     1.0000 0.21720  0.07770  0.31600  Biso   1.000  H
  H608     1.0000 0.17570  0.06260  0.29290  Biso   1.000  H
  C469     1.0000 0.17690  0.09890  0.28360  Biso   1.000  C
  H609     1.0000 0.14050  0.09560  0.26930  Biso   1.000  H
  H610     1.0000 0.21540  0.10900  0.27600  Biso   1.000  H
  C470     1.0000 0.14180  0.10990  0.30990  Biso   1.000  C
  H611     1.0000 0.14490  0.09930  0.32580  Biso   1.000  H
  H612     1.0000 0.09080  0.11430  0.30670  Biso   1.000  H
  C471     1.0000 0.19100  0.13190  0.31350  Biso   1.000  C
  H613     1.0000 0.24040  0.12920  0.30590  Biso   1.000  H
  H614     1.0000 0.17010  0.14590  0.30490  Biso   1.000  H
  C472     1.0000 0.19300  0.13390  0.34550  Biso   1.000  C
  H615     1.0000 0.22610  0.14640  0.35090  Biso   1.000  H
  H616     1.0000 0.20940  0.11910  0.35340  Biso   1.000  H
  H617     1.0000 0.14430  0.13750  0.35220  Biso   1.000  H
  C473     1.0000 0.39120  0.06630  0.22330  Biso   1.000  C
  H618     1.0000 0.39440  0.06080  0.24250  Biso   1.000  H
  H619     1.0000 0.34940  0.05850  0.21460  Biso   1.000  H
  C474     1.0000 0.46030  0.05962  0.20810  Biso   1.000  C
  H620     1.0000 0.45900  0.06540  0.18900  Biso   1.000  H
  H621     1.0000 0.50330  0.06620  0.21740  Biso   1.000  H
  C475     1.0000 0.46180  0.03329  0.20870  Biso   1.000  C
  H622     1.0000 0.45040  0.02750  0.22730  Biso   1.000  H
  H623     1.0000 0.42610  0.02680  0.19570  Biso   1.000  H
  C476     1.0000 0.53700  0.02630  0.20060  Biso   1.000  C
  H624     1.0000 0.54480  0.00950  0.20440  Biso   1.000  H
  H625     1.0000 0.57310  0.03540  0.21110  Biso   1.000  H
  C477     1.0000 0.54420  0.03120  0.17040  Biso   1.000  C
  H626     1.0000 0.55040  0.04810  0.16700  Biso   1.000  H
  H627     1.0000 0.50120  0.02560  0.16020  Biso   1.000  H
  C478     1.0000 0.61150  0.01770  0.16190  Biso   1.000  C
  H628     1.0000 0.62210  0.02070  0.14260  Biso   1.000  H
  H629     1.0000 0.60310  0.00100  0.16460  Biso   1.000  H
  H630     1.0000 0.65250  0.02260  0.17320  Biso   1.000  H
  C479     1.0000 0.55230  0.18387  0.38080  Biso   1.000  C
  C480     1.0000 0.52860  0.20369  0.39260  Biso   1.000  C
  C481     1.0000 0.47950  0.20290  0.41270  Biso   1.000  C
  H631     1.0000 0.46760  0.18830  0.42070  Biso   1.000  H
  C482     1.0000 0.43830  0.22700  0.42430  Biso   1.000  C
  C483     1.0000 0.47450  0.24272  0.40420  Biso   1.000  C
  C484     1.0000 0.46100  0.26778  0.40420  Biso   1.000  C
  C485     1.0000 0.49180  0.28530  0.41540  Biso   1.000  C
  C486     1.0000 0.46880  0.30799  0.40730  Biso   1.000  C
  H632     1.0000 0.48760  0.32220  0.41430  Biso   1.000  H
  C487     1.0000 0.41610  0.30618  0.38828  Biso   1.000  C
  C488     1.0000 0.37370  0.32558  0.37490  Biso   1.000  C
  C489     1.0000 0.39590  0.22700  0.45090  Biso   1.000  C
  H633     1.0000 0.39100  0.21110  0.45860  Biso   1.000  H
  H634     1.0000 0.34750  0.23410  0.44860  Biso   1.000  H
  C490     1.0000 0.44650  0.24250  0.46840  Biso   1.000  C
  H635     1.0000 0.44830  0.25870  0.46140  Biso   1.000  H
  H636     1.0000 0.49610  0.23610  0.46920  Biso   1.000  H
  C491     1.0000 0.40860  0.24140  0.49710  Biso   1.000  C
  H637     1.0000 0.39000  0.22560  0.50120  Biso   1.000  H
  H638     1.0000 0.36890  0.25290  0.49870  Biso   1.000  H
  C492     1.0000 0.47430  0.24800  0.51590  Biso   1.000  C
  H639     1.0000 0.51580  0.23730  0.51310  Biso   1.000  H
  H640     1.0000 0.49010  0.26430  0.51300  Biso   1.000  H
  C493     1.0000 0.43930  0.24450  0.54480  Biso   1.000  C
  H641     1.0000 0.39380  0.25340  0.54660  Biso   1.000  H
  H642     1.0000 0.47280  0.24890  0.55970  Biso   1.000  H
  C494     1.0000 0.55890  0.28450  0.43350  Biso   1.000  C
  H643     1.0000 0.59500  0.29420  0.42380  Biso   1.000  H
  H644     1.0000 0.57650  0.26820  0.43190  Biso   1.000  H
  C495     1.0000 0.56800  0.29070  0.46420  Biso   1.000  C
  H645     1.0000 0.53780  0.28070  0.47600  Biso   1.000  H
  H646     1.0000 0.55620  0.30730  0.46770  Biso   1.000  H
  C496     1.0000 0.64980  0.28580  0.46830  Biso   1.000  C
  H647     1.0000 0.65900  0.26900  0.47150  Biso   1.000  H
  H648     1.0000 0.67870  0.29110  0.45240  Biso   1.000  H
  C497     1.0000 0.66600  0.30050  0.49420  Biso   1.000  C
  H649     1.0000 0.63470  0.31440  0.49530  Biso   1.000  H
  H650     1.0000 0.71740  0.30540  0.49480  Biso   1.000  H
  C498     1.0000 0.64800  0.28260  0.51720  Biso   1.000  C
  H651     1.0000 0.63410  0.26730  0.50960  Biso   1.000  H
  H652     1.0000 0.61010  0.28850  0.52960  Biso   1.000  H
  C499     1.0000 0.72300  0.28130  0.53200  Biso   1.000  C
  H653     1.0000 0.72980  0.26570  0.53960  Biso   1.000  H
  H654     1.0000 0.72440  0.29290  0.54680  Biso   1.000  H
  H655     1.0000 0.76160  0.28470  0.51880  Biso   1.000  H
  C500     1.0000 0.82860  0.06405  0.62990  Biso   1.000  C
  C501     1.0000 0.78460  0.04331  0.64300  Biso   1.000  C
  C502     1.0000 0.73640  0.04512  0.66170  Biso   1.000  C
  H656     1.0000 0.72400  0.05920  0.67080  Biso   1.000  H
  C503     1.0000 0.70450  0.02324  0.66670  Biso   1.000  C
  C504     1.0000 0.73420  0.00481  0.65161  Biso   1.000  C
  C505     1.0000 0.71400  0.98067  0.64960  Biso   1.000  C
  C506     1.0000 0.75460  0.96080  0.65840  Biso   1.000  C
  C507     1.0000 0.65990  0.94291  0.63755  Biso   1.000  C
  C508     1.0000 0.72370  0.94026  0.65190  Biso   1.000  C
  H657     1.0000 0.74370  0.92560  0.65660  Biso   1.000  H
  C509     1.0000 0.61770  0.92591  0.62530  Biso   1.000  C
  C510     1.0000 0.65300  0.01890  0.68880  Biso   1.000  C
  H658     1.0000 0.63580  0.00270  0.68600  Biso   1.000  H
  H659     1.0000 0.61120  0.02910  0.68500  Biso   1.000  H
  C511     1.0000 0.66750  0.02120  0.71947  Biso   1.000  C
  H660     1.0000 0.62340  0.01760  0.73020  Biso   1.000  H
  H661     1.0000 0.68380  0.03710  0.72410  Biso   1.000  H
  C512     1.0000 0.72710  0.00330  0.72529  Biso   1.000  C
  H662     1.0000 0.71310  0.98770  0.71860  Biso   1.000  H
  H663     1.0000 0.77300  0.00800  0.71650  Biso   1.000  H
  C513     1.0000 0.73430  0.00340  0.75652  Biso   1.000  C
  H664     1.0000 0.74640  0.01920  0.76330  Biso   1.000  H
  H665     1.0000 0.68880  0.99830  0.76530  Biso   1.000  H
  C514     1.0000 0.79510  0.98640  0.76260  Biso   1.000  C
  H666     1.0000 0.78180  0.97040  0.75680  Biso   1.000  H
  H667     1.0000 0.83990  0.99100  0.75290  Biso   1.000  H
  C515     1.0000 0.80570  0.98750  0.79340  Biso   1.000  C
  H668     1.0000 0.84380  0.97660  0.79880  Biso   1.000  H
  H669     1.0000 0.76040  0.98330  0.80260  Biso   1.000  H
  H670     1.0000 0.81950  0.00340  0.79870  Biso   1.000  H
  C516     1.0000 0.82300  0.96320  0.66880  Biso   1.000  C
  H671     1.0000 0.83360  0.97990  0.67250  Biso   1.000  H
  H672     1.0000 0.85920  0.95730  0.65560  Biso   1.000  H
  C517     1.0000 0.82540  0.94910  0.69540  Biso   1.000  C
  H673     1.0000 0.81420  0.93250  0.69200  Biso   1.000  H
  H674     1.0000 0.79130  0.95540  0.70920  Biso   1.000  H
  C518     1.0000 0.90450  0.95240  0.70460  Biso   1.000  C
  H675     1.0000 0.93260  0.93780  0.70240  Biso   1.000  H
  H676     1.0000 0.92840  0.96500  0.69410  Biso   1.000  H
  C519     1.0000 0.89600  0.95900  0.73500  Biso   1.000  C
  H677     1.0000 0.89720  0.97610  0.73760  Biso   1.000  H
  H678     1.0000 0.85000  0.95280  0.74260  Biso   1.000  H
  C520     1.0000 0.81990  0.13504  0.69161  Biso   1.000  C
  C521     1.0000 0.84170  0.11754  0.71125  Biso   1.000  C
  C522     1.0000 0.84040  0.09476  0.70525  Biso   1.000  C
  H679     1.0000 0.82730  0.08820  0.68810  Biso   1.000  H
  C523     1.0000 0.87840  0.09610  0.75198  Biso   1.000  C
  C524     1.0000 0.89310  0.09048  0.78077  Biso   1.000  C
  C525     1.0000 0.95760  0.09209  0.82506  Biso   1.000  C
  C526     1.0000 0.00890  0.09490  0.84950  Biso   1.000  C
  C527     1.0000 0.88040  0.05485  0.72938  Biso   1.000  C
  H680     1.0000 0.89370  0.04960  0.74800  Biso   1.000  H
  H681     1.0000 0.83600  0.04640  0.72400  Biso   1.000  H
  C528     1.0000 0.94060  0.04835  0.70986  Biso   1.000  C
  H682     1.0000 0.92970  0.05430  0.69130  Biso   1.000  H
  H683     1.0000 0.98670  0.05540  0.71600  Biso   1.000  H
  C529     1.0000 0.01560  0.01656  0.69434  Biso   1.000  C
  H684     1.0000 0.05520  0.02690  0.70040  Biso   1.000  H
  H685     1.0000 0.02970  0.00020  0.69820  Biso   1.000  H
  C530     1.0000 0.07120  0.01350  0.64980  Biso   1.000  C
  H686     1.0000 0.06410  0.01490  0.63000  Biso   1.000  H
  H687     1.0000 0.08450  0.99740  0.65430  Biso   1.000  H
  H688     1.0000 0.10970  0.02410  0.65570  Biso   1.000  H
  C531     1.0000 0.73130  0.06980  0.81250  Biso   1.000  C
  H689     1.0000 0.74710  0.06920  0.83190  Biso   1.000  H
  H690     1.0000 0.71610  0.08590  0.80810  Biso   1.000  H
  C532     1.0000 0.66990  0.05280  0.80760  Biso   1.000  C
  H691     1.0000 0.65060  0.04690  0.82510  Biso   1.000  H
  H692     1.0000 0.68620  0.03950  0.79630  Biso   1.000  H
  C533     1.0000 0.86340  0.08139  0.73026  Biso   1.000  C
  C534     1.0000 0.86290  0.07667  0.79775  Biso   1.000  C
  C535     1.0000 0.90470  0.07635  0.82497  Biso   1.000  C
  H693     1.0000 0.89420  0.06620  0.83980  Biso   1.000  H
  C536     1.0000 0.94690  0.02246  0.70937  Biso   1.000  C
  H694     1.0000 0.90480  0.01550  0.69990  Biso   1.000  H
  H695     1.0000 0.94860  0.01620  0.72830  Biso   1.000  H
  C537     1.0000 0.00200  0.01970  0.66440  Biso   1.000  C
  H696     1.0000 0.98850  0.03610  0.66050  Biso   1.000  H
  H697     1.0000 0.96220  0.00950  0.65830  Biso   1.000  H
  C538     1.0000 0.79210  0.06210  0.79370  Biso   1.000  C
  H698     1.0000 0.77600  0.06360  0.77440  Biso   1.000  H
  H699     1.0000 0.80280  0.04540  0.79710  Biso   1.000  H
  C539     1.0000 0.61340  0.06710  0.79250  Biso   1.000  C
  H700     1.0000 0.63200  0.07240  0.77450  Biso   1.000  H
  H701     1.0000 0.59920  0.08090  0.80340  Biso   1.000  H
  C540     1.0000 0.54980  0.05060  0.78890  Biso   1.000  C
  H702     1.0000 0.54700  0.03950  0.80430  Biso   1.000  H
  H703     1.0000 0.50390  0.05940  0.78780  Biso   1.000  H
  C541     1.0000 0.56500  0.03790  0.76220  Biso   1.000  C
  H704     1.0000 0.52500  0.02700  0.75850  Biso   1.000  H
  H705     1.0000 0.61000  0.02930  0.76370  Biso   1.000  H
  H706     1.0000 0.56800  0.04920  0.74730  Biso   1.000  H
  O73      1.0000 0.53290  0.08925  0.44558  Biso   1.000  O
  O74      1.0000 0.52750  0.11763  0.41570  Biso   1.000  O
  O75      1.0000 0.75840  0.12741  0.60469  Biso   1.000  O
  O76      1.0000 0.69100  0.15420  0.62772  Biso   1.000  O
  O77      1.0000 0.68140  0.13726  0.40577  Biso   1.000  O
  O78      1.0000 0.73140  0.17189  0.38946  Biso   1.000  O
  O79      1.0000 0.89990  0.08535  0.55536  Biso   1.000  O
  O80      1.0000 0.90570  0.10985  0.59032  Biso   1.000  O
  O81      1.0000 0.43150  0.09509  0.36974  Biso   1.000  O
  O82      1.0000 0.50340  0.12272  0.35193  Biso   1.000  O
  O83      1.0000 0.34310  0.14123  0.15551  Biso   1.000  O
  O84      1.0000 0.33080  0.16663  0.18989  Biso   1.000  O
  O85      1.0000 0.54560  0.16347  0.38874  Biso   1.000  O
  O86      1.0000 0.60050  0.19094  0.36303  Biso   1.000  O
  O87      1.0000 0.32170  0.31872  0.35795  Biso   1.000  O
  O88      1.0000 0.39450  0.34607  0.37901  Biso   1.000  O
  O89      1.0000 0.81510  0.08401  0.63644  Biso   1.000  O
  O90      1.0000 0.87740  0.05777  0.61152  Biso   1.000  O
  O91      1.0000 0.55850  0.93271  0.61430  Biso   1.000  O
  O92      1.0000 0.63200  0.90525  0.62783  Biso   1.000  O
  O93      1.0000 0.80740  0.15665  0.69900  Biso   1.000  O
  O94      1.0000 0.79880  0.12960  0.66620  Biso   1.000  O
  O95      1.0000 0.05110  0.11094  0.84832  Biso   1.000  O
  O96      1.0000 0.98630  0.08239  0.87035  Biso   1.000  O
  S37      1.0000 0.57661  0.11656  0.49415  Biso   1.000  S
  S38      1.0000 0.67751  0.13346  0.55074  Biso   1.000  S
  S39      1.0000 0.75320  0.14027  0.46111  Biso   1.000  S
  S40      1.0000 0.85308  0.11858  0.51308  Biso   1.000  S
  S41      1.0000 0.44588  0.11686  0.29364  Biso   1.000  S
  S42      1.0000 0.36575  0.13540  0.23552  Biso   1.000  S
  S43      1.0000 0.53090  0.23109  0.38137  Biso   1.000  S
  S44      1.0000 0.39575  0.27767  0.38048  Biso   1.000  S
  S45      1.0000 0.80228  0.01629  0.63075  Biso   1.000  S
  S46      1.0000 0.63973  0.97287  0.63284  Biso   1.000  S
  S47      1.0000 0.86370  0.12548  0.74318  Biso   1.000  S
  S48      1.0000 0.96699  0.10613  0.79530  Biso   1.000  S
  Mn19     1.0000 0.47108  0.08328  0.40670  Biso   1.000  Mn
  Mn20     1.0000 0.59034  0.12966  0.37962  Biso   1.000  Mn
  Mn21     1.0000 0.70169  0.17846  0.35096  Biso   1.000  Mn
  Mn22     1.0000 0.96390  0.07472  0.59299  Biso   1.000  Mn
  Mn23     1.0000 0.85257  0.11931  0.62859  Biso   1.000  Mn
  Mn24     1.0000 0.74126  0.16490  0.66237  Biso   1.000  Mn
  H707     1.0000 0.47750  0.16860  0.53130  Biso   1.000  H
  H708     1.0000 0.51570  0.19100  0.54490  Biso   1.000  H
  C542     1.0000 0.45180  0.17230  0.57340  Biso   1.000  C
  H709     1.0000 0.47250  0.18030  0.58960  Biso   1.000  H
  H710     1.0000 0.44230  0.15580  0.57800  Biso   1.000  H
  C543     1.0000 0.38220  0.18470  0.56310  Biso   1.000  C
  H711     1.0000 0.38630  0.20190  0.56460  Biso   1.000  H
  H712     1.0000 0.37100  0.18050  0.54390  Biso   1.000  H
  C544     1.0000 0.32490  0.17480  0.58320  Biso   1.000  C
  H713     1.0000 0.34630  0.17140  0.60130  Biso   1.000  H
  H714     1.0000 0.30210  0.16050  0.57580  Biso   1.000  H
  C545     1.0000 0.27020  0.19530  0.58470  Biso   1.000  C
  H715     1.0000 0.22730  0.19240  0.57310  Biso   1.000  H
  H716     1.0000 0.29270  0.21030  0.57930  Biso   1.000  H
  C546     1.0000 0.25100  0.19490  0.61580  Biso   1.000  C
  H717     1.0000 0.21030  0.20550  0.61920  Biso   1.000  H
  H718     1.0000 0.29260  0.19990  0.62650  Biso   1.000  H
  H719     1.0000 0.23690  0.17900  0.62110  Biso   1.000  H
  H720     1.0000 0.95250  0.94410  0.76810  Biso   1.000  H
  H721     1.0000 0.00530  0.95690  0.74660  Biso   1.000  H
  H722     1.0000 0.00490  0.91420  0.74140  Biso   1.000  H
  H723     1.0000 0.98520  0.92760  0.71370  Biso   1.000  H
  H724     1.0000 0.92250  0.91620  0.73180  Biso   1.000  H
  C547     1.0000 0.96100  0.94720  0.74850  Biso   1.000  C
  C548     1.0000 0.96900  0.92420  0.73240  Biso   1.000  C
  C549     1.0000 0.92500  0.28240  0.45590  Biso   1.000  C
  H725     1.0000 0.89980  0.28710  0.43920  Biso   1.000  H
  H726     1.0000 0.97160  0.29070  0.45690  Biso   1.000  H
  H727     1.0000 0.89600  0.28630  0.47190  Biso   1.000  H
  C550     1.0000 0.85700  0.34120  0.48230  Biso   1.000  C
  H728     1.0000 0.89630  0.35270  0.48330  Biso   1.000  H
  H729     1.0000 0.81220  0.34890  0.47560  Biso   1.000  H
  C551     1.0000 0.84400  0.32880  0.51050  Biso   1.000  C
  H730     1.0000 0.87600  0.31510  0.51270  Biso   1.000  H
  H731     1.0000 0.79320  0.32410  0.51290  Biso   1.000  H
  C552     1.0000 0.86600  0.34910  0.53040  Biso   1.000  C
  H732     1.0000 0.82210  0.35570  0.53880  Biso   1.000  H
  H733     1.0000 0.89080  0.36140  0.52010  Biso   1.000  H
  H734     1.0000 0.89770  0.34310  0.54470  Biso   1.000  H
  C553     1.0000 0.33930  0.35279  0.49342  Biso   1.000  C
  C554     1.0000 0.34350  0.33945  0.46969  Biso   1.000  C
  C555     1.0000 0.35820  0.35317  0.44760  Biso   1.000  C
  H735     1.0000 0.36180  0.34700  0.42960  Biso   1.000  H
  C556     1.0000 0.36710  0.37552  0.45272  Biso   1.000  C
  C557     1.0000 0.03770  0.39058  0.55973  Biso   1.000  C
  C558     1.0000 0.06410  0.37295  0.53779  Biso   1.000  C
  C559     1.0000 0.06780  0.34989  0.54009  Biso   1.000  C
  H736     1.0000 0.06000  0.34160  0.55670  Biso   1.000  H
  C560     1.0000 0.08550  0.33862  0.51370  Biso   1.000  C
  C561     1.0000 0.08940  0.35551  0.49403  Biso   1.000  C
  C562     1.0000 0.10460  0.35229  0.46437  Biso   1.000  C
  C563     1.0000 0.06830  0.34030  0.44500  Biso   1.000  C
  C564     1.0000 0.10670  0.34008  0.41977  Biso   1.000  C
  H737     1.0000 0.09230  0.33050  0.40490  Biso   1.000  H
  C565     1.0000 0.16220  0.35367  0.41811  Biso   1.000  C
  C566     1.0000 0.21010  0.35798  0.39377  Biso   1.000  C
  C567     1.0000 0.09420  0.31316  0.51160  Biso   1.000  C
  H738     1.0000 0.10560  0.30890  0.49240  Biso   1.000  H
  H739     1.0000 0.04830  0.30540  0.51660  Biso   1.000  H
  C568     1.0000 0.15420  0.30450  0.53030  Biso   1.000  C
  H740     1.0000 0.20140  0.31120  0.52480  Biso   1.000  H
  H741     1.0000 0.14440  0.30880  0.54960  Biso   1.000  H
  C569     1.0000 0.15380  0.27822  0.52660  Biso   1.000  C
  H742     1.0000 0.10810  0.27140  0.53350  Biso   1.000  H
  H743     1.0000 0.15950  0.27400  0.50710  Biso   1.000  H
  C570     1.0000 0.21740  0.26955  0.54323  Biso   1.000  C
  H744     1.0000 0.22880  0.25320  0.53850  Biso   1.000  H
  H745     1.0000 0.26070  0.27930  0.53980  Biso   1.000  H
  C571     1.0000 0.19450  0.27140  0.57260  Biso   1.000  C
  H746     1.0000 0.15520  0.26020  0.57660  Biso   1.000  H
  H747     1.0000 0.17700  0.28740  0.57670  Biso   1.000  H
  C572     1.0000 0.26060  0.26590  0.58950  Biso   1.000  C
  H748     1.0000 0.24890  0.26730  0.60900  Biso   1.000  H
  H749     1.0000 0.29930  0.27680  0.58490  Biso   1.000  H
  H750     1.0000 0.27650  0.24990  0.58550  Biso   1.000  H
  C573     1.0000 0.00180  0.32540  0.45200  Biso   1.000  C
  H751     1.0000 0.99950  0.32430  0.47220  Biso   1.000  H
  H752     1.0000 0.01150  0.30950  0.44510  Biso   1.000  H
  C574     1.0000 0.92500  0.33240  0.44190  Biso   1.000  C
  H753     1.0000 0.91520  0.32630  0.42330  Biso   1.000  H
  H754     1.0000 0.91780  0.34950  0.44220  Biso   1.000  H
  C575     1.0000 0.87760  0.31980  0.46400  Biso   1.000  C
  H755     1.0000 0.83450  0.31230  0.45580  Biso   1.000  H
  H756     1.0000 0.90560  0.30810  0.47440  Biso   1.000  H
  C576     1.0000 0.21710  0.34590  0.59220  Biso   1.000  C
  C577     1.0000 0.27320  0.34288  0.56649  Biso   1.000  C
  C578     1.0000 0.32260  0.32730  0.56331  Biso   1.000  C
  H757     1.0000 0.33480  0.31600  0.57670  Biso   1.000  H
  C579     1.0000 0.35700  0.32930  0.53715  Biso   1.000  C
  C580     1.0000 0.32190  0.34610  0.52148  Biso   1.000  C
  C581     1.0000 0.39090  0.39437  0.43552  Biso   1.000  C
  C582     1.0000 0.41750  0.31440  0.52890  Biso   1.000  C
  H758     1.0000 0.42730  0.31670  0.50910  Biso   1.000  H
  H759     1.0000 0.40410  0.29790  0.53170  Biso   1.000  H
  C583     1.0000 0.48570  0.31970  0.54510  Biso   1.000  C
  H760     1.0000 0.52380  0.30800  0.54120  Biso   1.000  H
  H761     1.0000 0.47570  0.31970  0.56500  Biso   1.000  H
  C584     1.0000 0.50840  0.34380  0.53540  Biso   1.000  C
  H762     1.0000 0.52890  0.34310  0.51670  Biso   1.000  H
  H763     1.0000 0.46670  0.35460  0.53540  Biso   1.000  H
  C585     1.0000 0.56530  0.35160  0.55600  Biso   1.000  C
  H764     1.0000 0.59780  0.36350  0.54780  Biso   1.000  H
  H765     1.0000 0.54240  0.35830  0.57260  Biso   1.000  H
  C586     1.0000 0.60650  0.32950  0.56290  Biso   1.000  C
  H766     1.0000 0.65730  0.33300  0.56770  Biso   1.000  H
  H767     1.0000 0.60590  0.31840  0.54730  Biso   1.000  H
  C587     1.0000 0.56600  0.31940  0.58740  Biso   1.000  C
  H768     1.0000 0.59700  0.30810  0.59680  Biso   1.000  H
  H769     1.0000 0.52200  0.31170  0.58110  Biso   1.000  H
  H770     1.0000 0.55360  0.33200  0.60010  Biso   1.000  H
  C588     1.0000 0.32110  0.31325  0.46695  Biso   1.000  C
  H771     1.0000 0.36380  0.30420  0.46090  Biso   1.000  H
  H772     1.0000 0.30710  0.30740  0.48530  Biso   1.000  H
  C589     1.0000 0.25950  0.30848  0.44714  Biso   1.000  C
  H773     1.0000 0.21390  0.31530  0.45400  Biso   1.000  H
  H774     1.0000 0.27010  0.31520  0.42890  Biso   1.000  H
  C590     1.0000 0.25350  0.28239  0.44540  Biso   1.000  C
  H775     1.0000 0.26310  0.27510  0.46340  Biso   1.000  H
  H776     1.0000 0.28800  0.27600  0.43180  Biso   1.000  H
  C591     1.0000 0.17650  0.27810  0.43650  Biso   1.000  C
  H777     1.0000 0.15340  0.26620  0.44830  Biso   1.000  H
  H778     1.0000 0.14790  0.29260  0.43750  Biso   1.000  H
  C592     1.0000 0.18180  0.26950  0.40740  Biso   1.000  C
  H779     1.0000 0.22610  0.27540  0.39840  Biso   1.000  H
  H780     1.0000 0.13930  0.27450  0.39650  Biso   1.000  H
  C593     1.0000 0.18400  0.24310  0.41020  Biso   1.000  C
  H781     1.0000 0.19200  0.23600  0.39220  Biso   1.000  H
  H782     1.0000 0.13830  0.23750  0.41780  Biso   1.000  H
  H783     1.0000 0.22380  0.23870  0.42250  Biso   1.000  H
  C594     1.0000 0.95590  0.39150  0.64920  Biso   1.000  C
  C595     1.0000 0.84550  0.41331  0.70916  Biso   1.000  C
  C596     1.0000 0.92250  0.39685  0.67797  Biso   1.000  C
  C597     1.0000 0.87280  0.41360  0.68260  Biso   1.000  C
  H784     1.0000 0.85800  0.42450  0.66910  Biso   1.000  H
  C598     1.0000 0.88070  0.39835  0.72595  Biso   1.000  C
  C599     1.0000 0.88110  0.39297  0.75453  Biso   1.000  C
  C600     1.0000 0.87910  0.40700  0.77697  Biso   1.000  C
  C601     1.0000 0.87150  0.39566  0.80271  Biso   1.000  C
  H785     1.0000 0.87170  0.40300  0.82020  Biso   1.000  H
  C602     1.0000 0.86380  0.37231  0.79787  Biso   1.000  C
  C603     1.0000 0.84780  0.35389  0.81855  Biso   1.000  C
  C604     1.0000 0.77990  0.42670  0.72000  Biso   1.000  C
  H786     1.0000 0.79250  0.44350  0.72040  Biso   1.000  H
  H787     1.0000 0.77120  0.42180  0.73910  Biso   1.000  H
  C605     1.0000 0.70840  0.42400  0.70390  Biso   1.000  C
  H788     1.0000 0.71720  0.42230  0.68400  Biso   1.000  H
  H789     1.0000 0.67570  0.43740  0.70710  Biso   1.000  H
  C606     1.0000 0.67690  0.40110  0.71640  Biso   1.000  C
  H790     1.0000 0.64050  0.40440  0.73070  Biso   1.000  H
  H791     1.0000 0.71540  0.39100  0.72400  Biso   1.000  H
  C607     1.0000 0.64180  0.39010  0.69010  Biso   1.000  C
  H792     1.0000 0.64490  0.40070  0.67420  Biso   1.000  H
  H793     1.0000 0.59080  0.38570  0.69330  Biso   1.000  H
  C608     1.0000 0.69100  0.36810  0.68650  Biso   1.000  C
  H794     1.0000 0.74040  0.37080  0.69410  Biso   1.000  H
  H795     1.0000 0.67010  0.35410  0.69510  Biso   1.000  H
  C609     1.0000 0.69300  0.36610  0.65450  Biso   1.000  C
  H796     1.0000 0.72610  0.35360  0.64910  Biso   1.000  H
  H797     1.0000 0.70940  0.38090  0.64660  Biso   1.000  H
  H798     1.0000 0.64430  0.36250  0.64780  Biso   1.000  H
  C610     1.0000 0.89120  0.43370  0.77670  Biso   1.000  C
  H799     1.0000 0.89440  0.43920  0.75750  Biso   1.000  H
  H800     1.0000 0.84940  0.44150  0.78540  Biso   1.000  H
  C611     1.0000 0.96030  0.44038  0.79190  Biso   1.000  C
  H801     1.0000 0.95900  0.43460  0.81100  Biso   1.000  H
  H802     1.0000 0.00330  0.43380  0.78260  Biso   1.000  H
  C612     1.0000 0.96180  0.46671  0.79130  Biso   1.000  C
  H803     1.0000 0.95040  0.47250  0.77270  Biso   1.000  H
  H804     1.0000 0.92610  0.47320  0.80430  Biso   1.000  H
  C613     1.0000 0.03700  0.47370  0.79940  Biso   1.000  C
  H805     1.0000 0.04480  0.49050  0.79560  Biso   1.000  H
  H806     1.0000 0.07310  0.46460  0.78890  Biso   1.000  H
  C614     1.0000 0.04420  0.46880  0.82960  Biso   1.000  C
  H807     1.0000 0.05040  0.45190  0.83300  Biso   1.000  H
  H808     1.0000 0.00120  0.47440  0.83980  Biso   1.000  H
  C615     1.0000 0.11150  0.48230  0.83810  Biso   1.000  C
  H809     1.0000 0.12210  0.47930  0.85740  Biso   1.000  H
  H810     1.0000 0.10310  0.49900  0.83540  Biso   1.000  H
  H811     1.0000 0.15250  0.47740  0.82680  Biso   1.000  H
  C616     1.0000 0.05230  0.31613  0.61920  Biso   1.000  C
  C617     1.0000 0.02860  0.29631  0.60740  Biso   1.000  C
  C618     1.0000 0.97950  0.29710  0.58730  Biso   1.000  C
  H812     1.0000 0.96760  0.31170  0.57930  Biso   1.000  H
  C619     1.0000 0.93830  0.27300  0.57570  Biso   1.000  C
  C620     1.0000 0.97450  0.25728  0.59580  Biso   1.000  C
  C621     1.0000 0.96100  0.23222  0.59580  Biso   1.000  C
  C622     1.0000 0.99180  0.21470  0.58460  Biso   1.000  C
  C623     1.0000 0.96880  0.19201  0.59270  Biso   1.000  C
  H813     1.0000 0.98760  0.17780  0.58570  Biso   1.000  H
  C624     1.0000 0.91610  0.19382  0.61172  Biso   1.000  C
  C625     1.0000 0.87370  0.17442  0.62510  Biso   1.000  C
  C626     1.0000 0.89590  0.27300  0.54910  Biso   1.000  C
  H814     1.0000 0.89100  0.28890  0.54140  Biso   1.000  H
  H815     1.0000 0.84750  0.26590  0.55140  Biso   1.000  H
  C627     1.0000 0.94650  0.25750  0.53160  Biso   1.000  C
  H816     1.0000 0.94830  0.24130  0.53860  Biso   1.000  H
  H817     1.0000 0.99610  0.26390  0.53080  Biso   1.000  H
  C628     1.0000 0.90860  0.25860  0.50290  Biso   1.000  C
  H818     1.0000 0.89000  0.27440  0.49880  Biso   1.000  H
  H819     1.0000 0.86890  0.24710  0.50130  Biso   1.000  H
  C629     1.0000 0.97430  0.25200  0.48410  Biso   1.000  C
  H820     1.0000 0.01580  0.26270  0.48690  Biso   1.000  H
  H821     1.0000 0.99010  0.23570  0.48700  Biso   1.000  H
  C630     1.0000 0.93930  0.25550  0.45520  Biso   1.000  C
  H822     1.0000 0.89380  0.24660  0.45340  Biso   1.000  H
  H823     1.0000 0.97280  0.25110  0.44030  Biso   1.000  H
  C631     1.0000 0.05890  0.21550  0.56650  Biso   1.000  C
  H824     1.0000 0.09500  0.20580  0.57620  Biso   1.000  H
  H825     1.0000 0.07650  0.23180  0.56810  Biso   1.000  H
  C632     1.0000 0.06800  0.20930  0.53580  Biso   1.000  C
  H826     1.0000 0.03780  0.21930  0.52400  Biso   1.000  H
  H827     1.0000 0.05620  0.19270  0.53230  Biso   1.000  H
  C633     1.0000 0.14980  0.21420  0.53170  Biso   1.000  C
  H828     1.0000 0.15900  0.23100  0.52850  Biso   1.000  H
  H829     1.0000 0.17870  0.20890  0.54760  Biso   1.000  H
  C634     1.0000 0.16600  0.19950  0.50580  Biso   1.000  C
  H830     1.0000 0.13470  0.18560  0.50470  Biso   1.000  H
  H831     1.0000 0.21740  0.19460  0.50520  Biso   1.000  H
  C635     1.0000 0.14800  0.21740  0.48280  Biso   1.000  C
  H832     1.0000 0.13410  0.23270  0.49040  Biso   1.000  H
  H833     1.0000 0.11010  0.21150  0.47040  Biso   1.000  H
  C636     1.0000 0.22300  0.21870  0.46800  Biso   1.000  C
  H834     1.0000 0.22980  0.23430  0.46040  Biso   1.000  H
  H835     1.0000 0.22440  0.20710  0.45320  Biso   1.000  H
  H836     1.0000 0.26160  0.21530  0.48120  Biso   1.000  H
  C637     1.0000 0.32860  0.43595  0.37010  Biso   1.000  C
  C638     1.0000 0.28460  0.45669  0.35700  Biso   1.000  C
  C639     1.0000 0.23640  0.45488  0.33830  Biso   1.000  C
  H837     1.0000 0.22400  0.44080  0.32920  Biso   1.000  H
  C640     1.0000 0.20450  0.47676  0.33330  Biso   1.000  C
  C641     1.0000 0.23420  0.49519  0.34839  Biso   1.000  C
  C642     1.0000 0.21400  0.51933  0.35040  Biso   1.000  C
  C643     1.0000 0.25460  0.53920  0.34160  Biso   1.000  C
  C644     1.0000 0.15990  0.55709  0.36245  Biso   1.000  C
  C645     1.0000 0.22370  0.55974  0.34810  Biso   1.000  C
  H838     1.0000 0.24370  0.57440  0.34340  Biso   1.000  H
  C646     1.0000 0.11770  0.57409  0.37470  Biso   1.000  C
  C647     1.0000 0.15300  0.48110  0.31120  Biso   1.000  C
  H839     1.0000 0.13580  0.49730  0.31400  Biso   1.000  H
  H840     1.0000 0.11120  0.47090  0.31500  Biso   1.000  H
  C648     1.0000 0.16750  0.47880  0.28053  Biso   1.000  C
  H841     1.0000 0.12340  0.48240  0.26980  Biso   1.000  H
  H842     1.0000 0.18380  0.46290  0.27590  Biso   1.000  H
  C649     1.0000 0.22710  0.49670  0.27471  Biso   1.000  C
  H843     1.0000 0.21310  0.51230  0.28140  Biso   1.000  H
  H844     1.0000 0.27300  0.49200  0.28350  Biso   1.000  H
  C650     1.0000 0.23430  0.49660  0.24348  Biso   1.000  C
  H845     1.0000 0.24640  0.48080  0.23670  Biso   1.000  H
  H846     1.0000 0.18880  0.50170  0.23470  Biso   1.000  H
  C651     1.0000 0.29510  0.51360  0.23740  Biso   1.000  C
  H847     1.0000 0.28180  0.52960  0.24320  Biso   1.000  H
  H848     1.0000 0.33990  0.50900  0.24710  Biso   1.000  H
  C652     1.0000 0.30570  0.51250  0.20660  Biso   1.000  C
  H849     1.0000 0.34380  0.52340  0.20120  Biso   1.000  H
  H850     1.0000 0.26040  0.51670  0.19740  Biso   1.000  H
  H851     1.0000 0.31950  0.49660  0.20130  Biso   1.000  H
  C653     1.0000 0.32300  0.53680  0.33120  Biso   1.000  C
  H852     1.0000 0.33360  0.52010  0.32750  Biso   1.000  H
  H853     1.0000 0.35920  0.54270  0.34440  Biso   1.000  H
  C654     1.0000 0.32540  0.55090  0.30460  Biso   1.000  C
  H854     1.0000 0.31420  0.56750  0.30800  Biso   1.000  H
  H855     1.0000 0.29130  0.54460  0.29080  Biso   1.000  H
  C655     1.0000 0.40450  0.54760  0.29540  Biso   1.000  C
  H856     1.0000 0.43260  0.56220  0.29760  Biso   1.000  H
  H857     1.0000 0.42840  0.53500  0.30590  Biso   1.000  H
  C656     1.0000 0.39600  0.54100  0.26500  Biso   1.000  C
  H858     1.0000 0.39720  0.52390  0.26240  Biso   1.000  H
  H859     1.0000 0.35000  0.54720  0.25740  Biso   1.000  H
  C657     1.0000 0.31990  0.36496  0.30839  Biso   1.000  C
  C658     1.0000 0.34170  0.38246  0.28875  Biso   1.000  C
  C659     1.0000 0.34040  0.40524  0.29475  Biso   1.000  C
  H860     1.0000 0.32730  0.41180  0.31190  Biso   1.000  H
  C660     1.0000 0.37840  0.40390  0.24802  Biso   1.000  C
  C661     1.0000 0.39310  0.40952  0.21923  Biso   1.000  C
  C662     1.0000 0.45760  0.40791  0.17494  Biso   1.000  C
  C663     1.0000 0.50890  0.40510  0.15050  Biso   1.000  C
  C664     1.0000 0.38040  0.44515  0.27062  Biso   1.000  C
  H861     1.0000 0.39370  0.45040  0.25200  Biso   1.000  H
  H862     1.0000 0.33600  0.45360  0.27600  Biso   1.000  H
  C665     1.0000 0.44060  0.45165  0.29014  Biso   1.000  C
  H863     1.0000 0.42970  0.44570  0.30870  Biso   1.000  H
  H864     1.0000 0.48670  0.44460  0.28400  Biso   1.000  H
  C666     1.0000 0.51560  0.48344  0.30566  Biso   1.000  C
  H865     1.0000 0.55520  0.47310  0.29960  Biso   1.000  H
  H866     1.0000 0.52970  0.49980  0.30180  Biso   1.000  H
  C667     1.0000 0.57120  0.48650  0.35020  Biso   1.000  C
  H867     1.0000 0.56410  0.48510  0.37000  Biso   1.000  H
  H868     1.0000 0.58450  0.50260  0.34570  Biso   1.000  H
  H869     1.0000 0.60970  0.47590  0.34430  Biso   1.000  H
  C668     1.0000 0.23130  0.43020  0.18750  Biso   1.000  C
  H870     1.0000 0.24710  0.43080  0.16810  Biso   1.000  H
  H871     1.0000 0.21610  0.41410  0.19190  Biso   1.000  H
  C669     1.0000 0.16990  0.44720  0.19240  Biso   1.000  C
  H872     1.0000 0.15060  0.45310  0.17490  Biso   1.000  H
  H873     1.0000 0.18620  0.46050  0.20370  Biso   1.000  H
  C670     1.0000 0.36340  0.41861  0.26974  Biso   1.000  C
  C671     1.0000 0.36290  0.42333  0.20225  Biso   1.000  C
  C672     1.0000 0.40470  0.42365  0.17503  Biso   1.000  C
  H874     1.0000 0.39420  0.43380  0.16020  Biso   1.000  H
  C673     1.0000 0.44690  0.47754  0.29063  Biso   1.000  C
  H875     1.0000 0.40480  0.48450  0.30010  Biso   1.000  H
  H876     1.0000 0.44860  0.48380  0.27170  Biso   1.000  H
  C674     1.0000 0.50200  0.48030  0.33560  Biso   1.000  C
  H877     1.0000 0.48850  0.46390  0.33950  Biso   1.000  H
  H878     1.0000 0.46220  0.49050  0.34170  Biso   1.000  H
  C675     1.0000 0.29210  0.43790  0.20630  Biso   1.000  C
  H879     1.0000 0.27600  0.43640  0.22560  Biso   1.000  H
  H880     1.0000 0.30280  0.45460  0.20290  Biso   1.000  H
  C676     1.0000 0.11340  0.43290  0.20750  Biso   1.000  C
  H881     1.0000 0.13200  0.42760  0.22550  Biso   1.000  H
  H882     1.0000 0.09920  0.41910  0.19660  Biso   1.000  H
  C677     1.0000 0.04980  0.44940  0.21110  Biso   1.000  C
  H883     1.0000 0.04700  0.46050  0.19570  Biso   1.000  H
  H884     1.0000 0.00390  0.44060  0.21220  Biso   1.000  H
  C678     1.0000 0.06500  0.46210  0.23780  Biso   1.000  C
  H885     1.0000 0.02500  0.47300  0.24150  Biso   1.000  H
  H886     1.0000 0.11000  0.47070  0.23630  Biso   1.000  H
  H887     1.0000 0.06800  0.45080  0.25270  Biso   1.000  H
  O97      1.0000 0.03290  0.41075  0.55442  Biso   1.000  O
  O98      1.0000 0.02750  0.38237  0.58430  Biso   1.000  O
  O99      1.0000 0.25840  0.37259  0.39531  Biso   1.000  O
  O100     1.0000 0.19100  0.34580  0.37228  Biso   1.000  O
  O101     1.0000 0.18140  0.36274  0.59423  Biso   1.000  O
  O102     1.0000 0.23140  0.32811  0.61054  Biso   1.000  O
  O103     1.0000 0.39990  0.41465  0.44464  Biso   1.000  O
  O104     1.0000 0.40570  0.39015  0.40968  Biso   1.000  O
  O105     1.0000 0.93150  0.40491  0.63026  Biso   1.000  O
  O106     1.0000 0.00340  0.37728  0.64807  Biso   1.000  O
  O107     1.0000 0.84310  0.35877  0.84449  Biso   1.000  O
  O108     1.0000 0.83080  0.33337  0.81011  Biso   1.000  O
  O109     1.0000 0.04560  0.33653  0.61126  Biso   1.000  O
  O110     1.0000 0.10050  0.30906  0.63697  Biso   1.000  O
  O111     1.0000 0.82170  0.18128  0.64205  Biso   1.000  O
  O112     1.0000 0.89450  0.15393  0.62099  Biso   1.000  O
  O113     1.0000 0.31510  0.41599  0.36356  Biso   1.000  O
  O114     1.0000 0.37740  0.44223  0.38848  Biso   1.000  O
  O115     1.0000 0.05850  0.56729  0.38570  Biso   1.000  O
  O116     1.0000 0.13200  0.59475  0.37217  Biso   1.000  O
  O117     1.0000 0.30740  0.34335  0.30100  Biso   1.000  O
  O118     1.0000 0.29880  0.37040  0.33380  Biso   1.000  O
  O119     1.0000 0.55110  0.38906  0.15168  Biso   1.000  O
  O120     1.0000 0.48630  0.41761  0.12965  Biso   1.000  O
  S49      1.0000 0.07661  0.38344  0.50585  Biso   1.000  S
  S50      1.0000 0.17751  0.36654  0.44926  Biso   1.000  S
  S51      1.0000 0.25320  0.35973  0.53889  Biso   1.000  S
  S52      1.0000 0.35308  0.38142  0.48692  Biso   1.000  S
  S53      1.0000 0.94588  0.38314  0.70636  Biso   1.000  S
  S54      1.0000 0.86575  0.36460  0.76448  Biso   1.000  S
  S55      1.0000 0.03090  0.26891  0.61863  Biso   1.000  S
  S56      1.0000 0.89575  0.22233  0.61952  Biso   1.000  S
  S57      1.0000 0.30228  0.48371  0.36925  Biso   1.000  S
  S58      1.0000 0.13973  0.52713  0.36716  Biso   1.000  S
  S59      1.0000 0.36370  0.37452  0.25682  Biso   1.000  S
  S60      1.0000 0.46699  0.39387  0.20470  Biso   1.000  S
  Mn25     1.0000 0.97108  0.41672  0.59330  Biso   1.000  Mn
  Mn26     1.0000 0.09034  0.37034  0.62038  Biso   1.000  Mn
  Mn27     1.0000 0.20169  0.32154  0.64904  Biso   1.000  Mn
  Mn28     1.0000 0.46390  0.42528  0.40701  Biso   1.000  Mn
  Mn29     1.0000 0.35257  0.38069  0.37141  Biso   1.000  Mn
  Mn30     1.0000 0.24126  0.33510  0.33763  Biso   1.000  Mn
  H888     1.0000 0.97750  0.33140  0.46870  Biso   1.000  H
  H889     1.0000 0.01570  0.30900  0.45510  Biso   1.000  H
  C679     1.0000 0.95180  0.32770  0.42660  Biso   1.000  C
  H890     1.0000 0.97250  0.31970  0.41040  Biso   1.000  H
  H891     1.0000 0.94230  0.34420  0.42200  Biso   1.000  H
  C680     1.0000 0.88220  0.31530  0.43690  Biso   1.000  C
  H892     1.0000 0.88630  0.29810  0.43540  Biso   1.000  H
  H893     1.0000 0.87100  0.31950  0.45610  Biso   1.000  H
  C681     1.0000 0.82490  0.32520  0.41680  Biso   1.000  C
  H894     1.0000 0.84630  0.32860  0.39870  Biso   1.000  H
  H895     1.0000 0.80210  0.33950  0.42420  Biso   1.000  H
  C682     1.0000 0.77020  0.30470  0.41530  Biso   1.000  C
  H896     1.0000 0.72730  0.30760  0.42690  Biso   1.000  H
  H897     1.0000 0.79270  0.28970  0.42070  Biso   1.000  H
  C683     1.0000 0.75100  0.30510  0.38420  Biso   1.000  C
  H898     1.0000 0.71030  0.29450  0.38080  Biso   1.000  H
  H899     1.0000 0.79260  0.30010  0.37350  Biso   1.000  H
  H900     1.0000 0.73690  0.32100  0.37890  Biso   1.000  H
  H901     1.0000 0.45250  0.55590  0.23190  Biso   1.000  H
  H902     1.0000 0.50530  0.54310  0.25340  Biso   1.000  H
  H903     1.0000 0.50490  0.58580  0.25860  Biso   1.000  H
  H904     1.0000 0.48520  0.57240  0.28630  Biso   1.000  H
  H905     1.0000 0.42250  0.58380  0.26820  Biso   1.000  H
  C684     1.0000 0.46100  0.55280  0.25150  Biso   1.000  C
  C685     1.0000 0.46900  0.57580  0.26760  Biso   1.000  C
  C686     1.0000 0.42500  0.78240  0.45590  Biso   1.000  C
  H906     1.0000 0.39980  0.78710  0.43920  Biso   1.000  H
  H907     1.0000 0.47160  0.79070  0.45690  Biso   1.000  H
  H908     1.0000 0.39600  0.78630  0.47190  Biso   1.000  H
  C687     1.0000 0.35700  0.84120  0.48230  Biso   1.000  C
  H909     1.0000 0.39630  0.85270  0.48330  Biso   1.000  H
  H910     1.0000 0.31220  0.84890  0.47560  Biso   1.000  H
  C688     1.0000 0.34400  0.82880  0.51050  Biso   1.000  C
  H911     1.0000 0.37600  0.81510  0.51270  Biso   1.000  H
  H912     1.0000 0.29320  0.82410  0.51290  Biso   1.000  H
  C689     1.0000 0.36600  0.84910  0.53040  Biso   1.000  C
  H913     1.0000 0.32210  0.85570  0.53880  Biso   1.000  H
  H914     1.0000 0.39080  0.86140  0.52010  Biso   1.000  H
  H915     1.0000 0.39770  0.84310  0.54470  Biso   1.000  H
  C690     1.0000 0.83930  0.85279  0.49342  Biso   1.000  C
  C691     1.0000 0.84350  0.83945  0.46969  Biso   1.000  C
  C692     1.0000 0.85820  0.85317  0.44760  Biso   1.000  C
  H916     1.0000 0.86180  0.84700  0.42960  Biso   1.000  H
  C693     1.0000 0.86710  0.87552  0.45272  Biso   1.000  C
  C694     1.0000 0.53770  0.89058  0.55973  Biso   1.000  C
  C695     1.0000 0.56410  0.87295  0.53779  Biso   1.000  C
  C696     1.0000 0.56780  0.84989  0.54009  Biso   1.000  C
  H917     1.0000 0.56000  0.84160  0.55670  Biso   1.000  H
  C697     1.0000 0.58550  0.83862  0.51370  Biso   1.000  C
  C698     1.0000 0.58940  0.85551  0.49403  Biso   1.000  C
  C699     1.0000 0.60460  0.85229  0.46437  Biso   1.000  C
  C700     1.0000 0.56830  0.84030  0.44500  Biso   1.000  C
  C701     1.0000 0.60670  0.84008  0.41977  Biso   1.000  C
  H918     1.0000 0.59230  0.83050  0.40490  Biso   1.000  H
  C702     1.0000 0.66220  0.85367  0.41811  Biso   1.000  C
  C703     1.0000 0.71010  0.85798  0.39377  Biso   1.000  C
  C704     1.0000 0.59420  0.81316  0.51160  Biso   1.000  C
  H919     1.0000 0.60560  0.80890  0.49240  Biso   1.000  H
  H920     1.0000 0.54830  0.80540  0.51660  Biso   1.000  H
  C705     1.0000 0.65420  0.80450  0.53030  Biso   1.000  C
  H921     1.0000 0.70140  0.81120  0.52480  Biso   1.000  H
  H922     1.0000 0.64440  0.80880  0.54960  Biso   1.000  H
  C706     1.0000 0.65380  0.77822  0.52660  Biso   1.000  C
  H923     1.0000 0.60810  0.77140  0.53350  Biso   1.000  H
  H924     1.0000 0.65950  0.77400  0.50710  Biso   1.000  H
  C707     1.0000 0.71740  0.76955  0.54323  Biso   1.000  C
  H925     1.0000 0.72880  0.75320  0.53850  Biso   1.000  H
  H926     1.0000 0.76070  0.77930  0.53980  Biso   1.000  H
  C708     1.0000 0.69450  0.77140  0.57260  Biso   1.000  C
  H927     1.0000 0.65520  0.76020  0.57660  Biso   1.000  H
  H928     1.0000 0.67700  0.78740  0.57670  Biso   1.000  H
  C709     1.0000 0.76060  0.76590  0.58950  Biso   1.000  C
  H929     1.0000 0.74890  0.76730  0.60900  Biso   1.000  H
  H930     1.0000 0.79930  0.77680  0.58490  Biso   1.000  H
  H931     1.0000 0.77650  0.74990  0.58550  Biso   1.000  H
  C710     1.0000 0.50180  0.82540  0.45200  Biso   1.000  C
  H932     1.0000 0.49950  0.82430  0.47220  Biso   1.000  H
  H933     1.0000 0.51150  0.80950  0.44510  Biso   1.000  H
  C711     1.0000 0.42500  0.83240  0.44190  Biso   1.000  C
  H934     1.0000 0.41520  0.82630  0.42330  Biso   1.000  H
  H935     1.0000 0.41780  0.84950  0.44220  Biso   1.000  H
  C712     1.0000 0.37760  0.81980  0.46400  Biso   1.000  C
  H936     1.0000 0.33450  0.81230  0.45580  Biso   1.000  H
  H937     1.0000 0.40560  0.80810  0.47440  Biso   1.000  H
  C713     1.0000 0.71710  0.84590  0.59220  Biso   1.000  C
  C714     1.0000 0.77320  0.84288  0.56649  Biso   1.000  C
  C715     1.0000 0.82260  0.82730  0.56331  Biso   1.000  C
  H938     1.0000 0.83480  0.81600  0.57670  Biso   1.000  H
  C716     1.0000 0.85700  0.82930  0.53715  Biso   1.000  C
  C717     1.0000 0.82190  0.84610  0.52148  Biso   1.000  C
  C718     1.0000 0.89090  0.89437  0.43552  Biso   1.000  C
  C719     1.0000 0.91750  0.81440  0.52890  Biso   1.000  C
  H939     1.0000 0.92730  0.81670  0.50910  Biso   1.000  H
  H940     1.0000 0.90410  0.79790  0.53170  Biso   1.000  H
  C720     1.0000 0.98570  0.81970  0.54510  Biso   1.000  C
  H941     1.0000 0.02380  0.80800  0.54120  Biso   1.000  H
  H942     1.0000 0.97570  0.81970  0.56500  Biso   1.000  H
  C721     1.0000 0.00840  0.84380  0.53540  Biso   1.000  C
  H943     1.0000 0.02890  0.84310  0.51670  Biso   1.000  H
  H944     1.0000 0.96670  0.85460  0.53540  Biso   1.000  H
  C722     1.0000 0.06530  0.85160  0.55600  Biso   1.000  C
  H945     1.0000 0.09780  0.86350  0.54780  Biso   1.000  H
  H946     1.0000 0.04240  0.85830  0.57260  Biso   1.000  H
  C723     1.0000 0.10650  0.82950  0.56290  Biso   1.000  C
  H947     1.0000 0.15730  0.83300  0.56770  Biso   1.000  H
  H948     1.0000 0.10590  0.81840  0.54730  Biso   1.000  H
  C724     1.0000 0.06600  0.81940  0.58740  Biso   1.000  C
  H949     1.0000 0.09700  0.80810  0.59680  Biso   1.000  H
  H950     1.0000 0.02200  0.81170  0.58110  Biso   1.000  H
  H951     1.0000 0.05360  0.83200  0.60010  Biso   1.000  H
  C725     1.0000 0.82110  0.81325  0.46695  Biso   1.000  C
  H952     1.0000 0.86380  0.80420  0.46090  Biso   1.000  H
  H953     1.0000 0.80710  0.80740  0.48530  Biso   1.000  H
  C726     1.0000 0.75950  0.80848  0.44714  Biso   1.000  C
  H954     1.0000 0.71390  0.81530  0.45400  Biso   1.000  H
  H955     1.0000 0.77010  0.81520  0.42890  Biso   1.000  H
  C727     1.0000 0.75350  0.78239  0.44540  Biso   1.000  C
  H956     1.0000 0.76310  0.77510  0.46340  Biso   1.000  H
  H957     1.0000 0.78800  0.77600  0.43180  Biso   1.000  H
  C728     1.0000 0.67650  0.77810  0.43650  Biso   1.000  C
  H958     1.0000 0.65340  0.76620  0.44830  Biso   1.000  H
  H959     1.0000 0.64790  0.79260  0.43750  Biso   1.000  H
  C729     1.0000 0.68180  0.76950  0.40740  Biso   1.000  C
  H960     1.0000 0.72610  0.77540  0.39840  Biso   1.000  H
  H961     1.0000 0.63930  0.77450  0.39650  Biso   1.000  H
  C730     1.0000 0.68400  0.74310  0.41020  Biso   1.000  C
  H962     1.0000 0.69200  0.73600  0.39220  Biso   1.000  H
  H963     1.0000 0.63830  0.73750  0.41780  Biso   1.000  H
  H964     1.0000 0.72380  0.73870  0.42250  Biso   1.000  H
  C731     1.0000 0.45590  0.89150  0.64920  Biso   1.000  C
  C732     1.0000 0.34550  0.91331  0.70916  Biso   1.000  C
  C733     1.0000 0.42250  0.89685  0.67797  Biso   1.000  C
  C734     1.0000 0.37280  0.91360  0.68260  Biso   1.000  C
  H965     1.0000 0.35800  0.92450  0.66910  Biso   1.000  H
  C735     1.0000 0.38070  0.89835  0.72595  Biso   1.000  C
  C736     1.0000 0.38110  0.89297  0.75453  Biso   1.000  C
  C737     1.0000 0.37910  0.90700  0.77697  Biso   1.000  C
  C738     1.0000 0.37150  0.89566  0.80271  Biso   1.000  C
  H966     1.0000 0.37170  0.90300  0.82020  Biso   1.000  H
  C739     1.0000 0.36380  0.87231  0.79787  Biso   1.000  C
  C740     1.0000 0.34780  0.85389  0.81855  Biso   1.000  C
  C741     1.0000 0.27990  0.92670  0.72000  Biso   1.000  C
  H967     1.0000 0.29250  0.94350  0.72040  Biso   1.000  H
  H968     1.0000 0.27120  0.92180  0.73910  Biso   1.000  H
  C742     1.0000 0.20840  0.92400  0.70390  Biso   1.000  C
  H969     1.0000 0.21720  0.92230  0.68400  Biso   1.000  H
  H970     1.0000 0.17570  0.93740  0.70710  Biso   1.000  H
  C743     1.0000 0.17690  0.90110  0.71640  Biso   1.000  C
  H971     1.0000 0.14050  0.90440  0.73070  Biso   1.000  H
  H972     1.0000 0.21540  0.89100  0.72400  Biso   1.000  H
  C744     1.0000 0.14180  0.89010  0.69010  Biso   1.000  C
  H973     1.0000 0.14490  0.90070  0.67420  Biso   1.000  H
  H974     1.0000 0.09080  0.88570  0.69330  Biso   1.000  H
  C745     1.0000 0.19100  0.86810  0.68650  Biso   1.000  C
  H975     1.0000 0.24040  0.87080  0.69410  Biso   1.000  H
  H976     1.0000 0.17010  0.85410  0.69510  Biso   1.000  H
  C746     1.0000 0.19300  0.86610  0.65450  Biso   1.000  C
  H977     1.0000 0.22610  0.85360  0.64910  Biso   1.000  H
  H978     1.0000 0.20940  0.88090  0.64660  Biso   1.000  H
  H979     1.0000 0.14430  0.86250  0.64780  Biso   1.000  H
  C747     1.0000 0.39120  0.93370  0.77670  Biso   1.000  C
  H980     1.0000 0.39440  0.93920  0.75750  Biso   1.000  H
  H981     1.0000 0.34940  0.94150  0.78540  Biso   1.000  H
  C748     1.0000 0.46030  0.94038  0.79190  Biso   1.000  C
  H982     1.0000 0.45900  0.93460  0.81100  Biso   1.000  H
  H983     1.0000 0.50330  0.93380  0.78260  Biso   1.000  H
  C749     1.0000 0.46180  0.96671  0.79130  Biso   1.000  C
  H984     1.0000 0.45040  0.97250  0.77270  Biso   1.000  H
  H985     1.0000 0.42610  0.97320  0.80430  Biso   1.000  H
  C750     1.0000 0.53700  0.97370  0.79940  Biso   1.000  C
  H986     1.0000 0.54480  0.99050  0.79560  Biso   1.000  H
  H987     1.0000 0.57310  0.96460  0.78890  Biso   1.000  H
  C751     1.0000 0.54420  0.96880  0.82960  Biso   1.000  C
  H988     1.0000 0.55040  0.95190  0.83300  Biso   1.000  H
  H989     1.0000 0.50120  0.97440  0.83980  Biso   1.000  H
  C752     1.0000 0.61150  0.98230  0.83810  Biso   1.000  C
  H990     1.0000 0.62210  0.97930  0.85740  Biso   1.000  H
  H991     1.0000 0.60310  0.99900  0.83540  Biso   1.000  H
  H992     1.0000 0.65250  0.97740  0.82680  Biso   1.000  H
  C753     1.0000 0.55230  0.81613  0.61920  Biso   1.000  C
  C754     1.0000 0.52860  0.79631  0.60740  Biso   1.000  C
  C755     1.0000 0.47950  0.79710  0.58730  Biso   1.000  C
  H993     1.0000 0.46760  0.81170  0.57930  Biso   1.000  H
  C756     1.0000 0.43830  0.77300  0.57570  Biso   1.000  C
  C757     1.0000 0.47450  0.75728  0.59580  Biso   1.000  C
  C758     1.0000 0.46100  0.73222  0.59580  Biso   1.000  C
  C759     1.0000 0.49180  0.71470  0.58460  Biso   1.000  C
  C760     1.0000 0.46880  0.69201  0.59270  Biso   1.000  C
  H994     1.0000 0.48760  0.67780  0.58570  Biso   1.000  H
  C761     1.0000 0.41610  0.69382  0.61172  Biso   1.000  C
  C762     1.0000 0.37370  0.67442  0.62510  Biso   1.000  C
  C763     1.0000 0.39590  0.77300  0.54910  Biso   1.000  C
  H995     1.0000 0.39100  0.78890  0.54140  Biso   1.000  H
  H996     1.0000 0.34750  0.76590  0.55140  Biso   1.000  H
  C764     1.0000 0.44650  0.75750  0.53160  Biso   1.000  C
  H997     1.0000 0.44830  0.74130  0.53860  Biso   1.000  H
  H998     1.0000 0.49610  0.76390  0.53080  Biso   1.000  H
  C765     1.0000 0.40860  0.75860  0.50290  Biso   1.000  C
  H999     1.0000 0.39000  0.77440  0.49880  Biso   1.000  H
  H1000    1.0000 0.36890  0.74710  0.50130  Biso   1.000  H
  C766     1.0000 0.47430  0.75200  0.48410  Biso   1.000  C
  H1001    1.0000 0.51580  0.76270  0.48690  Biso   1.000  H
  H1002    1.0000 0.49010  0.73570  0.48700  Biso   1.000  H
  C767     1.0000 0.43930  0.75550  0.45520  Biso   1.000  C
  H1003    1.0000 0.39380  0.74660  0.45340  Biso   1.000  H
  H1004    1.0000 0.47280  0.75110  0.44030  Biso   1.000  H
  C768     1.0000 0.55890  0.71550  0.56650  Biso   1.000  C
  H1005    1.0000 0.59500  0.70580  0.57620  Biso   1.000  H
  H1006    1.0000 0.57650  0.73180  0.56810  Biso   1.000  H
  C769     1.0000 0.56800  0.70930  0.53580  Biso   1.000  C
  H1007    1.0000 0.53780  0.71930  0.52400  Biso   1.000  H
  H1008    1.0000 0.55620  0.69270  0.53230  Biso   1.000  H
  C770     1.0000 0.64980  0.71420  0.53170  Biso   1.000  C
  H1009    1.0000 0.65900  0.73100  0.52850  Biso   1.000  H
  H1010    1.0000 0.67870  0.70890  0.54760  Biso   1.000  H
  C771     1.0000 0.66600  0.69950  0.50580  Biso   1.000  C
  H1011    1.0000 0.63470  0.68560  0.50470  Biso   1.000  H
  H1012    1.0000 0.71740  0.69460  0.50520  Biso   1.000  H
  C772     1.0000 0.64800  0.71740  0.48280  Biso   1.000  C
  H1013    1.0000 0.63410  0.73270  0.49040  Biso   1.000  H
  H1014    1.0000 0.61010  0.71150  0.47040  Biso   1.000  H
  C773     1.0000 0.72300  0.71870  0.46800  Biso   1.000  C
  H1015    1.0000 0.72980  0.73430  0.46040  Biso   1.000  H
  H1016    1.0000 0.72440  0.70710  0.45320  Biso   1.000  H
  H1017    1.0000 0.76160  0.71530  0.48120  Biso   1.000  H
  C774     1.0000 0.82860  0.93595  0.37010  Biso   1.000  C
  C775     1.0000 0.78460  0.95669  0.35700  Biso   1.000  C
  C776     1.0000 0.73640  0.95488  0.33830  Biso   1.000  C
  H1018    1.0000 0.72400  0.94080  0.32920  Biso   1.000  H
  C777     1.0000 0.70450  0.97676  0.33330  Biso   1.000  C
  C778     1.0000 0.73420  0.99519  0.34839  Biso   1.000  C
  C779     1.0000 0.71400  0.01933  0.35040  Biso   1.000  C
  C780     1.0000 0.75460  0.03920  0.34160  Biso   1.000  C
  C781     1.0000 0.65990  0.05709  0.36245  Biso   1.000  C
  C782     1.0000 0.72370  0.05974  0.34810  Biso   1.000  C
  H1019    1.0000 0.74370  0.07440  0.34340  Biso   1.000  H
  C783     1.0000 0.61770  0.07409  0.37470  Biso   1.000  C
  C784     1.0000 0.65300  0.98110  0.31120  Biso   1.000  C
  H1020    1.0000 0.63580  0.99730  0.31400  Biso   1.000  H
  H1021    1.0000 0.61120  0.97090  0.31500  Biso   1.000  H
  C785     1.0000 0.66750  0.97880  0.28053  Biso   1.000  C
  H1022    1.0000 0.62340  0.98240  0.26980  Biso   1.000  H
  H1023    1.0000 0.68380  0.96290  0.27590  Biso   1.000  H
  C786     1.0000 0.72710  0.99670  0.27471  Biso   1.000  C
  H1024    1.0000 0.71310  0.01230  0.28140  Biso   1.000  H
  H1025    1.0000 0.77300  0.99200  0.28350  Biso   1.000  H
  C787     1.0000 0.73430  0.99660  0.24348  Biso   1.000  C
  H1026    1.0000 0.74640  0.98080  0.23670  Biso   1.000  H
  H1027    1.0000 0.68880  0.00170  0.23470  Biso   1.000  H
  C788     1.0000 0.79510  0.01360  0.23740  Biso   1.000  C
  H1028    1.0000 0.78180  0.02960  0.24320  Biso   1.000  H
  H1029    1.0000 0.83990  0.00900  0.24710  Biso   1.000  H
  C789     1.0000 0.80570  0.01250  0.20660  Biso   1.000  C
  H1030    1.0000 0.84380  0.02340  0.20120  Biso   1.000  H
  H1031    1.0000 0.76040  0.01670  0.19740  Biso   1.000  H
  H1032    1.0000 0.81950  0.99660  0.20130  Biso   1.000  H
  C790     1.0000 0.82300  0.03680  0.33120  Biso   1.000  C
  H1033    1.0000 0.83360  0.02010  0.32750  Biso   1.000  H
  H1034    1.0000 0.85920  0.04270  0.34440  Biso   1.000  H
  C791     1.0000 0.82540  0.05090  0.30460  Biso   1.000  C
  H1035    1.0000 0.81420  0.06750  0.30800  Biso   1.000  H
  H1036    1.0000 0.79130  0.04460  0.29080  Biso   1.000  H
  C792     1.0000 0.90450  0.04760  0.29540  Biso   1.000  C
  H1037    1.0000 0.93260  0.06220  0.29760  Biso   1.000  H
  H1038    1.0000 0.92840  0.03500  0.30590  Biso   1.000  H
  C793     1.0000 0.89600  0.04100  0.26500  Biso   1.000  C
  H1039    1.0000 0.89720  0.02390  0.26240  Biso   1.000  H
  H1040    1.0000 0.85000  0.04720  0.25740  Biso   1.000  H
  C794     1.0000 0.81990  0.86496  0.30839  Biso   1.000  C
  C795     1.0000 0.84170  0.88246  0.28875  Biso   1.000  C
  C796     1.0000 0.84040  0.90524  0.29475  Biso   1.000  C
  H1041    1.0000 0.82730  0.91180  0.31190  Biso   1.000  H
  C797     1.0000 0.87840  0.90390  0.24802  Biso   1.000  C
  C798     1.0000 0.89310  0.90952  0.21923  Biso   1.000  C
  C799     1.0000 0.95760  0.90791  0.17494  Biso   1.000  C
  C800     1.0000 0.00890  0.90510  0.15050  Biso   1.000  C
  C801     1.0000 0.88040  0.94515  0.27062  Biso   1.000  C
  H1042    1.0000 0.89370  0.95040  0.25200  Biso   1.000  H
  H1043    1.0000 0.83600  0.95360  0.27600  Biso   1.000  H
  C802     1.0000 0.94060  0.95165  0.29014  Biso   1.000  C
  H1044    1.0000 0.92970  0.94570  0.30870  Biso   1.000  H
  H1045    1.0000 0.98670  0.94460  0.28400  Biso   1.000  H
  C803     1.0000 0.01560  0.98344  0.30566  Biso   1.000  C
  H1046    1.0000 0.05520  0.97310  0.29960  Biso   1.000  H
  H1047    1.0000 0.02970  0.99980  0.30180  Biso   1.000  H
  C804     1.0000 0.07120  0.98650  0.35020  Biso   1.000  C
  H1048    1.0000 0.06410  0.98510  0.37000  Biso   1.000  H
  H1049    1.0000 0.08450  0.00260  0.34570  Biso   1.000  H
  H1050    1.0000 0.10970  0.97590  0.34430  Biso   1.000  H
  C805     1.0000 0.73130  0.93020  0.18750  Biso   1.000  C
  H1051    1.0000 0.74710  0.93080  0.16810  Biso   1.000  H
  H1052    1.0000 0.71610  0.91410  0.19190  Biso   1.000  H
  C806     1.0000 0.66990  0.94720  0.19240  Biso   1.000  C
  H1053    1.0000 0.65060  0.95310  0.17490  Biso   1.000  H
  H1054    1.0000 0.68620  0.96050  0.20370  Biso   1.000  H
  C807     1.0000 0.86340  0.91861  0.26974  Biso   1.000  C
  C808     1.0000 0.86290  0.92333  0.20225  Biso   1.000  C
  C809     1.0000 0.90470  0.92365  0.17503  Biso   1.000  C
  H1055    1.0000 0.89420  0.93380  0.16020  Biso   1.000  H
  C810     1.0000 0.94690  0.97754  0.29063  Biso   1.000  C
  H1056    1.0000 0.90480  0.98450  0.30010  Biso   1.000  H
  H1057    1.0000 0.94860  0.98380  0.27170  Biso   1.000  H
  C811     1.0000 0.00200  0.98030  0.33560  Biso   1.000  C
  H1058    1.0000 0.98850  0.96390  0.33950  Biso   1.000  H
  H1059    1.0000 0.96220  0.99050  0.34170  Biso   1.000  H
  C812     1.0000 0.79210  0.93790  0.20630  Biso   1.000  C
  H1060    1.0000 0.77600  0.93640  0.22560  Biso   1.000  H
  H1061    1.0000 0.80280  0.95460  0.20290  Biso   1.000  H
  C813     1.0000 0.61340  0.93290  0.20750  Biso   1.000  C
  H1062    1.0000 0.63200  0.92760  0.22550  Biso   1.000  H
  H1063    1.0000 0.59920  0.91910  0.19660  Biso   1.000  H
  C814     1.0000 0.54980  0.94940  0.21110  Biso   1.000  C
  H1064    1.0000 0.54700  0.96050  0.19570  Biso   1.000  H
  H1065    1.0000 0.50390  0.94060  0.21220  Biso   1.000  H
  C815     1.0000 0.56500  0.96210  0.23780  Biso   1.000  C
  H1066    1.0000 0.52500  0.97300  0.24150  Biso   1.000  H
  H1067    1.0000 0.61000  0.97070  0.23630  Biso   1.000  H
  H1068    1.0000 0.56800  0.95080  0.25270  Biso   1.000  H
  O121     1.0000 0.53290  0.91075  0.55442  Biso   1.000  O
  O122     1.0000 0.52750  0.88237  0.58430  Biso   1.000  O
  O123     1.0000 0.75840  0.87259  0.39531  Biso   1.000  O
  O124     1.0000 0.69100  0.84580  0.37228  Biso   1.000  O
  O125     1.0000 0.68140  0.86274  0.59423  Biso   1.000  O
  O126     1.0000 0.73140  0.82811  0.61054  Biso   1.000  O
  O127     1.0000 0.89990  0.91465  0.44464  Biso   1.000  O
  O128     1.0000 0.90570  0.89015  0.40968  Biso   1.000  O
  O129     1.0000 0.43150  0.90491  0.63026  Biso   1.000  O
  O130     1.0000 0.50340  0.87728  0.64807  Biso   1.000  O
  O131     1.0000 0.34310  0.85877  0.84449  Biso   1.000  O
  O132     1.0000 0.33080  0.83337  0.81011  Biso   1.000  O
  O133     1.0000 0.54560  0.83653  0.61126  Biso   1.000  O
  O134     1.0000 0.60050  0.80906  0.63697  Biso   1.000  O
  O135     1.0000 0.32170  0.68128  0.64205  Biso   1.000  O
  O136     1.0000 0.39450  0.65393  0.62099  Biso   1.000  O
  O137     1.0000 0.81510  0.91599  0.36356  Biso   1.000  O
  O138     1.0000 0.87740  0.94223  0.38848  Biso   1.000  O
  O139     1.0000 0.55850  0.06729  0.38570  Biso   1.000  O
  O140     1.0000 0.63200  0.09475  0.37217  Biso   1.000  O
  O141     1.0000 0.80740  0.84335  0.30100  Biso   1.000  O
  O142     1.0000 0.79880  0.87040  0.33380  Biso   1.000  O
  O143     1.0000 0.05110  0.88906  0.15168  Biso   1.000  O
  O144     1.0000 0.98630  0.91761  0.12965  Biso   1.000  O
  S61      1.0000 0.57661  0.88344  0.50585  Biso   1.000  S
  S62      1.0000 0.67751  0.86654  0.44926  Biso   1.000  S
  S63      1.0000 0.75320  0.85973  0.53889  Biso   1.000  S
  S64      1.0000 0.85308  0.88142  0.48692  Biso   1.000  S
  S65      1.0000 0.44588  0.88314  0.70636  Biso   1.000  S
  S66      1.0000 0.36575  0.86460  0.76448  Biso   1.000  S
  S67      1.0000 0.53090  0.76891  0.61863  Biso   1.000  S
  S68      1.0000 0.39575  0.72233  0.61952  Biso   1.000  S
  S69      1.0000 0.80228  0.98371  0.36925  Biso   1.000  S
  S70      1.0000 0.63973  0.02713  0.36716  Biso   1.000  S
  S71      1.0000 0.86370  0.87452  0.25682  Biso   1.000  S
  S72      1.0000 0.96699  0.89387  0.20470  Biso   1.000  S
  Mn31     1.0000 0.47108  0.91672  0.59330  Biso   1.000  Mn
  Mn32     1.0000 0.59034  0.87034  0.62038  Biso   1.000  Mn
  Mn33     1.0000 0.70169  0.82154  0.64904  Biso   1.000  Mn
  Mn34     1.0000 0.96390  0.92528  0.40701  Biso   1.000  Mn
  Mn35     1.0000 0.85257  0.88069  0.37141  Biso   1.000  Mn
  Mn36     1.0000 0.74126  0.83510  0.33763  Biso   1.000  Mn
  H1069    1.0000 0.47750  0.83140  0.46870  Biso   1.000  H
  H1070    1.0000 0.51570  0.80900  0.45510  Biso   1.000  H
  C816     1.0000 0.45180  0.82770  0.42660  Biso   1.000  C
  H1071    1.0000 0.47250  0.81970  0.41040  Biso   1.000  H
  H1072    1.0000 0.44230  0.84420  0.42200  Biso   1.000  H
  C817     1.0000 0.38220  0.81530  0.43690  Biso   1.000  C
  H1073    1.0000 0.38630  0.79810  0.43540  Biso   1.000  H
  H1074    1.0000 0.37100  0.81950  0.45610  Biso   1.000  H
  C818     1.0000 0.32490  0.82520  0.41680  Biso   1.000  C
  H1075    1.0000 0.34630  0.82860  0.39870  Biso   1.000  H
  H1076    1.0000 0.30210  0.83950  0.42420  Biso   1.000  H
  C819     1.0000 0.27020  0.80470  0.41530  Biso   1.000  C
  H1077    1.0000 0.22730  0.80760  0.42690  Biso   1.000  H
  H1078    1.0000 0.29270  0.78970  0.42070  Biso   1.000  H
  C820     1.0000 0.25100  0.80510  0.38420  Biso   1.000  C
  H1079    1.0000 0.21030  0.79450  0.38080  Biso   1.000  H
  H1080    1.0000 0.29260  0.80010  0.37350  Biso   1.000  H
  H1081    1.0000 0.23690  0.82100  0.37890  Biso   1.000  H
  H1082    1.0000 0.95250  0.05590  0.23190  Biso   1.000  H
  H1083    1.0000 0.00530  0.04310  0.25340  Biso   1.000  H
  H1084    1.0000 0.00490  0.08580  0.25860  Biso   1.000  H
  H1085    1.0000 0.98520  0.07240  0.28630  Biso   1.000  H
  H1086    1.0000 0.92250  0.08380  0.26820  Biso   1.000  H
  C821     1.0000 0.96100  0.05280  0.25150  Biso   1.000  C
  C822     1.0000 0.96900  0.07580  0.26760  Biso   1.000  C
  C823     1.0000 0.07500  0.71760  0.95590  Biso   1.000  C
  H1087    1.0000 0.10020  0.71290  0.93920  Biso   1.000  H
  H1088    1.0000 0.02840  0.70930  0.95690  Biso   1.000  H
  H1089    1.0000 0.10400  0.71370  0.97190  Biso   1.000  H
  C824     1.0000 0.14300  0.65880  0.98230  Biso   1.000  C
  H1090    1.0000 0.10370  0.64730  0.98330  Biso   1.000  H
  H1091    1.0000 0.18780  0.65110  0.97560  Biso   1.000  H
  C825     1.0000 0.15600  0.67120  0.01050  Biso   1.000  C
  H1092    1.0000 0.12400  0.68490  0.01270  Biso   1.000  H
  H1093    1.0000 0.20680  0.67590  0.01290  Biso   1.000  H
  C826     1.0000 0.13400  0.65090  0.03040  Biso   1.000  C
  H1094    1.0000 0.17790  0.64430  0.03880  Biso   1.000  H
  H1095    1.0000 0.10920  0.63860  0.02010  Biso   1.000  H
  H1096    1.0000 0.10230  0.65690  0.04470  Biso   1.000  H
  C827     1.0000 0.66070  0.64721  0.99342  Biso   1.000  C
  C828     1.0000 0.65650  0.66055  0.96969  Biso   1.000  C
  C829     1.0000 0.64180  0.64683  0.94760  Biso   1.000  C
  H1097    1.0000 0.63820  0.65300  0.92960  Biso   1.000  H
  C830     1.0000 0.63290  0.62448  0.95272  Biso   1.000  C
  C831     1.0000 0.96230  0.60942  0.05973  Biso   1.000  C
  C832     1.0000 0.93590  0.62705  0.03779  Biso   1.000  C
  C833     1.0000 0.93220  0.65011  0.04009  Biso   1.000  C
  H1098    1.0000 0.94000  0.65840  0.05670  Biso   1.000  H
  C834     1.0000 0.91450  0.66138  0.01370  Biso   1.000  C
  C835     1.0000 0.91060  0.64449  0.99403  Biso   1.000  C
  C836     1.0000 0.89540  0.64771  0.96437  Biso   1.000  C
  C837     1.0000 0.93170  0.65970  0.94500  Biso   1.000  C
  C838     1.0000 0.89330  0.65992  0.91977  Biso   1.000  C
  H1099    1.0000 0.90770  0.66950  0.90490  Biso   1.000  H
  C839     1.0000 0.83780  0.64633  0.91811  Biso   1.000  C
  C840     1.0000 0.78990  0.64202  0.89377  Biso   1.000  C
  C841     1.0000 0.90580  0.68684  0.01160  Biso   1.000  C
  H1100    1.0000 0.89440  0.69110  0.99240  Biso   1.000  H
  H1101    1.0000 0.95170  0.69460  0.01660  Biso   1.000  H
  C842     1.0000 0.84580  0.69550  0.03030  Biso   1.000  C
  H1102    1.0000 0.79860  0.68880  0.02480  Biso   1.000  H
  H1103    1.0000 0.85560  0.69120  0.04960  Biso   1.000  H
  C843     1.0000 0.84620  0.72178  0.02660  Biso   1.000  C
  H1104    1.0000 0.89190  0.72860  0.03350  Biso   1.000  H
  H1105    1.0000 0.84050  0.72600  0.00710  Biso   1.000  H
  C844     1.0000 0.78260  0.73045  0.04323  Biso   1.000  C
  H1106    1.0000 0.77120  0.74680  0.03850  Biso   1.000  H
  H1107    1.0000 0.73930  0.72070  0.03980  Biso   1.000  H
  C845     1.0000 0.80550  0.72860  0.07260  Biso   1.000  C
  H1108    1.0000 0.84480  0.73980  0.07660  Biso   1.000  H
  H1109    1.0000 0.82300  0.71260  0.07670  Biso   1.000  H
  C846     1.0000 0.73940  0.73410  0.08950  Biso   1.000  C
  H1110    1.0000 0.75110  0.73270  0.10900  Biso   1.000  H
  H1111    1.0000 0.70070  0.72320  0.08490  Biso   1.000  H
  H1112    1.0000 0.72350  0.75010  0.08550  Biso   1.000  H
  C847     1.0000 0.99820  0.67460  0.95200  Biso   1.000  C
  H1113    1.0000 0.00050  0.67570  0.97220  Biso   1.000  H
  H1114    1.0000 0.98850  0.69050  0.94510  Biso   1.000  H
  C848     1.0000 0.07500  0.66760  0.94190  Biso   1.000  C
  H1115    1.0000 0.08480  0.67370  0.92330  Biso   1.000  H
  H1116    1.0000 0.08220  0.65050  0.94220  Biso   1.000  H
  C849     1.0000 0.12240  0.68020  0.96400  Biso   1.000  C
  H1117    1.0000 0.16550  0.68770  0.95580  Biso   1.000  H
  H1118    1.0000 0.09440  0.69190  0.97440  Biso   1.000  H
  C850     1.0000 0.78290  0.65410  0.09220  Biso   1.000  C
  C851     1.0000 0.72680  0.65712  0.06649  Biso   1.000  C
  C852     1.0000 0.67740  0.67270  0.06331  Biso   1.000  C
  H1119    1.0000 0.66520  0.68400  0.07670  Biso   1.000  H
  C853     1.0000 0.64300  0.67070  0.03715  Biso   1.000  C
  C854     1.0000 0.67810  0.65390  0.02148  Biso   1.000  C
  C855     1.0000 0.60910  0.60563  0.93552  Biso   1.000  C
  C856     1.0000 0.58250  0.68560  0.02890  Biso   1.000  C
  H1120    1.0000 0.57270  0.68330  0.00910  Biso   1.000  H
  H1121    1.0000 0.59590  0.70210  0.03170  Biso   1.000  H
  C857     1.0000 0.51430  0.68030  0.04510  Biso   1.000  C
  H1122    1.0000 0.47620  0.69200  0.04120  Biso   1.000  H
  H1123    1.0000 0.52430  0.68030  0.06500  Biso   1.000  H
  C858     1.0000 0.49160  0.65620  0.03540  Biso   1.000  C
  H1124    1.0000 0.47110  0.65690  0.01670  Biso   1.000  H
  H1125    1.0000 0.53330  0.64540  0.03540  Biso   1.000  H
  C859     1.0000 0.43470  0.64840  0.05600  Biso   1.000  C
  H1126    1.0000 0.40220  0.63650  0.04780  Biso   1.000  H
  H1127    1.0000 0.45760  0.64170  0.07260  Biso   1.000  H
  C860     1.0000 0.39350  0.67050  0.06290  Biso   1.000  C
  H1128    1.0000 0.34270  0.66700  0.06770  Biso   1.000  H
  H1129    1.0000 0.39410  0.68160  0.04730  Biso   1.000  H
  C861     1.0000 0.43400  0.68060  0.08740  Biso   1.000  C
  H1130    1.0000 0.40300  0.69190  0.09680  Biso   1.000  H
  H1131    1.0000 0.47800  0.68830  0.08110  Biso   1.000  H
  H1132    1.0000 0.44640  0.66800  0.10010  Biso   1.000  H
  C862     1.0000 0.67890  0.68675  0.96695  Biso   1.000  C
  H1133    1.0000 0.63620  0.69580  0.96090  Biso   1.000  H
  H1134    1.0000 0.69290  0.69260  0.98530  Biso   1.000  H
  C863     1.0000 0.74050  0.69152  0.94714  Biso   1.000  C
  H1135    1.0000 0.78610  0.68470  0.95400  Biso   1.000  H
  H1136    1.0000 0.72990  0.68480  0.92890  Biso   1.000  H
  C864     1.0000 0.74650  0.71761  0.94540  Biso   1.000  C
  H1137    1.0000 0.73690  0.72490  0.96340  Biso   1.000  H
  H1138    1.0000 0.71200  0.72400  0.93180  Biso   1.000  H
  C865     1.0000 0.82350  0.72190  0.93650  Biso   1.000  C
  H1139    1.0000 0.84660  0.73380  0.94830  Biso   1.000  H
  H1140    1.0000 0.85210  0.70740  0.93750  Biso   1.000  H
  C866     1.0000 0.81820  0.73050  0.90740  Biso   1.000  C
  H1141    1.0000 0.77390  0.72460  0.89840  Biso   1.000  H
  H1142    1.0000 0.86070  0.72550  0.89650  Biso   1.000  H
  C867     1.0000 0.81600  0.75690  0.91020  Biso   1.000  C
  H1143    1.0000 0.80800  0.76400  0.89220  Biso   1.000  H
  H1144    1.0000 0.86170  0.76250  0.91780  Biso   1.000  H
  H1145    1.0000 0.77620  0.76130  0.92250  Biso   1.000  H
  C868     1.0000 0.04410  0.60850  0.14920  Biso   1.000  C
  C869     1.0000 0.15450  0.58669  0.20916  Biso   1.000  C
  C870     1.0000 0.07750  0.60315  0.17797  Biso   1.000  C
  C871     1.0000 0.12720  0.58640  0.18260  Biso   1.000  C
  H1146    1.0000 0.14200  0.57550  0.16910  Biso   1.000  H
  C872     1.0000 0.11930  0.60165  0.22595  Biso   1.000  C
  C873     1.0000 0.11890  0.60703  0.25453  Biso   1.000  C
  C874     1.0000 0.12090  0.59300  0.27697  Biso   1.000  C
  C875     1.0000 0.12850  0.60434  0.30271  Biso   1.000  C
  H1147    1.0000 0.12830  0.59700  0.32020  Biso   1.000  H
  C876     1.0000 0.13620  0.62769  0.29787  Biso   1.000  C
  C877     1.0000 0.15220  0.64611  0.31855  Biso   1.000  C
  C878     1.0000 0.22010  0.57330  0.22000  Biso   1.000  C
  H1148    1.0000 0.20750  0.55650  0.22040  Biso   1.000  H
  H1149    1.0000 0.22880  0.57820  0.23910  Biso   1.000  H
  C879     1.0000 0.29160  0.57600  0.20390  Biso   1.000  C
  H1150    1.0000 0.28280  0.57770  0.18400  Biso   1.000  H
  H1151    1.0000 0.32430  0.56260  0.20710  Biso   1.000  H
  C880     1.0000 0.32310  0.59890  0.21640  Biso   1.000  C
  H1152    1.0000 0.35950  0.59560  0.23070  Biso   1.000  H
  H1153    1.0000 0.28460  0.60900  0.22400  Biso   1.000  H
  C881     1.0000 0.35820  0.60990  0.19010  Biso   1.000  C
  H1154    1.0000 0.35510  0.59930  0.17420  Biso   1.000  H
  H1155    1.0000 0.40920  0.61430  0.19330  Biso   1.000  H
  C882     1.0000 0.30900  0.63190  0.18650  Biso   1.000  C
  H1156    1.0000 0.25960  0.62920  0.19410  Biso   1.000  H
  H1157    1.0000 0.32990  0.64590  0.19510  Biso   1.000  H
  C883     1.0000 0.30700  0.63390  0.15450  Biso   1.000  C
  H1158    1.0000 0.27390  0.64640  0.14910  Biso   1.000  H
  H1159    1.0000 0.29060  0.61910  0.14660  Biso   1.000  H
  H1160    1.0000 0.35570  0.63750  0.14780  Biso   1.000  H
  C884     1.0000 0.10880  0.56630  0.27670  Biso   1.000  C
  H1161    1.0000 0.10560  0.56080  0.25750  Biso   1.000  H
  H1162    1.0000 0.15060  0.55850  0.28540  Biso   1.000  H
  C885     1.0000 0.03970  0.55962  0.29190  Biso   1.000  C
  H1163    1.0000 0.04100  0.56540  0.31100  Biso   1.000  H
  H1164    1.0000 0.99670  0.56620  0.28260  Biso   1.000  H
  C886     1.0000 0.03820  0.53329  0.29130  Biso   1.000  C
  H1165    1.0000 0.04960  0.52750  0.27270  Biso   1.000  H
  H1166    1.0000 0.07390  0.52680  0.30430  Biso   1.000  H
  C887     1.0000 0.96300  0.52630  0.29940  Biso   1.000  C
  H1167    1.0000 0.95520  0.50950  0.29560  Biso   1.000  H
  H1168    1.0000 0.92690  0.53540  0.28890  Biso   1.000  H
  C888     1.0000 0.95580  0.53120  0.32960  Biso   1.000  C
  H1169    1.0000 0.94960  0.54810  0.33300  Biso   1.000  H
  H1170    1.0000 0.99880  0.52560  0.33980  Biso   1.000  H
  C889     1.0000 0.88850  0.51770  0.33810  Biso   1.000  C
  H1171    1.0000 0.87790  0.52070  0.35740  Biso   1.000  H
  H1172    1.0000 0.89690  0.50100  0.33540  Biso   1.000  H
  H1173    1.0000 0.84750  0.52260  0.32680  Biso   1.000  H
  C890     1.0000 0.94770  0.68387  0.11920  Biso   1.000  C
  C891     1.0000 0.97140  0.70369  0.10740  Biso   1.000  C
  C892     1.0000 0.02050  0.70290  0.08730  Biso   1.000  C
  H1174    1.0000 0.03240  0.68830  0.07930  Biso   1.000  H
  C893     1.0000 0.06170  0.72700  0.07570  Biso   1.000  C
  C894     1.0000 0.02550  0.74272  0.09580  Biso   1.000  C
  C895     1.0000 0.03900  0.76778  0.09580  Biso   1.000  C
  C896     1.0000 0.00820  0.78530  0.08460  Biso   1.000  C
  C897     1.0000 0.03120  0.80799  0.09270  Biso   1.000  C
  H1175    1.0000 0.01240  0.82220  0.08570  Biso   1.000  H
  C898     1.0000 0.08390  0.80618  0.11172  Biso   1.000  C
  C899     1.0000 0.12630  0.82558  0.12510  Biso   1.000  C
  C900     1.0000 0.10410  0.72700  0.04910  Biso   1.000  C
  H1176    1.0000 0.10900  0.71110  0.04140  Biso   1.000  H
  H1177    1.0000 0.15250  0.73410  0.05140  Biso   1.000  H
  C901     1.0000 0.05350  0.74250  0.03160  Biso   1.000  C
  H1178    1.0000 0.05170  0.75870  0.03860  Biso   1.000  H
  H1179    1.0000 0.00390  0.73610  0.03080  Biso   1.000  H
  C902     1.0000 0.09140  0.74140  0.00290  Biso   1.000  C
  H1180    1.0000 0.11000  0.72560  0.99880  Biso   1.000  H
  H1181    1.0000 0.13110  0.75290  0.00130  Biso   1.000  H
  C903     1.0000 0.02570  0.74800  0.98410  Biso   1.000  C
  H1182    1.0000 0.98420  0.73730  0.98690  Biso   1.000  H
  H1183    1.0000 0.00990  0.76430  0.98700  Biso   1.000  H
  C904     1.0000 0.06070  0.74450  0.95520  Biso   1.000  C
  H1184    1.0000 0.10620  0.75340  0.95340  Biso   1.000  H
  H1185    1.0000 0.02720  0.74890  0.94030  Biso   1.000  H
  C905     1.0000 0.94110  0.78450  0.06650  Biso   1.000  C
  H1186    1.0000 0.90500  0.79420  0.07620  Biso   1.000  H
  H1187    1.0000 0.92350  0.76820  0.06810  Biso   1.000  H
  C906     1.0000 0.93200  0.79070  0.03580  Biso   1.000  C
  H1188    1.0000 0.96220  0.78070  0.02400  Biso   1.000  H
  H1189    1.0000 0.94380  0.80730  0.03230  Biso   1.000  H
  C907     1.0000 0.85020  0.78580  0.03170  Biso   1.000  C
  H1190    1.0000 0.84100  0.76900  0.02850  Biso   1.000  H
  H1191    1.0000 0.82130  0.79110  0.04760  Biso   1.000  H
  C908     1.0000 0.83400  0.80050  0.00580  Biso   1.000  C
  H1192    1.0000 0.86530  0.81440  0.00470  Biso   1.000  H
  H1193    1.0000 0.78260  0.80540  0.00520  Biso   1.000  H
  C909     1.0000 0.85200  0.78260  0.98280  Biso   1.000  C
  H1194    1.0000 0.86590  0.76730  0.99040  Biso   1.000  H
  H1195    1.0000 0.88990  0.78850  0.97040  Biso   1.000  H
  C910     1.0000 0.77700  0.78130  0.96800  Biso   1.000  C
  H1196    1.0000 0.77020  0.76570  0.96040  Biso   1.000  H
  H1197    1.0000 0.77560  0.79290  0.95320  Biso   1.000  H
  H1198    1.0000 0.73840  0.78470  0.98120  Biso   1.000  H
  C911     1.0000 0.67140  0.56405  0.87010  Biso   1.000  C
  C912     1.0000 0.71540  0.54331  0.85700  Biso   1.000  C
  C913     1.0000 0.76360  0.54512  0.83830  Biso   1.000  C
  H1199    1.0000 0.77600  0.55920  0.82920  Biso   1.000  H
  C914     1.0000 0.79550  0.52324  0.83330  Biso   1.000  C
  C915     1.0000 0.76580  0.50481  0.84839  Biso   1.000  C
  C916     1.0000 0.78600  0.48067  0.85040  Biso   1.000  C
  C917     1.0000 0.74540  0.46080  0.84160  Biso   1.000  C
  C918     1.0000 0.84010  0.44291  0.86245  Biso   1.000  C
  C919     1.0000 0.77630  0.44026  0.84810  Biso   1.000  C
  H1200    1.0000 0.75630  0.42560  0.84340  Biso   1.000  H
  C920     1.0000 0.88230  0.42591  0.87470  Biso   1.000  C
  C921     1.0000 0.84700  0.51890  0.81120  Biso   1.000  C
  H1201    1.0000 0.86420  0.50270  0.81400  Biso   1.000  H
  H1202    1.0000 0.88880  0.52910  0.81500  Biso   1.000  H
  C922     1.0000 0.83250  0.52120  0.78053  Biso   1.000  C
  H1203    1.0000 0.87660  0.51760  0.76980  Biso   1.000  H
  H1204    1.0000 0.81620  0.53710  0.77590  Biso   1.000  H
  C923     1.0000 0.77290  0.50330  0.77471  Biso   1.000  C
  H1205    1.0000 0.78690  0.48770  0.78140  Biso   1.000  H
  H1206    1.0000 0.72700  0.50800  0.78350  Biso   1.000  H
  C924     1.0000 0.76570  0.50340  0.74348  Biso   1.000  C
  H1207    1.0000 0.75360  0.51920  0.73670  Biso   1.000  H
  H1208    1.0000 0.81120  0.49830  0.73470  Biso   1.000  H
  C925     1.0000 0.70490  0.48640  0.73740  Biso   1.000  C
  H1209    1.0000 0.71820  0.47040  0.74320  Biso   1.000  H
  H1210    1.0000 0.66010  0.49100  0.74710  Biso   1.000  H
  C926     1.0000 0.69430  0.48750  0.70660  Biso   1.000  C
  H1211    1.0000 0.65620  0.47660  0.70120  Biso   1.000  H
  H1212    1.0000 0.73960  0.48330  0.69740  Biso   1.000  H
  H1213    1.0000 0.68050  0.50340  0.70130  Biso   1.000  H
  C927     1.0000 0.67700  0.46320  0.83120  Biso   1.000  C
  H1214    1.0000 0.66640  0.47990  0.82750  Biso   1.000  H
  H1215    1.0000 0.64080  0.45730  0.84440  Biso   1.000  H
  C928     1.0000 0.67460  0.44910  0.80460  Biso   1.000  C
  H1216    1.0000 0.68580  0.43250  0.80800  Biso   1.000  H
  H1217    1.0000 0.70870  0.45540  0.79080  Biso   1.000  H
  C929     1.0000 0.59550  0.45240  0.79540  Biso   1.000  C
  H1218    1.0000 0.56740  0.43780  0.79760  Biso   1.000  H
  H1219    1.0000 0.57160  0.46500  0.80590  Biso   1.000  H
  C930     1.0000 0.60400  0.45900  0.76500  Biso   1.000  C
  H1220    1.0000 0.60280  0.47610  0.76240  Biso   1.000  H
  H1221    1.0000 0.65000  0.45280  0.75740  Biso   1.000  H
  C931     1.0000 0.68010  0.63504  0.80839  Biso   1.000  C
  C932     1.0000 0.65830  0.61754  0.78875  Biso   1.000  C
  C933     1.0000 0.65960  0.59476  0.79475  Biso   1.000  C
  H1222    1.0000 0.67270  0.58820  0.81190  Biso   1.000  H
  C934     1.0000 0.62160  0.59610  0.74802  Biso   1.000  C
  C935     1.0000 0.60690  0.59048  0.71923  Biso   1.000  C
  C936     1.0000 0.54240  0.59209  0.67494  Biso   1.000  C
  C937     1.0000 0.49110  0.59490  0.65050  Biso   1.000  C
  C938     1.0000 0.61960  0.55485  0.77062  Biso   1.000  C
  H1223    1.0000 0.60630  0.54960  0.75200  Biso   1.000  H
  H1224    1.0000 0.66400  0.54640  0.77600  Biso   1.000  H
  C939     1.0000 0.55940  0.54835  0.79014  Biso   1.000  C
  H1225    1.0000 0.57030  0.55430  0.80870  Biso   1.000  H
  H1226    1.0000 0.51330  0.55540  0.78400  Biso   1.000  H
  C940     1.0000 0.48440  0.51656  0.80566  Biso   1.000  C
  H1227    1.0000 0.44480  0.52690  0.79960  Biso   1.000  H
  H1228    1.0000 0.47030  0.50020  0.80180  Biso   1.000  H
  C941     1.0000 0.42880  0.51350  0.85020  Biso   1.000  C
  H1229    1.0000 0.43590  0.51490  0.87000  Biso   1.000  H
  H1230    1.0000 0.41550  0.49740  0.84570  Biso   1.000  H
  H1231    1.0000 0.39030  0.52410  0.84430  Biso   1.000  H
  C942     1.0000 0.76870  0.56980  0.68750  Biso   1.000  C
  H1232    1.0000 0.75290  0.56920  0.66810  Biso   1.000  H
  H1233    1.0000 0.78390  0.58590  0.69190  Biso   1.000  H
  C943     1.0000 0.83010  0.55280  0.69240  Biso   1.000  C
  H1234    1.0000 0.84940  0.54690  0.67490  Biso   1.000  H
  H1235    1.0000 0.81380  0.53950  0.70370  Biso   1.000  H
  C944     1.0000 0.63660  0.58139  0.76974  Biso   1.000  C
  C945     1.0000 0.63710  0.57667  0.70225  Biso   1.000  C
  C946     1.0000 0.59530  0.57635  0.67503  Biso   1.000  C
  H1236    1.0000 0.60580  0.56620  0.66020  Biso   1.000  H
  C947     1.0000 0.55310  0.52246  0.79063  Biso   1.000  C
  H1237    1.0000 0.59520  0.51550  0.80010  Biso   1.000  H
  H1238    1.0000 0.55140  0.51620  0.77170  Biso   1.000  H
  C948     1.0000 0.49800  0.51970  0.83560  Biso   1.000  C
  H1239    1.0000 0.51150  0.53610  0.83950  Biso   1.000  H
  H1240    1.0000 0.53780  0.50950  0.84170  Biso   1.000  H
  C949     1.0000 0.70790  0.56210  0.70630  Biso   1.000  C
  H1241    1.0000 0.72400  0.56360  0.72560  Biso   1.000  H
  H1242    1.0000 0.69720  0.54540  0.70290  Biso   1.000  H
  C950     1.0000 0.88660  0.56710  0.70750  Biso   1.000  C
  H1243    1.0000 0.86800  0.57240  0.72550  Biso   1.000  H
  H1244    1.0000 0.90080  0.58090  0.69660  Biso   1.000  H
  C951     1.0000 0.95020  0.55060  0.71110  Biso   1.000  C
  H1245    1.0000 0.95300  0.53950  0.69570  Biso   1.000  H
  H1246    1.0000 0.99610  0.55940  0.71220  Biso   1.000  H
  C952     1.0000 0.93500  0.53790  0.73780  Biso   1.000  C
  H1247    1.0000 0.97500  0.52700  0.74150  Biso   1.000  H
  H1248    1.0000 0.89000  0.52930  0.73630  Biso   1.000  H
  H1249    1.0000 0.93200  0.54920  0.75270  Biso   1.000  H
  O145     1.0000 0.96710  0.58925  0.05442  Biso   1.000  O
  O146     1.0000 0.97250  0.61763  0.08430  Biso   1.000  O
  O147     1.0000 0.74160  0.62741  0.89531  Biso   1.000  O
  O148     1.0000 0.80900  0.65420  0.87228  Biso   1.000  O
  O149     1.0000 0.81860  0.63726  0.09423  Biso   1.000  O
  O150     1.0000 0.76860  0.67189  0.11054  Biso   1.000  O
  O151     1.0000 0.60010  0.58535  0.94464  Biso   1.000  O
  O152     1.0000 0.59430  0.60985  0.90968  Biso   1.000  O
  O153     1.0000 0.06850  0.59509  0.13026  Biso   1.000  O
  O154     1.0000 0.99660  0.62272  0.14807  Biso   1.000  O
  O155     1.0000 0.15690  0.64123  0.34449  Biso   1.000  O
  O156     1.0000 0.16920  0.66663  0.31011  Biso   1.000  O
  O157     1.0000 0.95440  0.66347  0.11126  Biso   1.000  O
  O158     1.0000 0.89950  0.69094  0.13697  Biso   1.000  O
  O159     1.0000 0.17830  0.81872  0.14205  Biso   1.000  O
  O160     1.0000 0.10550  0.84607  0.12099  Biso   1.000  O
  O161     1.0000 0.68490  0.58401  0.86356  Biso   1.000  O
  O162     1.0000 0.62260  0.55777  0.88848  Biso   1.000  O
  O163     1.0000 0.94150  0.43271  0.88570  Biso   1.000  O
  O164     1.0000 0.86800  0.40525  0.87217  Biso   1.000  O
  O165     1.0000 0.69260  0.65665  0.80100  Biso   1.000  O
  O166     1.0000 0.70120  0.62960  0.83380  Biso   1.000  O
  O167     1.0000 0.44890  0.61094  0.65168  Biso   1.000  O
  O168     1.0000 0.51370  0.58239  0.62965  Biso   1.000  O
  S73      1.0000 0.92339  0.61656  0.00585  Biso   1.000  S
  S74      1.0000 0.82249  0.63346  0.94926  Biso   1.000  S
  S75      1.0000 0.74680  0.64027  0.03889  Biso   1.000  S
  S76      1.0000 0.64692  0.61858  0.98692  Biso   1.000  S
  S77      1.0000 0.05412  0.61686  0.20636  Biso   1.000  S
  S78      1.0000 0.13425  0.63540  0.26448  Biso   1.000  S
  S79      1.0000 0.96910  0.73109  0.11863  Biso   1.000  S
  S80      1.0000 0.10425  0.77767  0.11952  Biso   1.000  S
  S81      1.0000 0.69772  0.51629  0.86925  Biso   1.000  S
  S82      1.0000 0.86027  0.47287  0.86716  Biso   1.000  S
  S83      1.0000 0.63630  0.62548  0.75682  Biso   1.000  S
  S84      1.0000 0.53301  0.60613  0.70470  Biso   1.000  S
  Mn37     1.0000 0.02892  0.58328  0.09330  Biso   1.000  Mn
  Mn38     1.0000 0.90966  0.62966  0.12038  Biso   1.000  Mn
  Mn39     1.0000 0.79831  0.67846  0.14904  Biso   1.000  Mn
  Mn40     1.0000 0.53610  0.57472  0.90701  Biso   1.000  Mn
  Mn41     1.0000 0.64743  0.61931  0.87141  Biso   1.000  Mn
  Mn42     1.0000 0.75874  0.66490  0.83763  Biso   1.000  Mn
  H1250    1.0000 0.02250  0.66860  0.96870  Biso   1.000  H
  H1251    1.0000 0.98430  0.69100  0.95510  Biso   1.000  H
  C953     1.0000 0.04820  0.67230  0.92660  Biso   1.000  C
  H1252    1.0000 0.02750  0.68030  0.91040  Biso   1.000  H
  H1253    1.0000 0.05770  0.65580  0.92200  Biso   1.000  H
  C954     1.0000 0.11780  0.68470  0.93690  Biso   1.000  C
  H1254    1.0000 0.11370  0.70190  0.93540  Biso   1.000  H
  H1255    1.0000 0.12900  0.68050  0.95610  Biso   1.000  H
  C955     1.0000 0.17510  0.67480  0.91680  Biso   1.000  C
  H1256    1.0000 0.15370  0.67140  0.89870  Biso   1.000  H
  H1257    1.0000 0.19790  0.66050  0.92420  Biso   1.000  H
  C956     1.0000 0.22980  0.69530  0.91530  Biso   1.000  C
  H1258    1.0000 0.27270  0.69240  0.92690  Biso   1.000  H
  H1259    1.0000 0.20730  0.71030  0.92070  Biso   1.000  H
  C957     1.0000 0.24900  0.69490  0.88420  Biso   1.000  C
  H1260    1.0000 0.28970  0.70550  0.88080  Biso   1.000  H
  H1261    1.0000 0.20740  0.69990  0.87350  Biso   1.000  H
  H1262    1.0000 0.26310  0.67900  0.87890  Biso   1.000  H
  H1263    1.0000 0.54750  0.44410  0.73190  Biso   1.000  H
  H1264    1.0000 0.49470  0.45690  0.75340  Biso   1.000  H
  H1265    1.0000 0.49510  0.41420  0.75860  Biso   1.000  H
  H1266    1.0000 0.51480  0.42760  0.78630  Biso   1.000  H
  H1267    1.0000 0.57750  0.41620  0.76820  Biso   1.000  H
  C958     1.0000 0.53900  0.44720  0.75150  Biso   1.000  C
  C959     1.0000 0.53100  0.42420  0.76760  Biso   1.000  C
  C960     1.0000 0.57500  0.21760  0.95590  Biso   1.000  C
  H1268    1.0000 0.60020  0.21290  0.93920  Biso   1.000  H
  H1269    1.0000 0.52840  0.20930  0.95690  Biso   1.000  H
  H1270    1.0000 0.60400  0.21370  0.97190  Biso   1.000  H
  C961     1.0000 0.64300  0.15880  0.98230  Biso   1.000  C
  H1271    1.0000 0.60370  0.14730  0.98330  Biso   1.000  H
  H1272    1.0000 0.68780  0.15110  0.97560  Biso   1.000  H
  C962     1.0000 0.65600  0.17120  0.01050  Biso   1.000  C
  H1273    1.0000 0.62400  0.18490  0.01270  Biso   1.000  H
  H1274    1.0000 0.70680  0.17590  0.01290  Biso   1.000  H
  C963     1.0000 0.63400  0.15090  0.03040  Biso   1.000  C
  H1275    1.0000 0.67790  0.14430  0.03880  Biso   1.000  H
  H1276    1.0000 0.60920  0.13860  0.02010  Biso   1.000  H
  H1277    1.0000 0.60230  0.15690  0.04470  Biso   1.000  H
  C964     1.0000 0.16070  0.14721  0.99342  Biso   1.000  C
  C965     1.0000 0.15650  0.16055  0.96969  Biso   1.000  C
  C966     1.0000 0.14180  0.14683  0.94760  Biso   1.000  C
  H1278    1.0000 0.13820  0.15300  0.92960  Biso   1.000  H
  C967     1.0000 0.13290  0.12448  0.95272  Biso   1.000  C
  C968     1.0000 0.46230  0.10942  0.05973  Biso   1.000  C
  C969     1.0000 0.43590  0.12705  0.03779  Biso   1.000  C
  C970     1.0000 0.43220  0.15011  0.04009  Biso   1.000  C
  H1279    1.0000 0.44000  0.15840  0.05670  Biso   1.000  H
  C971     1.0000 0.41450  0.16138  0.01370  Biso   1.000  C
  C972     1.0000 0.41060  0.14449  0.99403  Biso   1.000  C
  C973     1.0000 0.39540  0.14771  0.96437  Biso   1.000  C
  C974     1.0000 0.43170  0.15970  0.94500  Biso   1.000  C
  C975     1.0000 0.39330  0.15992  0.91977  Biso   1.000  C
  H1280    1.0000 0.40770  0.16950  0.90490  Biso   1.000  H
  C976     1.0000 0.33780  0.14633  0.91811  Biso   1.000  C
  C977     1.0000 0.28990  0.14202  0.89377  Biso   1.000  C
  C978     1.0000 0.40580  0.18684  0.01160  Biso   1.000  C
  H1281    1.0000 0.39440  0.19110  0.99240  Biso   1.000  H
  H1282    1.0000 0.45170  0.19460  0.01660  Biso   1.000  H
  C979     1.0000 0.34580  0.19550  0.03030  Biso   1.000  C
  H1283    1.0000 0.29860  0.18880  0.02480  Biso   1.000  H
  H1284    1.0000 0.35560  0.19120  0.04960  Biso   1.000  H
  C980     1.0000 0.34620  0.22178  0.02660  Biso   1.000  C
  H1285    1.0000 0.39190  0.22860  0.03350  Biso   1.000  H
  H1286    1.0000 0.34050  0.22600  0.00710  Biso   1.000  H
  C981     1.0000 0.28260  0.23045  0.04323  Biso   1.000  C
  H1287    1.0000 0.27120  0.24680  0.03850  Biso   1.000  H
  H1288    1.0000 0.23930  0.22070  0.03980  Biso   1.000  H
  C982     1.0000 0.30550  0.22860  0.07260  Biso   1.000  C
  H1289    1.0000 0.34480  0.23980  0.07660  Biso   1.000  H
  H1290    1.0000 0.32300  0.21260  0.07670  Biso   1.000  H
  C983     1.0000 0.23940  0.23410  0.08950  Biso   1.000  C
  H1291    1.0000 0.25110  0.23270  0.10900  Biso   1.000  H
  H1292    1.0000 0.20070  0.22320  0.08490  Biso   1.000  H
  H1293    1.0000 0.22350  0.25010  0.08550  Biso   1.000  H
  C984     1.0000 0.49820  0.17460  0.95200  Biso   1.000  C
  H1294    1.0000 0.50050  0.17570  0.97220  Biso   1.000  H
  H1295    1.0000 0.48850  0.19050  0.94510  Biso   1.000  H
  C985     1.0000 0.57500  0.16760  0.94190  Biso   1.000  C
  H1296    1.0000 0.58480  0.17370  0.92330  Biso   1.000  H
  H1297    1.0000 0.58220  0.15050  0.94220  Biso   1.000  H
  C986     1.0000 0.62240  0.18020  0.96400  Biso   1.000  C
  H1298    1.0000 0.66550  0.18770  0.95580  Biso   1.000  H
  H1299    1.0000 0.59440  0.19190  0.97440  Biso   1.000  H
  C987     1.0000 0.28290  0.15410  0.09220  Biso   1.000  C
  C988     1.0000 0.22680  0.15712  0.06649  Biso   1.000  C
  C989     1.0000 0.17740  0.17270  0.06331  Biso   1.000  C
  H1300    1.0000 0.16520  0.18400  0.07670  Biso   1.000  H
  C990     1.0000 0.14300  0.17070  0.03715  Biso   1.000  C
  C991     1.0000 0.17810  0.15390  0.02148  Biso   1.000  C
  C992     1.0000 0.10910  0.10563  0.93552  Biso   1.000  C
  C993     1.0000 0.08250  0.18560  0.02890  Biso   1.000  C
  H1301    1.0000 0.07270  0.18330  0.00910  Biso   1.000  H
  H1302    1.0000 0.09590  0.20210  0.03170  Biso   1.000  H
  C994     1.0000 0.01430  0.18030  0.04510  Biso   1.000  C
  H1303    1.0000 0.97620  0.19200  0.04120  Biso   1.000  H
  H1304    1.0000 0.02430  0.18030  0.06500  Biso   1.000  H
  C995     1.0000 0.99160  0.15620  0.03540  Biso   1.000  C
  H1305    1.0000 0.97110  0.15690  0.01670  Biso   1.000  H
  H1306    1.0000 0.03330  0.14540  0.03540  Biso   1.000  H
  C996     1.0000 0.93470  0.14840  0.05600  Biso   1.000  C
  H1307    1.0000 0.90220  0.13650  0.04780  Biso   1.000  H
  H1308    1.0000 0.95760  0.14170  0.07260  Biso   1.000  H
  C997     1.0000 0.89350  0.17050  0.06290  Biso   1.000  C
  H1309    1.0000 0.84270  0.16700  0.06770  Biso   1.000  H
  H1310    1.0000 0.89410  0.18160  0.04730  Biso   1.000  H
  C998     1.0000 0.93400  0.18060  0.08740  Biso   1.000  C
  H1311    1.0000 0.90300  0.19190  0.09680  Biso   1.000  H
  H1312    1.0000 0.97800  0.18830  0.08110  Biso   1.000  H
  H1313    1.0000 0.94640  0.16800  0.10010  Biso   1.000  H
  C999     1.0000 0.17890  0.18675  0.96695  Biso   1.000  C
  H1314    1.0000 0.13620  0.19580  0.96090  Biso   1.000  H
  H1315    1.0000 0.19290  0.19260  0.98530  Biso   1.000  H
  C1000    1.0000 0.24050  0.19152  0.94714  Biso   1.000  C
  H1316    1.0000 0.28610  0.18470  0.95400  Biso   1.000  H
  H1317    1.0000 0.22990  0.18480  0.92890  Biso   1.000  H
  C1001    1.0000 0.24650  0.21761  0.94540  Biso   1.000  C
  H1318    1.0000 0.23690  0.22490  0.96340  Biso   1.000  H
  H1319    1.0000 0.21200  0.22400  0.93180  Biso   1.000  H
  C1002    1.0000 0.32350  0.22190  0.93650  Biso   1.000  C
  H1320    1.0000 0.34660  0.23380  0.94830  Biso   1.000  H
  H1321    1.0000 0.35210  0.20740  0.93750  Biso   1.000  H
  C1003    1.0000 0.31820  0.23050  0.90740  Biso   1.000  C
  H1322    1.0000 0.27390  0.22460  0.89840  Biso   1.000  H
  H1323    1.0000 0.36070  0.22550  0.89650  Biso   1.000  H
  C1004    1.0000 0.31600  0.25690  0.91020  Biso   1.000  C
  H1324    1.0000 0.30800  0.26400  0.89220  Biso   1.000  H
  H1325    1.0000 0.36170  0.26250  0.91780  Biso   1.000  H
  H1326    1.0000 0.27620  0.26130  0.92250  Biso   1.000  H
  C1005    1.0000 0.54410  0.10850  0.14920  Biso   1.000  C
  C1006    1.0000 0.65450  0.08669  0.20916  Biso   1.000  C
  C1007    1.0000 0.57750  0.10315  0.17797  Biso   1.000  C
  C1008    1.0000 0.62720  0.08640  0.18260  Biso   1.000  C
  H1327    1.0000 0.64200  0.07550  0.16910  Biso   1.000  H
  C1009    1.0000 0.61930  0.10165  0.22595  Biso   1.000  C
  C1010    1.0000 0.61890  0.10703  0.25453  Biso   1.000  C
  C1011    1.0000 0.62090  0.09300  0.27697  Biso   1.000  C
  C1012    1.0000 0.62850  0.10434  0.30271  Biso   1.000  C
  H1328    1.0000 0.62830  0.09700  0.32020  Biso   1.000  H
  C1013    1.0000 0.63620  0.12769  0.29787  Biso   1.000  C
  C1014    1.0000 0.65220  0.14611  0.31855  Biso   1.000  C
  C1015    1.0000 0.72010  0.07330  0.22000  Biso   1.000  C
  H1329    1.0000 0.70750  0.05650  0.22040  Biso   1.000  H
  H1330    1.0000 0.72880  0.07820  0.23910  Biso   1.000  H
  C1016    1.0000 0.79160  0.07600  0.20390  Biso   1.000  C
  H1331    1.0000 0.78280  0.07770  0.18400  Biso   1.000  H
  H1332    1.0000 0.82430  0.06260  0.20710  Biso   1.000  H
  C1017    1.0000 0.82310  0.09890  0.21640  Biso   1.000  C
  H1333    1.0000 0.85950  0.09560  0.23070  Biso   1.000  H
  H1334    1.0000 0.78460  0.10900  0.22400  Biso   1.000  H
  C1018    1.0000 0.85820  0.10990  0.19010  Biso   1.000  C
  H1335    1.0000 0.85510  0.09930  0.17420  Biso   1.000  H
  H1336    1.0000 0.90920  0.11430  0.19330  Biso   1.000  H
  C1019    1.0000 0.80900  0.13190  0.18650  Biso   1.000  C
  H1337    1.0000 0.75960  0.12920  0.19410  Biso   1.000  H
  H1338    1.0000 0.82990  0.14590  0.19510  Biso   1.000  H
  C1020    1.0000 0.80700  0.13390  0.15450  Biso   1.000  C
  H1339    1.0000 0.77390  0.14640  0.14910  Biso   1.000  H
  H1340    1.0000 0.79060  0.11910  0.14660  Biso   1.000  H
  H1341    1.0000 0.85570  0.13750  0.14780  Biso   1.000  H
  C1021    1.0000 0.60880  0.06630  0.27670  Biso   1.000  C
  H1342    1.0000 0.60560  0.06080  0.25750  Biso   1.000  H
  H1343    1.0000 0.65060  0.05850  0.28540  Biso   1.000  H
  C1022    1.0000 0.53970  0.05962  0.29190  Biso   1.000  C
  H1344    1.0000 0.54100  0.06540  0.31100  Biso   1.000  H
  H1345    1.0000 0.49670  0.06620  0.28260  Biso   1.000  H
  C1023    1.0000 0.53820  0.03329  0.29130  Biso   1.000  C
  H1346    1.0000 0.54960  0.02750  0.27270  Biso   1.000  H
  H1347    1.0000 0.57390  0.02680  0.30430  Biso   1.000  H
  C1024    1.0000 0.46300  0.02630  0.29940  Biso   1.000  C
  H1348    1.0000 0.45520  0.00950  0.29560  Biso   1.000  H
  H1349    1.0000 0.42690  0.03540  0.28890  Biso   1.000  H
  C1025    1.0000 0.45580  0.03120  0.32960  Biso   1.000  C
  H1350    1.0000 0.44960  0.04810  0.33300  Biso   1.000  H
  H1351    1.0000 0.49880  0.02560  0.33980  Biso   1.000  H
  C1026    1.0000 0.38850  0.01770  0.33810  Biso   1.000  C
  H1352    1.0000 0.37790  0.02070  0.35740  Biso   1.000  H
  H1353    1.0000 0.39690  0.00100  0.33540  Biso   1.000  H
  H1354    1.0000 0.34750  0.02260  0.32680  Biso   1.000  H
  C1027    1.0000 0.44770  0.18387  0.11920  Biso   1.000  C
  C1028    1.0000 0.47140  0.20369  0.10740  Biso   1.000  C
  C1029    1.0000 0.52050  0.20290  0.08730  Biso   1.000  C
  H1355    1.0000 0.53240  0.18830  0.07930  Biso   1.000  H
  C1030    1.0000 0.56170  0.22700  0.07570  Biso   1.000  C
  C1031    1.0000 0.52550  0.24272  0.09580  Biso   1.000  C
  C1032    1.0000 0.53900  0.26778  0.09580  Biso   1.000  C
  C1033    1.0000 0.50820  0.28530  0.08460  Biso   1.000  C
  C1034    1.0000 0.53120  0.30799  0.09270  Biso   1.000  C
  H1356    1.0000 0.51240  0.32220  0.08570  Biso   1.000  H
  C1035    1.0000 0.58390  0.30618  0.11172  Biso   1.000  C
  C1036    1.0000 0.62630  0.32558  0.12510  Biso   1.000  C
  C1037    1.0000 0.60410  0.22700  0.04910  Biso   1.000  C
  H1357    1.0000 0.60900  0.21110  0.04140  Biso   1.000  H
  H1358    1.0000 0.65250  0.23410  0.05140  Biso   1.000  H
  C1038    1.0000 0.55350  0.24250  0.03160  Biso   1.000  C
  H1359    1.0000 0.55170  0.25870  0.03860  Biso   1.000  H
  H1360    1.0000 0.50390  0.23610  0.03080  Biso   1.000  H
  C1039    1.0000 0.59140  0.24140  0.00290  Biso   1.000  C
  H1361    1.0000 0.61000  0.22560  0.99880  Biso   1.000  H
  H1362    1.0000 0.63110  0.25290  0.00130  Biso   1.000  H
  C1040    1.0000 0.52570  0.24800  0.98410  Biso   1.000  C
  H1363    1.0000 0.48420  0.23730  0.98690  Biso   1.000  H
  H1364    1.0000 0.50990  0.26430  0.98700  Biso   1.000  H
  C1041    1.0000 0.56070  0.24450  0.95520  Biso   1.000  C
  H1365    1.0000 0.60620  0.25340  0.95340  Biso   1.000  H
  H1366    1.0000 0.52720  0.24890  0.94030  Biso   1.000  H
  C1042    1.0000 0.44110  0.28450  0.06650  Biso   1.000  C
  H1367    1.0000 0.40500  0.29420  0.07620  Biso   1.000  H
  H1368    1.0000 0.42350  0.26820  0.06810  Biso   1.000  H
  C1043    1.0000 0.43200  0.29070  0.03580  Biso   1.000  C
  H1369    1.0000 0.46220  0.28070  0.02400  Biso   1.000  H
  H1370    1.0000 0.44380  0.30730  0.03230  Biso   1.000  H
  C1044    1.0000 0.35020  0.28580  0.03170  Biso   1.000  C
  H1371    1.0000 0.34100  0.26900  0.02850  Biso   1.000  H
  H1372    1.0000 0.32130  0.29110  0.04760  Biso   1.000  H
  C1045    1.0000 0.33400  0.30050  0.00580  Biso   1.000  C
  H1373    1.0000 0.36530  0.31440  0.00470  Biso   1.000  H
  H1374    1.0000 0.28260  0.30540  0.00520  Biso   1.000  H
  C1046    1.0000 0.35200  0.28260  0.98280  Biso   1.000  C
  H1375    1.0000 0.36590  0.26730  0.99040  Biso   1.000  H
  H1376    1.0000 0.38990  0.28850  0.97040  Biso   1.000  H
  C1047    1.0000 0.27700  0.28130  0.96800  Biso   1.000  C
  H1377    1.0000 0.27020  0.26570  0.96040  Biso   1.000  H
  H1378    1.0000 0.27560  0.29290  0.95320  Biso   1.000  H
  H1379    1.0000 0.23840  0.28470  0.98120  Biso   1.000  H
  C1048    1.0000 0.17140  0.06405  0.87010  Biso   1.000  C
  C1049    1.0000 0.21540  0.04331  0.85700  Biso   1.000  C
  C1050    1.0000 0.26360  0.04512  0.83830  Biso   1.000  C
  H1380    1.0000 0.27600  0.05920  0.82920  Biso   1.000  H
  C1051    1.0000 0.29550  0.02324  0.83330  Biso   1.000  C
  C1052    1.0000 0.26580  0.00481  0.84839  Biso   1.000  C
  C1053    1.0000 0.28600  0.98067  0.85040  Biso   1.000  C
  C1054    1.0000 0.24540  0.96080  0.84160  Biso   1.000  C
  C1055    1.0000 0.34010  0.94291  0.86245  Biso   1.000  C
  C1056    1.0000 0.27630  0.94026  0.84810  Biso   1.000  C
  H1381    1.0000 0.25630  0.92560  0.84340  Biso   1.000  H
  C1057    1.0000 0.38230  0.92591  0.87470  Biso   1.000  C
  C1058    1.0000 0.34700  0.01890  0.81120  Biso   1.000  C
  H1382    1.0000 0.36420  0.00270  0.81400  Biso   1.000  H
  H1383    1.0000 0.38880  0.02910  0.81500  Biso   1.000  H
  C1059    1.0000 0.33250  0.02120  0.78053  Biso   1.000  C
  H1384    1.0000 0.37660  0.01760  0.76980  Biso   1.000  H
  H1385    1.0000 0.31620  0.03710  0.77590  Biso   1.000  H
  C1060    1.0000 0.27290  0.00330  0.77471  Biso   1.000  C
  H1386    1.0000 0.28690  0.98770  0.78140  Biso   1.000  H
  H1387    1.0000 0.22700  0.00800  0.78350  Biso   1.000  H
  C1061    1.0000 0.26570  0.00340  0.74348  Biso   1.000  C
  H1388    1.0000 0.25360  0.01920  0.73670  Biso   1.000  H
  H1389    1.0000 0.31120  0.99830  0.73470  Biso   1.000  H
  C1062    1.0000 0.20490  0.98640  0.73740  Biso   1.000  C
  H1390    1.0000 0.21820  0.97040  0.74320  Biso   1.000  H
  H1391    1.0000 0.16010  0.99100  0.74710  Biso   1.000  H
  C1063    1.0000 0.19430  0.98750  0.70660  Biso   1.000  C
  H1392    1.0000 0.15620  0.97660  0.70120  Biso   1.000  H
  H1393    1.0000 0.23960  0.98330  0.69740  Biso   1.000  H
  H1394    1.0000 0.18050  0.00340  0.70130  Biso   1.000  H
  C1064    1.0000 0.17700  0.96320  0.83120  Biso   1.000  C
  H1395    1.0000 0.16640  0.97990  0.82750  Biso   1.000  H
  H1396    1.0000 0.14080  0.95730  0.84440  Biso   1.000  H
  C1065    1.0000 0.17460  0.94910  0.80460  Biso   1.000  C
  H1397    1.0000 0.18580  0.93250  0.80800  Biso   1.000  H
  H1398    1.0000 0.20870  0.95540  0.79080  Biso   1.000  H
  C1066    1.0000 0.09550  0.95240  0.79540  Biso   1.000  C
  H1399    1.0000 0.06740  0.93780  0.79760  Biso   1.000  H
  H1400    1.0000 0.07160  0.96500  0.80590  Biso   1.000  H
  C1067    1.0000 0.10400  0.95900  0.76500  Biso   1.000  C
  H1401    1.0000 0.10280  0.97610  0.76240  Biso   1.000  H
  H1402    1.0000 0.15000  0.95280  0.75740  Biso   1.000  H
  C1068    1.0000 0.18010  0.13504  0.80839  Biso   1.000  C
  C1069    1.0000 0.15830  0.11754  0.78875  Biso   1.000  C
  C1070    1.0000 0.15960  0.09476  0.79475  Biso   1.000  C
  H1403    1.0000 0.17270  0.08820  0.81190  Biso   1.000  H
  C1071    1.0000 0.12160  0.09610  0.74802  Biso   1.000  C
  C1072    1.0000 0.10690  0.09048  0.71923  Biso   1.000  C
  C1073    1.0000 0.04240  0.09209  0.67494  Biso   1.000  C
  C1074    1.0000 0.99110  0.09490  0.65050  Biso   1.000  C
  C1075    1.0000 0.11960  0.05485  0.77062  Biso   1.000  C
  H1404    1.0000 0.10630  0.04960  0.75200  Biso   1.000  H
  H1405    1.0000 0.16400  0.04640  0.77600  Biso   1.000  H
  C1076    1.0000 0.05940  0.04835  0.79014  Biso   1.000  C
  H1406    1.0000 0.07030  0.05430  0.80870  Biso   1.000  H
  H1407    1.0000 0.01330  0.05540  0.78400  Biso   1.000  H
  C1077    1.0000 0.98440  0.01656  0.80566  Biso   1.000  C
  H1408    1.0000 0.94480  0.02690  0.79960  Biso   1.000  H
  H1409    1.0000 0.97030  0.00020  0.80180  Biso   1.000  H
  C1078    1.0000 0.92880  0.01350  0.85020  Biso   1.000  C
  H1410    1.0000 0.93590  0.01490  0.87000  Biso   1.000  H
  H1411    1.0000 0.91550  0.99740  0.84570  Biso   1.000  H
  H1412    1.0000 0.89030  0.02410  0.84430  Biso   1.000  H
  C1079    1.0000 0.26870  0.06980  0.68750  Biso   1.000  C
  H1413    1.0000 0.25290  0.06920  0.66810  Biso   1.000  H
  H1414    1.0000 0.28390  0.08590  0.69190  Biso   1.000  H
  C1080    1.0000 0.33010  0.05280  0.69240  Biso   1.000  C
  H1415    1.0000 0.34940  0.04690  0.67490  Biso   1.000  H
  H1416    1.0000 0.31380  0.03950  0.70370  Biso   1.000  H
  C1081    1.0000 0.13660  0.08139  0.76974  Biso   1.000  C
  C1082    1.0000 0.13710  0.07667  0.70225  Biso   1.000  C
  C1083    1.0000 0.09530  0.07635  0.67503  Biso   1.000  C
  H1417    1.0000 0.10580  0.06620  0.66020  Biso   1.000  H
  C1084    1.0000 0.05310  0.02246  0.79063  Biso   1.000  C
  H1418    1.0000 0.09520  0.01550  0.80010  Biso   1.000  H
  H1419    1.0000 0.05140  0.01620  0.77170  Biso   1.000  H
  C1085    1.0000 0.99800  0.01970  0.83560  Biso   1.000  C
  H1420    1.0000 0.01150  0.03610  0.83950  Biso   1.000  H
  H1421    1.0000 0.03780  0.00950  0.84170  Biso   1.000  H
  C1086    1.0000 0.20790  0.06210  0.70630  Biso   1.000  C
  H1422    1.0000 0.22400  0.06360  0.72560  Biso   1.000  H
  H1423    1.0000 0.19720  0.04540  0.70290  Biso   1.000  H
  C1087    1.0000 0.38660  0.06710  0.70750  Biso   1.000  C
  H1424    1.0000 0.36800  0.07240  0.72550  Biso   1.000  H
  H1425    1.0000 0.40080  0.08090  0.69660  Biso   1.000  H
  C1088    1.0000 0.45020  0.05060  0.71110  Biso   1.000  C
  H1426    1.0000 0.45300  0.03950  0.69570  Biso   1.000  H
  H1427    1.0000 0.49610  0.05940  0.71220  Biso   1.000  H
  C1089    1.0000 0.43500  0.03790  0.73780  Biso   1.000  C
  H1428    1.0000 0.47500  0.02700  0.74150  Biso   1.000  H
  H1429    1.0000 0.39000  0.02930  0.73630  Biso   1.000  H
  H1430    1.0000 0.43200  0.04920  0.75270  Biso   1.000  H
  O169     1.0000 0.46710  0.08925  0.05442  Biso   1.000  O
  O170     1.0000 0.47250  0.11763  0.08430  Biso   1.000  O
  O171     1.0000 0.24160  0.12741  0.89531  Biso   1.000  O
  O172     1.0000 0.30900  0.15420  0.87228  Biso   1.000  O
  O173     1.0000 0.31860  0.13726  0.09423  Biso   1.000  O
  O174     1.0000 0.26860  0.17189  0.11054  Biso   1.000  O
  O175     1.0000 0.10010  0.08535  0.94464  Biso   1.000  O
  O176     1.0000 0.09430  0.10985  0.90968  Biso   1.000  O
  O177     1.0000 0.56850  0.09509  0.13026  Biso   1.000  O
  O178     1.0000 0.49660  0.12272  0.14807  Biso   1.000  O
  O179     1.0000 0.65690  0.14123  0.34449  Biso   1.000  O
  O180     1.0000 0.66920  0.16663  0.31011  Biso   1.000  O
  O181     1.0000 0.45440  0.16347  0.11126  Biso   1.000  O
  O182     1.0000 0.39950  0.19094  0.13697  Biso   1.000  O
  O183     1.0000 0.67830  0.31872  0.14205  Biso   1.000  O
  O184     1.0000 0.60550  0.34607  0.12099  Biso   1.000  O
  O185     1.0000 0.18490  0.08401  0.86356  Biso   1.000  O
  O186     1.0000 0.12260  0.05777  0.88848  Biso   1.000  O
  O187     1.0000 0.44150  0.93271  0.88570  Biso   1.000  O
  O188     1.0000 0.36800  0.90525  0.87217  Biso   1.000  O
  O189     1.0000 0.19260  0.15665  0.80100  Biso   1.000  O
  O190     1.0000 0.20120  0.12960  0.83380  Biso   1.000  O
  O191     1.0000 0.94890  0.11094  0.65168  Biso   1.000  O
  O192     1.0000 0.01370  0.08239  0.62965  Biso   1.000  O
  S85      1.0000 0.42339  0.11656  0.00585  Biso   1.000  S
  S86      1.0000 0.32249  0.13346  0.94926  Biso   1.000  S
  S87      1.0000 0.24680  0.14027  0.03889  Biso   1.000  S
  S88      1.0000 0.14692  0.11858  0.98692  Biso   1.000  S
  S89      1.0000 0.55412  0.11686  0.20636  Biso   1.000  S
  S90      1.0000 0.63425  0.13540  0.26448  Biso   1.000  S
  S91      1.0000 0.46910  0.23109  0.11863  Biso   1.000  S
  S92      1.0000 0.60425  0.27767  0.11952  Biso   1.000  S
  S93      1.0000 0.19772  0.01629  0.86925  Biso   1.000  S
  S94      1.0000 0.36027  0.97287  0.86716  Biso   1.000  S
  S95      1.0000 0.13630  0.12548  0.75682  Biso   1.000  S
  S96      1.0000 0.03301  0.10613  0.70470  Biso   1.000  S
  Mn43     1.0000 0.52892  0.08328  0.09330  Biso   1.000  Mn
  Mn44     1.0000 0.40966  0.12966  0.12038  Biso   1.000  Mn
  Mn45     1.0000 0.29831  0.17846  0.14904  Biso   1.000  Mn
  Mn46     1.0000 0.03610  0.07472  0.90701  Biso   1.000  Mn
  Mn47     1.0000 0.14743  0.11931  0.87141  Biso   1.000  Mn
  Mn48     1.0000 0.25874  0.16490  0.83763  Biso   1.000  Mn
  H1431    1.0000 0.52250  0.16860  0.96870  Biso   1.000  H
  H1432    1.0000 0.48430  0.19100  0.95510  Biso   1.000  H
  C1090    1.0000 0.54820  0.17230  0.92660  Biso   1.000  C
  H1433    1.0000 0.52750  0.18030  0.91040  Biso   1.000  H
  H1434    1.0000 0.55770  0.15580  0.92200  Biso   1.000  H
  C1091    1.0000 0.61780  0.18470  0.93690  Biso   1.000  C
  H1435    1.0000 0.61370  0.20190  0.93540  Biso   1.000  H
  H1436    1.0000 0.62900  0.18050  0.95610  Biso   1.000  H
  C1092    1.0000 0.67510  0.17480  0.91680  Biso   1.000  C
  H1437    1.0000 0.65370  0.17140  0.89870  Biso   1.000  H
  H1438    1.0000 0.69790  0.16050  0.92420  Biso   1.000  H
  C1093    1.0000 0.72980  0.19530  0.91530  Biso   1.000  C
  H1439    1.0000 0.77270  0.19240  0.92690  Biso   1.000  H
  H1440    1.0000 0.70730  0.21030  0.92070  Biso   1.000  H
  C1094    1.0000 0.74900  0.19490  0.88420  Biso   1.000  C
  H1441    1.0000 0.78970  0.20550  0.88080  Biso   1.000  H
  H1442    1.0000 0.70740  0.19990  0.87350  Biso   1.000  H
  H1443    1.0000 0.76310  0.17900  0.87890  Biso   1.000  H
  H1444    1.0000 0.04750  0.94410  0.73190  Biso   1.000  H
  H1445    1.0000 0.99470  0.95690  0.75340  Biso   1.000  H
  H1446    1.0000 0.99510  0.91420  0.75860  Biso   1.000  H
  H1447    1.0000 0.01480  0.92760  0.78630  Biso   1.000  H
  H1448    1.0000 0.07750  0.91620  0.76820  Biso   1.000  H
  C1095    1.0000 0.03900  0.94720  0.75150  Biso   1.000  C
  C1096    1.0000 0.03100  0.92420  0.76760  Biso   1.000  C
