data_image0
_cell_length_a       16.1584
_cell_length_b       23.7409
_cell_length_c       30.7911
_cell_angle_alpha    90
_cell_angle_beta     90
_cell_angle_gamma    90

_symmetry_space_group_name_H-M    "P 1"
_symmetry_int_tables_number       1

loop_
  _symmetry_equiv_pos_as_xyz
  'x, y, z'

loop_
  _atom_site_label
  _atom_site_occupancy
  _atom_site_fract_x
  _atom_site_fract_y
  _atom_site_fract_z
  _atom_site_thermal_displace_type
  _atom_site_B_iso_or_equiv
  _atom_site_type_symbol
  C1       1.0000 0.07910  0.72809  0.23235  Biso   1.000  C
  C2       1.0000 0.04610  0.77798  0.21522  Biso   1.000  C
  H1       1.0000 0.06550  0.79200  0.18890  Biso   1.000  H
  C3       1.0000 0.98380  0.80653  0.23790  Biso   1.000  C
  H2       1.0000 0.96190  0.83970  0.22660  Biso   1.000  H
  C4       1.0000 0.95500  0.78582  0.27670  Biso   1.000  C
  C5       1.0000 0.98730  0.73632  0.29435  Biso   1.000  C
  H3       1.0000 0.96750  0.72240  0.32060  Biso   1.000  H
  C6       1.0000 0.05010  0.70785  0.27164  Biso   1.000  C
  H4       1.0000 0.07250  0.67500  0.28320  Biso   1.000  H
  C7       1.0000 0.14320  0.69591  0.20688  Biso   1.000  C
  C8       1.0000 0.88480  0.81475  0.30089  Biso   1.000  C
  C9       1.0000 0.37910  0.63001  0.06922  Biso   1.000  C
  C10      1.0000 0.47130  0.68110  0.01707  Biso   1.000  C
  H5       1.0000 0.45230  0.71500  0.02860  Biso   1.000  H
  C11      1.0000 0.44310  0.63028  0.03360  Biso   1.000  C
  C12      1.0000 0.47320  0.57970  0.01711  Biso   1.000  C
  H6       1.0000 0.45660  0.54580  0.02950  Biso   1.000  H
  C13      1.0000 0.11720  0.63760  0.07234  Biso   1.000  C
  C14      1.0000 0.02960  0.68920  0.01619  Biso   1.000  C
  H7       1.0000 0.05230  0.72310  0.02550  Biso   1.000  H
  C15      1.0000 0.05620  0.63733  0.03558  Biso   1.000  C
  C16      1.0000 0.02710  0.58730  0.01743  Biso   1.000  C
  H8       1.0000 0.04450  0.55310  0.02900  Biso   1.000  H
  C17      1.0000 0.35230  0.48800  0.16615  Biso   1.000  C
  H9       1.0000 0.32510  0.49840  0.14080  Biso   1.000  H
  C18      1.0000 0.48080  0.44300  0.18727  Biso   1.000  C
  H10      1.0000 0.52470  0.42310  0.17290  Biso   1.000  H
  H11      1.0000 0.46810  0.42460  0.21420  Biso   1.000  H
  H12      1.0000 0.49790  0.48100  0.19290  Biso   1.000  H
  C19      1.0000 0.39010  0.39890  0.12563  Biso   1.000  C
  H13      1.0000 0.34370  0.41040  0.10820  Biso   1.000  H
  H14      1.0000 0.37760  0.36380  0.13970  Biso   1.000  H
  H15      1.0000 0.43790  0.39440  0.10740  Biso   1.000  H
  C20      1.0000 0.34360  0.79929  0.10306  Biso   1.000  C
  H16      1.0000 0.38750  0.77630  0.11140  Biso   1.000  H
  C21      1.0000 0.29540  0.88772  0.07839  Biso   1.000  C
  C22      1.0000 0.21590  0.86646  0.07818  Biso   1.000  C
  C23      1.0000 0.20000  0.81210  0.09121  Biso   1.000  C
  H17      1.0000 0.14600  0.79870  0.09160  Biso   1.000  H
  C24      1.0000 0.31750  0.94689  0.06699  Biso   1.000  C
  H18      1.0000 0.27800  0.96100  0.04550  Biso   1.000  H
  C25      1.0000 0.40410  0.94941  0.04780  Biso   1.000  C
  H19      1.0000 0.44350  0.93680  0.06900  Biso   1.000  H
  H20      1.0000 0.41670  0.98750  0.03960  Biso   1.000  H
  H21      1.0000 0.40690  0.92550  0.02270  Biso   1.000  H
  C26      1.0000 0.31560  0.98661  0.10810  Biso   1.000  C
  C27      1.0000 0.34830  0.04666  0.09890  Biso   1.000  C
  C28      1.0000 0.41240  0.06839  0.12532  Biso   1.000  C
  H22      1.0000 0.43440  0.04620  0.14740  Biso   1.000  H
  C29      1.0000 0.44200  0.12051  0.11900  Biso   1.000  C
  H23      1.0000 0.48390  0.13410  0.13690  Biso   1.000  H
  C30      1.0000 0.41040  0.15491  0.08573  Biso   1.000  C
  C31      1.0000 0.34840  0.13491  0.06109  Biso   1.000  C
  H24      1.0000 0.32620  0.15800  0.03970  Biso   1.000  H
  C32      1.0000 0.31630  0.08125  0.06629  Biso   1.000  C
  C33      1.0000 0.22590  0.99224  0.12481  Biso   1.000  C
  H25      1.0000 0.19080  0.00470  0.10120  Biso   1.000  H
  H26      1.0000 0.20640  0.95550  0.13410  Biso   1.000  H
  C34      1.0000 0.20940  0.10924  0.19244  Biso   1.000  C
  H27      1.0000 0.20150  0.14740  0.19790  Biso   1.000  H
  C35      1.0000 0.23680  0.02491  0.20245  Biso   1.000  C
  H28      1.0000 0.25210  0.99070  0.21470  Biso   1.000  H
  Co1      1.0000 0.25328  0.69200  0.12544  Biso   1.000  Co
  Co2      1.0000 0.25569  0.58859  0.20916  Biso   1.000  Co
  F1       1.0000 0.15334  0.89837  0.06668  Biso   1.000  F
  F2       1.0000 0.25291  0.06123  0.04147  Biso   1.000  F
  F3       1.0000 0.43839  0.20757  0.07961  Biso   1.000  F
  N1       1.0000 0.40730  0.44328  0.15951  Biso   1.000  N
  N2       1.0000 0.26430  0.77759  0.10368  Biso   1.000  N
  N3       1.0000 0.35980  0.85400  0.09048  Biso   1.000  N
  N4       1.0000 0.21820  0.03178  0.16093  Biso   1.000  N
  N5       1.0000 0.20050  0.08757  0.15375  Biso   1.000  N
  N6       1.0000 0.23100  0.07217  0.22422  Biso   1.000  N
  O1       1.0000 0.16708  0.71699  0.17170  Biso   1.000  O
  O2       1.0000 0.17266  0.65136  0.22359  Biso   1.000  O
  O3       1.0000 0.85195  0.79015  0.33236  Biso   1.000  O
  O4       1.0000 0.86140  0.86250  0.28446  Biso   1.000  O
  O5       1.0000 0.34081  0.67523  0.07747  Biso   1.000  O
  O6       1.0000 0.36966  0.58353  0.09022  Biso   1.000  O
  O7       1.0000 0.15626  0.68205  0.08072  Biso   1.000  O
  O8       1.0000 0.12378  0.59239  0.09267  Biso   1.000  O
  O9       1.0000 0.24930  0.60333  0.14224  Biso   1.000  O
  O10      1.0000 0.33150  0.51671  0.19743  Biso   1.000  O
  O11      1.0000 0.36425  0.96448  0.14199  Biso   1.000  O
  H29      1.0000 0.33090  0.95790  0.16730  Biso   1.000  H
  H30      1.0000 0.46910  0.46270  0.21380  Biso   1.000  H
  H31      1.0000 0.52570  0.46120  0.17240  Biso   1.000  H
  H32      1.0000 0.49590  0.40480  0.19380  Biso   1.000  H
  C36      1.0000 0.57910  0.22809  0.73235  Biso   1.000  C
  C37      1.0000 0.54610  0.27798  0.71522  Biso   1.000  C
  H33      1.0000 0.56550  0.29200  0.68890  Biso   1.000  H
  C38      1.0000 0.48380  0.30653  0.73790  Biso   1.000  C
  H34      1.0000 0.46190  0.33970  0.72660  Biso   1.000  H
  C39      1.0000 0.45500  0.28582  0.77670  Biso   1.000  C
  C40      1.0000 0.48730  0.23632  0.79435  Biso   1.000  C
  H35      1.0000 0.46750  0.22240  0.82060  Biso   1.000  H
  C41      1.0000 0.55010  0.20785  0.77164  Biso   1.000  C
  H36      1.0000 0.57250  0.17500  0.78320  Biso   1.000  H
  C42      1.0000 0.64320  0.19591  0.70688  Biso   1.000  C
  C43      1.0000 0.38480  0.31475  0.80089  Biso   1.000  C
  C44      1.0000 0.87910  0.13001  0.56922  Biso   1.000  C
  C45      1.0000 0.97130  0.18110  0.51707  Biso   1.000  C
  H37      1.0000 0.95230  0.21500  0.52860  Biso   1.000  H
  C46      1.0000 0.94310  0.13028  0.53360  Biso   1.000  C
  C47      1.0000 0.97320  0.07970  0.51711  Biso   1.000  C
  H38      1.0000 0.95660  0.04580  0.52950  Biso   1.000  H
  C48      1.0000 0.61720  0.13760  0.57234  Biso   1.000  C
  C49      1.0000 0.52960  0.18920  0.51619  Biso   1.000  C
  H39      1.0000 0.55230  0.22310  0.52550  Biso   1.000  H
  C50      1.0000 0.55620  0.13733  0.53558  Biso   1.000  C
  C51      1.0000 0.52710  0.08730  0.51743  Biso   1.000  C
  H40      1.0000 0.54450  0.05310  0.52900  Biso   1.000  H
  C52      1.0000 0.85230  0.98800  0.66615  Biso   1.000  C
  H41      1.0000 0.82510  0.99840  0.64080  Biso   1.000  H
  C53      1.0000 0.98080  0.94300  0.68727  Biso   1.000  C
  H42      1.0000 0.02470  0.92310  0.67290  Biso   1.000  H
  H43      1.0000 0.96810  0.92460  0.71420  Biso   1.000  H
  H44      1.0000 0.99790  0.98100  0.69290  Biso   1.000  H
  C54      1.0000 0.89010  0.89890  0.62563  Biso   1.000  C
  H45      1.0000 0.84370  0.91040  0.60820  Biso   1.000  H
  H46      1.0000 0.87760  0.86380  0.63970  Biso   1.000  H
  H47      1.0000 0.93790  0.89440  0.60740  Biso   1.000  H
  C55      1.0000 0.84360  0.29929  0.60306  Biso   1.000  C
  H48      1.0000 0.88750  0.27630  0.61140  Biso   1.000  H
  C56      1.0000 0.79540  0.38772  0.57839  Biso   1.000  C
  C57      1.0000 0.71590  0.36646  0.57818  Biso   1.000  C
  C58      1.0000 0.70000  0.31210  0.59121  Biso   1.000  C
  H49      1.0000 0.64600  0.29870  0.59160  Biso   1.000  H
  C59      1.0000 0.81750  0.44689  0.56699  Biso   1.000  C
  H50      1.0000 0.77800  0.46100  0.54550  Biso   1.000  H
  C60      1.0000 0.90410  0.44941  0.54780  Biso   1.000  C
  H51      1.0000 0.94350  0.43680  0.56900  Biso   1.000  H
  H52      1.0000 0.91670  0.48750  0.53960  Biso   1.000  H
  H53      1.0000 0.90690  0.42550  0.52270  Biso   1.000  H
  C61      1.0000 0.81560  0.48661  0.60810  Biso   1.000  C
  C62      1.0000 0.84830  0.54666  0.59890  Biso   1.000  C
  C63      1.0000 0.91240  0.56839  0.62532  Biso   1.000  C
  H54      1.0000 0.93440  0.54620  0.64740  Biso   1.000  H
  C64      1.0000 0.94200  0.62051  0.61900  Biso   1.000  C
  H55      1.0000 0.98390  0.63410  0.63690  Biso   1.000  H
  C65      1.0000 0.91040  0.65491  0.58573  Biso   1.000  C
  C66      1.0000 0.84840  0.63491  0.56109  Biso   1.000  C
  H56      1.0000 0.82620  0.65800  0.53970  Biso   1.000  H
  C67      1.0000 0.81630  0.58125  0.56629  Biso   1.000  C
  C68      1.0000 0.72590  0.49224  0.62481  Biso   1.000  C
  H57      1.0000 0.69080  0.50470  0.60120  Biso   1.000  H
  H58      1.0000 0.70640  0.45550  0.63410  Biso   1.000  H
  C69      1.0000 0.70940  0.60924  0.69244  Biso   1.000  C
  H59      1.0000 0.70150  0.64740  0.69790  Biso   1.000  H
  C70      1.0000 0.73680  0.52491  0.70245  Biso   1.000  C
  H60      1.0000 0.75210  0.49070  0.71470  Biso   1.000  H
  Co3      1.0000 0.75328  0.19200  0.62544  Biso   1.000  Co
  Co4      1.0000 0.75569  0.08859  0.70916  Biso   1.000  Co
  F4       1.0000 0.65334  0.39837  0.56668  Biso   1.000  F
  F5       1.0000 0.75291  0.56123  0.54147  Biso   1.000  F
  F6       1.0000 0.93839  0.70757  0.57961  Biso   1.000  F
  N7       1.0000 0.90730  0.94328  0.65951  Biso   1.000  N
  N8       1.0000 0.76430  0.27759  0.60368  Biso   1.000  N
  N9       1.0000 0.85980  0.35400  0.59048  Biso   1.000  N
  N10      1.0000 0.71820  0.53178  0.66093  Biso   1.000  N
  N11      1.0000 0.70050  0.58757  0.65375  Biso   1.000  N
  N12      1.0000 0.73100  0.57217  0.72422  Biso   1.000  N
  O12      1.0000 0.66708  0.21699  0.67170  Biso   1.000  O
  O13      1.0000 0.67266  0.15136  0.72359  Biso   1.000  O
  O14      1.0000 0.35195  0.29015  0.83236  Biso   1.000  O
  O15      1.0000 0.36140  0.36250  0.78446  Biso   1.000  O
  O16      1.0000 0.84081  0.17523  0.57747  Biso   1.000  O
  O17      1.0000 0.86966  0.08353  0.59022  Biso   1.000  O
  O18      1.0000 0.65626  0.18205  0.58072  Biso   1.000  O
  O19      1.0000 0.62378  0.09239  0.59267  Biso   1.000  O
  O20      1.0000 0.74930  0.10333  0.64224  Biso   1.000  O
  O21      1.0000 0.83150  0.01671  0.69743  Biso   1.000  O
  O22      1.0000 0.86425  0.46448  0.64199  Biso   1.000  O
  H61      1.0000 0.83090  0.45790  0.66730  Biso   1.000  H
  H62      1.0000 0.96910  0.96270  0.71380  Biso   1.000  H
  H63      1.0000 0.02570  0.96120  0.67240  Biso   1.000  H
  H64      1.0000 0.99590  0.90480  0.69380  Biso   1.000  H
  C71      1.0000 0.92090  0.27191  0.23235  Biso   1.000  C
  C72      1.0000 0.95390  0.22202  0.21522  Biso   1.000  C
  H65      1.0000 0.93450  0.20800  0.18890  Biso   1.000  H
  C73      1.0000 0.01620  0.19347  0.23790  Biso   1.000  C
  H66      1.0000 0.03810  0.16030  0.22660  Biso   1.000  H
  C74      1.0000 0.04500  0.21418  0.27670  Biso   1.000  C
  C75      1.0000 0.01270  0.26368  0.29435  Biso   1.000  C
  H67      1.0000 0.03250  0.27760  0.32060  Biso   1.000  H
  C76      1.0000 0.94990  0.29215  0.27164  Biso   1.000  C
  H68      1.0000 0.92750  0.32500  0.28320  Biso   1.000  H
  C77      1.0000 0.85680  0.30409  0.20688  Biso   1.000  C
  C78      1.0000 0.11520  0.18525  0.30089  Biso   1.000  C
  C79      1.0000 0.62090  0.36999  0.06922  Biso   1.000  C
  C80      1.0000 0.52870  0.31890  0.01707  Biso   1.000  C
  H69      1.0000 0.54770  0.28500  0.02860  Biso   1.000  H
  C81      1.0000 0.55690  0.36972  0.03360  Biso   1.000  C
  C82      1.0000 0.52680  0.42030  0.01711  Biso   1.000  C
  H70      1.0000 0.54340  0.45420  0.02950  Biso   1.000  H
  C83      1.0000 0.88280  0.36240  0.07234  Biso   1.000  C
  C84      1.0000 0.97040  0.31080  0.01619  Biso   1.000  C
  H71      1.0000 0.94770  0.27690  0.02550  Biso   1.000  H
  C85      1.0000 0.94380  0.36267  0.03558  Biso   1.000  C
  C86      1.0000 0.97290  0.41270  0.01743  Biso   1.000  C
  H72      1.0000 0.95550  0.44690  0.02900  Biso   1.000  H
  C87      1.0000 0.64770  0.51200  0.16615  Biso   1.000  C
  H73      1.0000 0.67490  0.50160  0.14080  Biso   1.000  H
  C88      1.0000 0.51920  0.55700  0.18727  Biso   1.000  C
  H74      1.0000 0.47530  0.57690  0.17290  Biso   1.000  H
  H75      1.0000 0.53190  0.57540  0.21420  Biso   1.000  H
  H76      1.0000 0.50210  0.51900  0.19290  Biso   1.000  H
  C89      1.0000 0.60990  0.60110  0.12563  Biso   1.000  C
  H77      1.0000 0.65630  0.58960  0.10820  Biso   1.000  H
  H78      1.0000 0.62240  0.63620  0.13970  Biso   1.000  H
  H79      1.0000 0.56210  0.60560  0.10740  Biso   1.000  H
  C90      1.0000 0.65640  0.20071  0.10306  Biso   1.000  C
  H80      1.0000 0.61250  0.22370  0.11140  Biso   1.000  H
  C91      1.0000 0.70460  0.11228  0.07839  Biso   1.000  C
  C92      1.0000 0.78410  0.13354  0.07818  Biso   1.000  C
  C93      1.0000 0.80000  0.18790  0.09121  Biso   1.000  C
  H81      1.0000 0.85400  0.20130  0.09160  Biso   1.000  H
  C94      1.0000 0.68250  0.05311  0.06699  Biso   1.000  C
  H82      1.0000 0.72200  0.03900  0.04550  Biso   1.000  H
  C95      1.0000 0.59590  0.05059  0.04780  Biso   1.000  C
  H83      1.0000 0.55650  0.06320  0.06900  Biso   1.000  H
  H84      1.0000 0.58330  0.01250  0.03960  Biso   1.000  H
  H85      1.0000 0.59310  0.07450  0.02270  Biso   1.000  H
  C96      1.0000 0.68440  0.01339  0.10810  Biso   1.000  C
  C97      1.0000 0.65170  0.95334  0.09890  Biso   1.000  C
  C98      1.0000 0.58760  0.93161  0.12532  Biso   1.000  C
  H86      1.0000 0.56560  0.95380  0.14740  Biso   1.000  H
  C99      1.0000 0.55800  0.87949  0.11900  Biso   1.000  C
  H87      1.0000 0.51610  0.86590  0.13690  Biso   1.000  H
  C100     1.0000 0.58960  0.84509  0.08573  Biso   1.000  C
  C101     1.0000 0.65160  0.86509  0.06109  Biso   1.000  C
  H88      1.0000 0.67380  0.84200  0.03970  Biso   1.000  H
  C102     1.0000 0.68370  0.91875  0.06629  Biso   1.000  C
  C103     1.0000 0.77410  0.00776  0.12481  Biso   1.000  C
  H89      1.0000 0.80920  0.99530  0.10120  Biso   1.000  H
  H90      1.0000 0.79360  0.04450  0.13410  Biso   1.000  H
  C104     1.0000 0.79060  0.89076  0.19244  Biso   1.000  C
  H91      1.0000 0.79850  0.85260  0.19790  Biso   1.000  H
  C105     1.0000 0.76320  0.97509  0.20245  Biso   1.000  C
  H92      1.0000 0.74790  0.00930  0.21470  Biso   1.000  H
  Co5      1.0000 0.74672  0.30800  0.12544  Biso   1.000  Co
  Co6      1.0000 0.74431  0.41141  0.20916  Biso   1.000  Co
  F7       1.0000 0.84666  0.10163  0.06668  Biso   1.000  F
  F8       1.0000 0.74709  0.93877  0.04147  Biso   1.000  F
  F9       1.0000 0.56161  0.79243  0.07961  Biso   1.000  F
  N13      1.0000 0.59270  0.55672  0.15951  Biso   1.000  N
  N14      1.0000 0.73570  0.22241  0.10368  Biso   1.000  N
  N15      1.0000 0.64020  0.14600  0.09048  Biso   1.000  N
  N16      1.0000 0.78180  0.96822  0.16093  Biso   1.000  N
  N17      1.0000 0.79950  0.91243  0.15375  Biso   1.000  N
  N18      1.0000 0.76900  0.92783  0.22422  Biso   1.000  N
  O23      1.0000 0.83292  0.28301  0.17170  Biso   1.000  O
  O24      1.0000 0.82734  0.34864  0.22359  Biso   1.000  O
  O25      1.0000 0.14805  0.20985  0.33236  Biso   1.000  O
  O26      1.0000 0.13860  0.13750  0.28446  Biso   1.000  O
  O27      1.0000 0.65919  0.32477  0.07747  Biso   1.000  O
  O28      1.0000 0.63034  0.41647  0.09022  Biso   1.000  O
  O29      1.0000 0.84374  0.31795  0.08072  Biso   1.000  O
  O30      1.0000 0.87622  0.40761  0.09267  Biso   1.000  O
  O31      1.0000 0.75070  0.39667  0.14224  Biso   1.000  O
  O32      1.0000 0.66850  0.48329  0.19743  Biso   1.000  O
  O33      1.0000 0.63575  0.03552  0.14199  Biso   1.000  O
  H93      1.0000 0.66910  0.04210  0.16730  Biso   1.000  H
  H94      1.0000 0.53090  0.53730  0.21380  Biso   1.000  H
  H95      1.0000 0.47430  0.53880  0.17240  Biso   1.000  H
  H96      1.0000 0.50410  0.59520  0.19380  Biso   1.000  H
  C106     1.0000 0.42090  0.77191  0.73235  Biso   1.000  C
  C107     1.0000 0.45390  0.72202  0.71522  Biso   1.000  C
  H97      1.0000 0.43450  0.70800  0.68890  Biso   1.000  H
  C108     1.0000 0.51620  0.69347  0.73790  Biso   1.000  C
  H98      1.0000 0.53810  0.66030  0.72660  Biso   1.000  H
  C109     1.0000 0.54500  0.71418  0.77670  Biso   1.000  C
  C110     1.0000 0.51270  0.76368  0.79435  Biso   1.000  C
  H99      1.0000 0.53250  0.77760  0.82060  Biso   1.000  H
  C111     1.0000 0.44990  0.79215  0.77164  Biso   1.000  C
  H100     1.0000 0.42750  0.82500  0.78320  Biso   1.000  H
  C112     1.0000 0.35680  0.80409  0.70688  Biso   1.000  C
  C113     1.0000 0.61520  0.68525  0.80089  Biso   1.000  C
  C114     1.0000 0.12090  0.86999  0.56922  Biso   1.000  C
  C115     1.0000 0.02870  0.81890  0.51707  Biso   1.000  C
  H101     1.0000 0.04770  0.78500  0.52860  Biso   1.000  H
  C116     1.0000 0.05690  0.86972  0.53360  Biso   1.000  C
  C117     1.0000 0.02680  0.92030  0.51711  Biso   1.000  C
  H102     1.0000 0.04340  0.95420  0.52950  Biso   1.000  H
  C118     1.0000 0.38280  0.86240  0.57234  Biso   1.000  C
  C119     1.0000 0.47040  0.81080  0.51619  Biso   1.000  C
  H103     1.0000 0.44770  0.77690  0.52550  Biso   1.000  H
  C120     1.0000 0.44380  0.86267  0.53558  Biso   1.000  C
  C121     1.0000 0.47290  0.91270  0.51743  Biso   1.000  C
  H104     1.0000 0.45550  0.94690  0.52900  Biso   1.000  H
  C122     1.0000 0.14770  0.01200  0.66615  Biso   1.000  C
  H105     1.0000 0.17490  0.00160  0.64080  Biso   1.000  H
  C123     1.0000 0.01920  0.05700  0.68727  Biso   1.000  C
  H106     1.0000 0.97530  0.07690  0.67290  Biso   1.000  H
  H107     1.0000 0.03190  0.07540  0.71420  Biso   1.000  H
  H108     1.0000 0.00210  0.01900  0.69290  Biso   1.000  H
  C124     1.0000 0.10990  0.10110  0.62563  Biso   1.000  C
  H109     1.0000 0.15630  0.08960  0.60820  Biso   1.000  H
  H110     1.0000 0.12240  0.13620  0.63970  Biso   1.000  H
  H111     1.0000 0.06210  0.10560  0.60740  Biso   1.000  H
  C125     1.0000 0.15640  0.70071  0.60306  Biso   1.000  C
  H112     1.0000 0.11250  0.72370  0.61140  Biso   1.000  H
  C126     1.0000 0.20460  0.61228  0.57839  Biso   1.000  C
  C127     1.0000 0.28410  0.63354  0.57818  Biso   1.000  C
  C128     1.0000 0.30000  0.68790  0.59121  Biso   1.000  C
  H113     1.0000 0.35400  0.70130  0.59160  Biso   1.000  H
  C129     1.0000 0.18250  0.55311  0.56699  Biso   1.000  C
  H114     1.0000 0.22200  0.53900  0.54550  Biso   1.000  H
  C130     1.0000 0.09590  0.55059  0.54780  Biso   1.000  C
  H115     1.0000 0.05650  0.56320  0.56900  Biso   1.000  H
  H116     1.0000 0.08330  0.51250  0.53960  Biso   1.000  H
  H117     1.0000 0.09310  0.57450  0.52270  Biso   1.000  H
  C131     1.0000 0.18440  0.51339  0.60810  Biso   1.000  C
  C132     1.0000 0.15170  0.45334  0.59890  Biso   1.000  C
  C133     1.0000 0.08760  0.43161  0.62532  Biso   1.000  C
  H118     1.0000 0.06560  0.45380  0.64740  Biso   1.000  H
  C134     1.0000 0.05800  0.37949  0.61900  Biso   1.000  C
  H119     1.0000 0.01610  0.36590  0.63690  Biso   1.000  H
  C135     1.0000 0.08960  0.34509  0.58573  Biso   1.000  C
  C136     1.0000 0.15160  0.36509  0.56109  Biso   1.000  C
  H120     1.0000 0.17380  0.34200  0.53970  Biso   1.000  H
  C137     1.0000 0.18370  0.41875  0.56629  Biso   1.000  C
  C138     1.0000 0.27410  0.50776  0.62481  Biso   1.000  C
  H121     1.0000 0.30920  0.49530  0.60120  Biso   1.000  H
  H122     1.0000 0.29360  0.54450  0.63410  Biso   1.000  H
  C139     1.0000 0.29060  0.39076  0.69244  Biso   1.000  C
  H123     1.0000 0.29850  0.35260  0.69790  Biso   1.000  H
  C140     1.0000 0.26320  0.47509  0.70245  Biso   1.000  C
  H124     1.0000 0.24790  0.50930  0.71470  Biso   1.000  H
  Co7      1.0000 0.24672  0.80800  0.62544  Biso   1.000  Co
  Co8      1.0000 0.24431  0.91141  0.70916  Biso   1.000  Co
  F10      1.0000 0.34666  0.60163  0.56668  Biso   1.000  F
  F11      1.0000 0.24709  0.43877  0.54147  Biso   1.000  F
  F12      1.0000 0.06161  0.29243  0.57961  Biso   1.000  F
  N19      1.0000 0.09270  0.05672  0.65951  Biso   1.000  N
  N20      1.0000 0.23570  0.72241  0.60368  Biso   1.000  N
  N21      1.0000 0.14020  0.64600  0.59048  Biso   1.000  N
  N22      1.0000 0.28180  0.46822  0.66093  Biso   1.000  N
  N23      1.0000 0.29950  0.41243  0.65375  Biso   1.000  N
  N24      1.0000 0.26900  0.42783  0.72422  Biso   1.000  N
  O34      1.0000 0.33292  0.78301  0.67170  Biso   1.000  O
  O35      1.0000 0.32734  0.84864  0.72359  Biso   1.000  O
  O36      1.0000 0.64805  0.70985  0.83236  Biso   1.000  O
  O37      1.0000 0.63860  0.63750  0.78446  Biso   1.000  O
  O38      1.0000 0.15919  0.82477  0.57747  Biso   1.000  O
  O39      1.0000 0.13034  0.91647  0.59022  Biso   1.000  O
  O40      1.0000 0.34374  0.81795  0.58072  Biso   1.000  O
  O41      1.0000 0.37622  0.90761  0.59267  Biso   1.000  O
  O42      1.0000 0.25070  0.89667  0.64224  Biso   1.000  O
  O43      1.0000 0.16850  0.98329  0.69743  Biso   1.000  O
  O44      1.0000 0.13575  0.53552  0.64199  Biso   1.000  O
  H125     1.0000 0.16910  0.54210  0.66730  Biso   1.000  H
  H126     1.0000 0.03090  0.03730  0.71380  Biso   1.000  H
  H127     1.0000 0.97430  0.03880  0.67240  Biso   1.000  H
  H128     1.0000 0.00410  0.09520  0.69380  Biso   1.000  H
  C141     1.0000 0.92090  0.72809  0.76765  Biso   1.000  C
  C142     1.0000 0.95390  0.77798  0.78478  Biso   1.000  C
  H129     1.0000 0.93450  0.79200  0.81110  Biso   1.000  H
  C143     1.0000 0.01620  0.80653  0.76210  Biso   1.000  C
  H130     1.0000 0.03810  0.83970  0.77340  Biso   1.000  H
  C144     1.0000 0.04500  0.78582  0.72330  Biso   1.000  C
  C145     1.0000 0.01270  0.73632  0.70565  Biso   1.000  C
  H131     1.0000 0.03250  0.72240  0.67940  Biso   1.000  H
  C146     1.0000 0.94990  0.70785  0.72836  Biso   1.000  C
  H132     1.0000 0.92750  0.67500  0.71680  Biso   1.000  H
  C147     1.0000 0.85680  0.69591  0.79312  Biso   1.000  C
  C148     1.0000 0.11520  0.81475  0.69911  Biso   1.000  C
  C149     1.0000 0.62090  0.63001  0.93078  Biso   1.000  C
  C150     1.0000 0.52870  0.68110  0.98293  Biso   1.000  C
  H133     1.0000 0.54770  0.71500  0.97140  Biso   1.000  H
  C151     1.0000 0.55690  0.63028  0.96640  Biso   1.000  C
  C152     1.0000 0.52680  0.57970  0.98289  Biso   1.000  C
  H134     1.0000 0.54340  0.54580  0.97050  Biso   1.000  H
  C153     1.0000 0.88280  0.63760  0.92766  Biso   1.000  C
  C154     1.0000 0.97040  0.68920  0.98381  Biso   1.000  C
  H135     1.0000 0.94770  0.72310  0.97450  Biso   1.000  H
  C155     1.0000 0.94380  0.63733  0.96442  Biso   1.000  C
  C156     1.0000 0.97290  0.58730  0.98257  Biso   1.000  C
  H136     1.0000 0.95550  0.55310  0.97100  Biso   1.000  H
  C157     1.0000 0.64770  0.48800  0.83385  Biso   1.000  C
  H137     1.0000 0.67490  0.49840  0.85920  Biso   1.000  H
  C158     1.0000 0.51920  0.44300  0.81273  Biso   1.000  C
  H138     1.0000 0.47530  0.42310  0.82710  Biso   1.000  H
  H139     1.0000 0.53190  0.42460  0.78580  Biso   1.000  H
  H140     1.0000 0.50210  0.48100  0.80710  Biso   1.000  H
  C159     1.0000 0.60990  0.39890  0.87437  Biso   1.000  C
  H141     1.0000 0.65630  0.41040  0.89180  Biso   1.000  H
  H142     1.0000 0.62240  0.36380  0.86030  Biso   1.000  H
  H143     1.0000 0.56210  0.39440  0.89260  Biso   1.000  H
  C160     1.0000 0.65640  0.79929  0.89694  Biso   1.000  C
  H144     1.0000 0.61250  0.77630  0.88860  Biso   1.000  H
  C161     1.0000 0.70460  0.88772  0.92161  Biso   1.000  C
  C162     1.0000 0.78410  0.86646  0.92182  Biso   1.000  C
  C163     1.0000 0.80000  0.81210  0.90879  Biso   1.000  C
  H145     1.0000 0.85400  0.79870  0.90840  Biso   1.000  H
  C164     1.0000 0.68250  0.94689  0.93301  Biso   1.000  C
  H146     1.0000 0.72200  0.96100  0.95450  Biso   1.000  H
  C165     1.0000 0.59590  0.94941  0.95220  Biso   1.000  C
  H147     1.0000 0.55650  0.93680  0.93100  Biso   1.000  H
  H148     1.0000 0.58330  0.98750  0.96040  Biso   1.000  H
  H149     1.0000 0.59310  0.92550  0.97730  Biso   1.000  H
  C166     1.0000 0.68440  0.98661  0.89190  Biso   1.000  C
  C167     1.0000 0.65170  0.04666  0.90110  Biso   1.000  C
  C168     1.0000 0.58760  0.06839  0.87468  Biso   1.000  C
  H150     1.0000 0.56560  0.04620  0.85260  Biso   1.000  H
  C169     1.0000 0.55800  0.12051  0.88100  Biso   1.000  C
  H151     1.0000 0.51610  0.13410  0.86310  Biso   1.000  H
  C170     1.0000 0.58960  0.15491  0.91427  Biso   1.000  C
  C171     1.0000 0.65160  0.13491  0.93891  Biso   1.000  C
  H152     1.0000 0.67380  0.15800  0.96030  Biso   1.000  H
  C172     1.0000 0.68370  0.08125  0.93371  Biso   1.000  C
  C173     1.0000 0.77410  0.99224  0.87519  Biso   1.000  C
  H153     1.0000 0.80920  0.00470  0.89880  Biso   1.000  H
  H154     1.0000 0.79360  0.95550  0.86590  Biso   1.000  H
  C174     1.0000 0.79060  0.10924  0.80756  Biso   1.000  C
  H155     1.0000 0.79850  0.14740  0.80210  Biso   1.000  H
  C175     1.0000 0.76320  0.02491  0.79755  Biso   1.000  C
  H156     1.0000 0.74790  0.99070  0.78530  Biso   1.000  H
  Co9      1.0000 0.74672  0.69200  0.87456  Biso   1.000  Co
  Co10     1.0000 0.74431  0.58859  0.79084  Biso   1.000  Co
  F13      1.0000 0.84666  0.89837  0.93332  Biso   1.000  F
  F14      1.0000 0.74709  0.06123  0.95853  Biso   1.000  F
  F15      1.0000 0.56161  0.20757  0.92039  Biso   1.000  F
  N25      1.0000 0.59270  0.44328  0.84049  Biso   1.000  N
  N26      1.0000 0.73570  0.77759  0.89632  Biso   1.000  N
  N27      1.0000 0.64020  0.85400  0.90952  Biso   1.000  N
  N28      1.0000 0.78180  0.03178  0.83907  Biso   1.000  N
  N29      1.0000 0.79950  0.08757  0.84625  Biso   1.000  N
  N30      1.0000 0.76900  0.07217  0.77578  Biso   1.000  N
  O45      1.0000 0.83292  0.71699  0.82830  Biso   1.000  O
  O46      1.0000 0.82734  0.65136  0.77641  Biso   1.000  O
  O47      1.0000 0.14805  0.79015  0.66764  Biso   1.000  O
  O48      1.0000 0.13860  0.86250  0.71554  Biso   1.000  O
  O49      1.0000 0.65919  0.67523  0.92253  Biso   1.000  O
  O50      1.0000 0.63034  0.58353  0.90978  Biso   1.000  O
  O51      1.0000 0.84374  0.68205  0.91928  Biso   1.000  O
  O52      1.0000 0.87622  0.59239  0.90733  Biso   1.000  O
  O53      1.0000 0.75070  0.60333  0.85776  Biso   1.000  O
  O54      1.0000 0.66850  0.51671  0.80257  Biso   1.000  O
  O55      1.0000 0.63575  0.96448  0.85801  Biso   1.000  O
  H157     1.0000 0.66910  0.95790  0.83270  Biso   1.000  H
  H158     1.0000 0.53090  0.46270  0.78620  Biso   1.000  H
  H159     1.0000 0.47430  0.46120  0.82760  Biso   1.000  H
  H160     1.0000 0.50410  0.40480  0.80620  Biso   1.000  H
  C176     1.0000 0.42090  0.22809  0.26765  Biso   1.000  C
  C177     1.0000 0.45390  0.27798  0.28478  Biso   1.000  C
  H161     1.0000 0.43450  0.29200  0.31110  Biso   1.000  H
  C178     1.0000 0.51620  0.30653  0.26210  Biso   1.000  C
  H162     1.0000 0.53810  0.33970  0.27340  Biso   1.000  H
  C179     1.0000 0.54500  0.28582  0.22330  Biso   1.000  C
  C180     1.0000 0.51270  0.23632  0.20565  Biso   1.000  C
  H163     1.0000 0.53250  0.22240  0.17940  Biso   1.000  H
  C181     1.0000 0.44990  0.20785  0.22836  Biso   1.000  C
  H164     1.0000 0.42750  0.17500  0.21680  Biso   1.000  H
  C182     1.0000 0.35680  0.19591  0.29312  Biso   1.000  C
  C183     1.0000 0.61520  0.31475  0.19911  Biso   1.000  C
  C184     1.0000 0.12090  0.13001  0.43078  Biso   1.000  C
  C185     1.0000 0.02870  0.18110  0.48293  Biso   1.000  C
  H165     1.0000 0.04770  0.21500  0.47140  Biso   1.000  H
  C186     1.0000 0.05690  0.13028  0.46640  Biso   1.000  C
  C187     1.0000 0.02680  0.07970  0.48289  Biso   1.000  C
  H166     1.0000 0.04340  0.04580  0.47050  Biso   1.000  H
  C188     1.0000 0.38280  0.13760  0.42766  Biso   1.000  C
  C189     1.0000 0.47040  0.18920  0.48381  Biso   1.000  C
  H167     1.0000 0.44770  0.22310  0.47450  Biso   1.000  H
  C190     1.0000 0.44380  0.13733  0.46442  Biso   1.000  C
  C191     1.0000 0.47290  0.08730  0.48257  Biso   1.000  C
  H168     1.0000 0.45550  0.05310  0.47100  Biso   1.000  H
  C192     1.0000 0.14770  0.98800  0.33385  Biso   1.000  C
  H169     1.0000 0.17490  0.99840  0.35920  Biso   1.000  H
  C193     1.0000 0.01920  0.94300  0.31273  Biso   1.000  C
  H170     1.0000 0.97530  0.92310  0.32710  Biso   1.000  H
  H171     1.0000 0.03190  0.92460  0.28580  Biso   1.000  H
  H172     1.0000 0.00210  0.98100  0.30710  Biso   1.000  H
  C194     1.0000 0.10990  0.89890  0.37437  Biso   1.000  C
  H173     1.0000 0.15630  0.91040  0.39180  Biso   1.000  H
  H174     1.0000 0.12240  0.86380  0.36030  Biso   1.000  H
  H175     1.0000 0.06210  0.89440  0.39260  Biso   1.000  H
  C195     1.0000 0.15640  0.29929  0.39694  Biso   1.000  C
  H176     1.0000 0.11250  0.27630  0.38860  Biso   1.000  H
  C196     1.0000 0.20460  0.38772  0.42161  Biso   1.000  C
  C197     1.0000 0.28410  0.36646  0.42182  Biso   1.000  C
  C198     1.0000 0.30000  0.31210  0.40879  Biso   1.000  C
  H177     1.0000 0.35400  0.29870  0.40840  Biso   1.000  H
  C199     1.0000 0.18250  0.44689  0.43301  Biso   1.000  C
  H178     1.0000 0.22200  0.46100  0.45450  Biso   1.000  H
  C200     1.0000 0.09590  0.44941  0.45220  Biso   1.000  C
  H179     1.0000 0.05650  0.43680  0.43100  Biso   1.000  H
  H180     1.0000 0.08330  0.48750  0.46040  Biso   1.000  H
  H181     1.0000 0.09310  0.42550  0.47730  Biso   1.000  H
  C201     1.0000 0.18440  0.48661  0.39190  Biso   1.000  C
  C202     1.0000 0.15170  0.54666  0.40110  Biso   1.000  C
  C203     1.0000 0.08760  0.56839  0.37468  Biso   1.000  C
  H182     1.0000 0.06560  0.54620  0.35260  Biso   1.000  H
  C204     1.0000 0.05800  0.62051  0.38100  Biso   1.000  C
  H183     1.0000 0.01610  0.63410  0.36310  Biso   1.000  H
  C205     1.0000 0.08960  0.65491  0.41427  Biso   1.000  C
  C206     1.0000 0.15160  0.63491  0.43891  Biso   1.000  C
  H184     1.0000 0.17380  0.65800  0.46030  Biso   1.000  H
  C207     1.0000 0.18370  0.58125  0.43371  Biso   1.000  C
  C208     1.0000 0.27410  0.49224  0.37519  Biso   1.000  C
  H185     1.0000 0.30920  0.50470  0.39880  Biso   1.000  H
  H186     1.0000 0.29360  0.45550  0.36590  Biso   1.000  H
  C209     1.0000 0.29060  0.60924  0.30756  Biso   1.000  C
  H187     1.0000 0.29850  0.64740  0.30210  Biso   1.000  H
  C210     1.0000 0.26320  0.52491  0.29755  Biso   1.000  C
  H188     1.0000 0.24790  0.49070  0.28530  Biso   1.000  H
  Co11     1.0000 0.24672  0.19200  0.37456  Biso   1.000  Co
  Co12     1.0000 0.24431  0.08859  0.29084  Biso   1.000  Co
  F16      1.0000 0.34666  0.39837  0.43332  Biso   1.000  F
  F17      1.0000 0.24709  0.56123  0.45853  Biso   1.000  F
  F18      1.0000 0.06161  0.70757  0.42039  Biso   1.000  F
  N31      1.0000 0.09270  0.94328  0.34049  Biso   1.000  N
  N32      1.0000 0.23570  0.27759  0.39632  Biso   1.000  N
  N33      1.0000 0.14020  0.35400  0.40952  Biso   1.000  N
  N34      1.0000 0.28180  0.53178  0.33907  Biso   1.000  N
  N35      1.0000 0.29950  0.58757  0.34625  Biso   1.000  N
  N36      1.0000 0.26900  0.57217  0.27578  Biso   1.000  N
  O56      1.0000 0.33292  0.21699  0.32830  Biso   1.000  O
  O57      1.0000 0.32734  0.15136  0.27641  Biso   1.000  O
  O58      1.0000 0.64805  0.29015  0.16764  Biso   1.000  O
  O59      1.0000 0.63860  0.36250  0.21554  Biso   1.000  O
  O60      1.0000 0.15919  0.17523  0.42253  Biso   1.000  O
  O61      1.0000 0.13034  0.08353  0.40978  Biso   1.000  O
  O62      1.0000 0.34374  0.18205  0.41928  Biso   1.000  O
  O63      1.0000 0.37622  0.09239  0.40733  Biso   1.000  O
  O64      1.0000 0.25070  0.10333  0.35776  Biso   1.000  O
  O65      1.0000 0.16850  0.01671  0.30257  Biso   1.000  O
  O66      1.0000 0.13575  0.46448  0.35801  Biso   1.000  O
  H189     1.0000 0.16910  0.45790  0.33270  Biso   1.000  H
  H190     1.0000 0.03090  0.96270  0.28620  Biso   1.000  H
  H191     1.0000 0.97430  0.96120  0.32760  Biso   1.000  H
  H192     1.0000 0.00410  0.90480  0.30620  Biso   1.000  H
  C211     1.0000 0.07910  0.27191  0.76765  Biso   1.000  C
  C212     1.0000 0.04610  0.22202  0.78478  Biso   1.000  C
  H193     1.0000 0.06550  0.20800  0.81110  Biso   1.000  H
  C213     1.0000 0.98380  0.19347  0.76210  Biso   1.000  C
  H194     1.0000 0.96190  0.16030  0.77340  Biso   1.000  H
  C214     1.0000 0.95500  0.21418  0.72330  Biso   1.000  C
  C215     1.0000 0.98730  0.26368  0.70565  Biso   1.000  C
  H195     1.0000 0.96750  0.27760  0.67940  Biso   1.000  H
  C216     1.0000 0.05010  0.29215  0.72836  Biso   1.000  C
  H196     1.0000 0.07250  0.32500  0.71680  Biso   1.000  H
  C217     1.0000 0.14320  0.30409  0.79312  Biso   1.000  C
  C218     1.0000 0.88480  0.18525  0.69911  Biso   1.000  C
  C219     1.0000 0.37910  0.36999  0.93078  Biso   1.000  C
  C220     1.0000 0.47130  0.31890  0.98293  Biso   1.000  C
  H197     1.0000 0.45230  0.28500  0.97140  Biso   1.000  H
  C221     1.0000 0.44310  0.36972  0.96640  Biso   1.000  C
  C222     1.0000 0.47320  0.42030  0.98289  Biso   1.000  C
  H198     1.0000 0.45660  0.45420  0.97050  Biso   1.000  H
  C223     1.0000 0.11720  0.36240  0.92766  Biso   1.000  C
  C224     1.0000 0.02960  0.31080  0.98381  Biso   1.000  C
  H199     1.0000 0.05230  0.27690  0.97450  Biso   1.000  H
  C225     1.0000 0.05620  0.36267  0.96442  Biso   1.000  C
  C226     1.0000 0.02710  0.41270  0.98257  Biso   1.000  C
  H200     1.0000 0.04450  0.44690  0.97100  Biso   1.000  H
  C227     1.0000 0.35230  0.51200  0.83385  Biso   1.000  C
  H201     1.0000 0.32510  0.50160  0.85920  Biso   1.000  H
  C228     1.0000 0.48080  0.55700  0.81273  Biso   1.000  C
  H202     1.0000 0.52470  0.57690  0.82710  Biso   1.000  H
  H203     1.0000 0.46810  0.57540  0.78580  Biso   1.000  H
  H204     1.0000 0.49790  0.51900  0.80710  Biso   1.000  H
  C229     1.0000 0.39010  0.60110  0.87437  Biso   1.000  C
  H205     1.0000 0.34370  0.58960  0.89180  Biso   1.000  H
  H206     1.0000 0.37760  0.63620  0.86030  Biso   1.000  H
  H207     1.0000 0.43790  0.60560  0.89260  Biso   1.000  H
  C230     1.0000 0.34360  0.20071  0.89694  Biso   1.000  C
  H208     1.0000 0.38750  0.22370  0.88860  Biso   1.000  H
  C231     1.0000 0.29540  0.11228  0.92161  Biso   1.000  C
  C232     1.0000 0.21590  0.13354  0.92182  Biso   1.000  C
  C233     1.0000 0.20000  0.18790  0.90879  Biso   1.000  C
  H209     1.0000 0.14600  0.20130  0.90840  Biso   1.000  H
  C234     1.0000 0.31750  0.05311  0.93301  Biso   1.000  C
  H210     1.0000 0.27800  0.03900  0.95450  Biso   1.000  H
  C235     1.0000 0.40410  0.05059  0.95220  Biso   1.000  C
  H211     1.0000 0.44350  0.06320  0.93100  Biso   1.000  H
  H212     1.0000 0.41670  0.01250  0.96040  Biso   1.000  H
  H213     1.0000 0.40690  0.07450  0.97730  Biso   1.000  H
  C236     1.0000 0.31560  0.01339  0.89190  Biso   1.000  C
  C237     1.0000 0.34830  0.95334  0.90110  Biso   1.000  C
  C238     1.0000 0.41240  0.93161  0.87468  Biso   1.000  C
  H214     1.0000 0.43440  0.95380  0.85260  Biso   1.000  H
  C239     1.0000 0.44200  0.87949  0.88100  Biso   1.000  C
  H215     1.0000 0.48390  0.86590  0.86310  Biso   1.000  H
  C240     1.0000 0.41040  0.84509  0.91427  Biso   1.000  C
  C241     1.0000 0.34840  0.86509  0.93891  Biso   1.000  C
  H216     1.0000 0.32620  0.84200  0.96030  Biso   1.000  H
  C242     1.0000 0.31630  0.91875  0.93371  Biso   1.000  C
  C243     1.0000 0.22590  0.00776  0.87519  Biso   1.000  C
  H217     1.0000 0.19080  0.99530  0.89880  Biso   1.000  H
  H218     1.0000 0.20640  0.04450  0.86590  Biso   1.000  H
  C244     1.0000 0.20940  0.89076  0.80756  Biso   1.000  C
  H219     1.0000 0.20150  0.85260  0.80210  Biso   1.000  H
  C245     1.0000 0.23680  0.97509  0.79755  Biso   1.000  C
  H220     1.0000 0.25210  0.00930  0.78530  Biso   1.000  H
  Co13     1.0000 0.25328  0.30800  0.87456  Biso   1.000  Co
  Co14     1.0000 0.25569  0.41141  0.79084  Biso   1.000  Co
  F19      1.0000 0.15334  0.10163  0.93332  Biso   1.000  F
  F20      1.0000 0.25291  0.93877  0.95853  Biso   1.000  F
  F21      1.0000 0.43839  0.79243  0.92039  Biso   1.000  F
  N37      1.0000 0.40730  0.55672  0.84049  Biso   1.000  N
  N38      1.0000 0.26430  0.22241  0.89632  Biso   1.000  N
  N39      1.0000 0.35980  0.14600  0.90952  Biso   1.000  N
  N40      1.0000 0.21820  0.96822  0.83907  Biso   1.000  N
  N41      1.0000 0.20050  0.91243  0.84625  Biso   1.000  N
  N42      1.0000 0.23100  0.92783  0.77578  Biso   1.000  N
  O67      1.0000 0.16708  0.28301  0.82830  Biso   1.000  O
  O68      1.0000 0.17266  0.34864  0.77641  Biso   1.000  O
  O69      1.0000 0.85195  0.20985  0.66764  Biso   1.000  O
  O70      1.0000 0.86140  0.13750  0.71554  Biso   1.000  O
  O71      1.0000 0.34081  0.32477  0.92253  Biso   1.000  O
  O72      1.0000 0.36966  0.41647  0.90978  Biso   1.000  O
  O73      1.0000 0.15626  0.31795  0.91928  Biso   1.000  O
  O74      1.0000 0.12378  0.40761  0.90733  Biso   1.000  O
  O75      1.0000 0.24930  0.39667  0.85776  Biso   1.000  O
  O76      1.0000 0.33150  0.48329  0.80257  Biso   1.000  O
  O77      1.0000 0.36425  0.03552  0.85801  Biso   1.000  O
  H221     1.0000 0.33090  0.04210  0.83270  Biso   1.000  H
  H222     1.0000 0.46910  0.53730  0.78620  Biso   1.000  H
  H223     1.0000 0.52570  0.53880  0.82760  Biso   1.000  H
  H224     1.0000 0.49590  0.59520  0.80620  Biso   1.000  H
  C246     1.0000 0.57910  0.77191  0.26765  Biso   1.000  C
  C247     1.0000 0.54610  0.72202  0.28478  Biso   1.000  C
  H225     1.0000 0.56550  0.70800  0.31110  Biso   1.000  H
  C248     1.0000 0.48380  0.69347  0.26210  Biso   1.000  C
  H226     1.0000 0.46190  0.66030  0.27340  Biso   1.000  H
  C249     1.0000 0.45500  0.71418  0.22330  Biso   1.000  C
  C250     1.0000 0.48730  0.76368  0.20565  Biso   1.000  C
  H227     1.0000 0.46750  0.77760  0.17940  Biso   1.000  H
  C251     1.0000 0.55010  0.79215  0.22836  Biso   1.000  C
  H228     1.0000 0.57250  0.82500  0.21680  Biso   1.000  H
  C252     1.0000 0.64320  0.80409  0.29312  Biso   1.000  C
  C253     1.0000 0.38480  0.68525  0.19911  Biso   1.000  C
  C254     1.0000 0.87910  0.86999  0.43078  Biso   1.000  C
  C255     1.0000 0.97130  0.81890  0.48293  Biso   1.000  C
  H229     1.0000 0.95230  0.78500  0.47140  Biso   1.000  H
  C256     1.0000 0.94310  0.86972  0.46640  Biso   1.000  C
  C257     1.0000 0.97320  0.92030  0.48289  Biso   1.000  C
  H230     1.0000 0.95660  0.95420  0.47050  Biso   1.000  H
  C258     1.0000 0.61720  0.86240  0.42766  Biso   1.000  C
  C259     1.0000 0.52960  0.81080  0.48381  Biso   1.000  C
  H231     1.0000 0.55230  0.77690  0.47450  Biso   1.000  H
  C260     1.0000 0.55620  0.86267  0.46442  Biso   1.000  C
  C261     1.0000 0.52710  0.91270  0.48257  Biso   1.000  C
  H232     1.0000 0.54450  0.94690  0.47100  Biso   1.000  H
  C262     1.0000 0.85230  0.01200  0.33385  Biso   1.000  C
  H233     1.0000 0.82510  0.00160  0.35920  Biso   1.000  H
  C263     1.0000 0.98080  0.05700  0.31273  Biso   1.000  C
  H234     1.0000 0.02470  0.07690  0.32710  Biso   1.000  H
  H235     1.0000 0.96810  0.07540  0.28580  Biso   1.000  H
  H236     1.0000 0.99790  0.01900  0.30710  Biso   1.000  H
  C264     1.0000 0.89010  0.10110  0.37437  Biso   1.000  C
  H237     1.0000 0.84370  0.08960  0.39180  Biso   1.000  H
  H238     1.0000 0.87760  0.13620  0.36030  Biso   1.000  H
  H239     1.0000 0.93790  0.10560  0.39260  Biso   1.000  H
  C265     1.0000 0.84360  0.70071  0.39694  Biso   1.000  C
  H240     1.0000 0.88750  0.72370  0.38860  Biso   1.000  H
  C266     1.0000 0.79540  0.61228  0.42161  Biso   1.000  C
  C267     1.0000 0.71590  0.63354  0.42182  Biso   1.000  C
  C268     1.0000 0.70000  0.68790  0.40879  Biso   1.000  C
  H241     1.0000 0.64600  0.70130  0.40840  Biso   1.000  H
  C269     1.0000 0.81750  0.55311  0.43301  Biso   1.000  C
  H242     1.0000 0.77800  0.53900  0.45450  Biso   1.000  H
  C270     1.0000 0.90410  0.55059  0.45220  Biso   1.000  C
  H243     1.0000 0.94350  0.56320  0.43100  Biso   1.000  H
  H244     1.0000 0.91670  0.51250  0.46040  Biso   1.000  H
  H245     1.0000 0.90690  0.57450  0.47730  Biso   1.000  H
  C271     1.0000 0.81560  0.51339  0.39190  Biso   1.000  C
  C272     1.0000 0.84830  0.45334  0.40110  Biso   1.000  C
  C273     1.0000 0.91240  0.43161  0.37468  Biso   1.000  C
  H246     1.0000 0.93440  0.45380  0.35260  Biso   1.000  H
  C274     1.0000 0.94200  0.37949  0.38100  Biso   1.000  C
  H247     1.0000 0.98390  0.36590  0.36310  Biso   1.000  H
  C275     1.0000 0.91040  0.34509  0.41427  Biso   1.000  C
  C276     1.0000 0.84840  0.36509  0.43891  Biso   1.000  C
  H248     1.0000 0.82620  0.34200  0.46030  Biso   1.000  H
  C277     1.0000 0.81630  0.41875  0.43371  Biso   1.000  C
  C278     1.0000 0.72590  0.50776  0.37519  Biso   1.000  C
  H249     1.0000 0.69080  0.49530  0.39880  Biso   1.000  H
  H250     1.0000 0.70640  0.54450  0.36590  Biso   1.000  H
  C279     1.0000 0.70940  0.39076  0.30756  Biso   1.000  C
  H251     1.0000 0.70150  0.35260  0.30210  Biso   1.000  H
  C280     1.0000 0.73680  0.47509  0.29755  Biso   1.000  C
  H252     1.0000 0.75210  0.50930  0.28530  Biso   1.000  H
  Co15     1.0000 0.75328  0.80800  0.37456  Biso   1.000  Co
  Co16     1.0000 0.75569  0.91141  0.29084  Biso   1.000  Co
  F22      1.0000 0.65334  0.60163  0.43332  Biso   1.000  F
  F23      1.0000 0.75291  0.43877  0.45853  Biso   1.000  F
  F24      1.0000 0.93839  0.29243  0.42039  Biso   1.000  F
  N43      1.0000 0.90730  0.05672  0.34049  Biso   1.000  N
  N44      1.0000 0.76430  0.72241  0.39632  Biso   1.000  N
  N45      1.0000 0.85980  0.64600  0.40952  Biso   1.000  N
  N46      1.0000 0.71820  0.46822  0.33907  Biso   1.000  N
  N47      1.0000 0.70050  0.41243  0.34625  Biso   1.000  N
  N48      1.0000 0.73100  0.42783  0.27578  Biso   1.000  N
  O78      1.0000 0.66708  0.78301  0.32830  Biso   1.000  O
  O79      1.0000 0.67266  0.84864  0.27641  Biso   1.000  O
  O80      1.0000 0.35195  0.70985  0.16764  Biso   1.000  O
  O81      1.0000 0.36140  0.63750  0.21554  Biso   1.000  O
  O82      1.0000 0.84081  0.82477  0.42253  Biso   1.000  O
  O83      1.0000 0.86966  0.91647  0.40978  Biso   1.000  O
  O84      1.0000 0.65626  0.81795  0.41928  Biso   1.000  O
  O85      1.0000 0.62378  0.90761  0.40733  Biso   1.000  O
  O86      1.0000 0.74930  0.89667  0.35776  Biso   1.000  O
  O87      1.0000 0.83150  0.98329  0.30257  Biso   1.000  O
  O88      1.0000 0.86425  0.53552  0.35801  Biso   1.000  O
  H253     1.0000 0.83090  0.54210  0.33270  Biso   1.000  H
  H254     1.0000 0.96910  0.03730  0.28620  Biso   1.000  H
  H255     1.0000 0.02570  0.03880  0.32760  Biso   1.000  H
  H256     1.0000 0.99590  0.09520  0.30620  Biso   1.000  H
