data_image0
_cell_length_a       38.3513
_cell_length_b       38.3513
_cell_length_c       38.3513
_cell_angle_alpha    90
_cell_angle_beta     90
_cell_angle_gamma    90

_symmetry_space_group_name_H-M    "P 1"
_symmetry_int_tables_number       1

loop_
  _symmetry_equiv_pos_as_xyz
  'x, y, z'

loop_
  _atom_site_label
  _atom_site_occupancy
  _atom_site_fract_x
  _atom_site_fract_y
  _atom_site_fract_z
  _atom_site_thermal_displace_type
  _atom_site_B_iso_or_equiv
  _atom_site_type_symbol
  Sm1      1.0000 0.25693  0.08890  0.24333  Biso   1.000  Sm
  O1       1.0000 0.34240  0.03846  0.21930  Biso   1.000  O
  O2       1.0000 0.31849  0.08729  0.23780  Biso   1.000  O
  O3       1.0000 0.38257  0.19982  0.23898  Biso   1.000  O
  O4       1.0000 0.43899  0.19990  0.23280  Biso   1.000  O
  O5       1.0000 0.20050  0.06107  0.25120  Biso   1.000  O
  O6       1.0000 0.20025  0.11683  0.24350  Biso   1.000  O
  O7       1.0000 0.08739  0.18207  0.25522  Biso   1.000  O
  O8       1.0000 0.05370  0.16060  0.29620  Biso   1.000  O
  O9       1.0000 0.26763  0.02831  0.23015  Biso   1.000  O
  C1       1.0000 0.34390  0.07071  0.22634  Biso   1.000  C
  C2       1.0000 0.37640  0.09190  0.22010  Biso   1.000  C
  C3       1.0000 0.37640  0.12670  0.23000  Biso   1.000  C
  H1       1.0000 0.35660  0.13650  0.24010  Biso   1.000  H
  C4       1.0000 0.40590  0.14710  0.22470  Biso   1.000  C
  C5       1.0000 0.43540  0.13250  0.20960  Biso   1.000  C
  H2       1.0000 0.45520  0.14610  0.20600  Biso   1.000  H
  C6       1.0000 0.43540  0.09770  0.19970  Biso   1.000  C
  C7       1.0000 0.40590  0.07730  0.20500  Biso   1.000  C
  H3       1.0000 0.40590  0.05400  0.19840  Biso   1.000  H
  C8       1.0000 0.41070  0.18419  0.23271  Biso   1.000  C
  C9       1.0000 0.46860  0.08570  0.18360  Biso   1.000  C
  C10      1.0000 0.46857  0.06200  0.15590  Biso   1.000  C
  H4       1.0000 0.44750  0.05410  0.14680  Biso   1.000  H
  C11      1.0000 0.18474  0.08946  0.25104  Biso   1.000  C
  C12      1.0000 0.14685  0.09121  0.26000  Biso   1.000  C
  C13      1.0000 0.12791  0.12210  0.25940  Biso   1.000  C
  H5       1.0000 0.13760  0.14210  0.24970  Biso   1.000  H
  C14      1.0000 0.09442  0.12313  0.27320  Biso   1.000  C
  C15      1.0000 0.07987  0.09326  0.28770  Biso   1.000  C
  H6       1.0000 0.05750  0.09390  0.29690  Biso   1.000  H
  C16      1.0000 0.09880  0.06237  0.28830  Biso   1.000  C
  C17      1.0000 0.13230  0.06134  0.27450  Biso   1.000  C
  H7       1.0000 0.14500  0.04070  0.27500  Biso   1.000  H
  C18      1.0000 0.07747  0.15810  0.27460  Biso   1.000  C
  C19      1.0000 0.08170  0.03123  0.30290  Biso   1.000  C
  C20      1.0000 0.05690  0.03153  0.32940  Biso   1.000  C
  H8       1.0000 0.04870  0.05260  0.33820  Biso   1.000  H
  C21      1.0000 0.37700  0.09230  0.22294  Biso   1.000  C
  C22      1.0000 0.37920  0.12790  0.22915  Biso   1.000  C
  H9       1.0000 0.35940  0.14030  0.23590  Biso   1.000  H
  C23      1.0000 0.41080  0.14510  0.22525  Biso   1.000  C
  C24      1.0000 0.44030  0.12660  0.21510  Biso   1.000  C
  H10      1.0000 0.46150  0.13810  0.21250  Biso   1.000  H
  C25      1.0000 0.43820  0.09100  0.20890  Biso   1.000  C
  C26      1.0000 0.40650  0.07380  0.21283  Biso   1.000  C
  H11      1.0000 0.40500  0.05000  0.20870  Biso   1.000  H
  C27      1.0000 0.46861  0.07070  0.19820  Biso   1.000  C
  C28      1.0000 0.46857  0.04200  0.17610  Biso   1.000  C
  H12      1.0000 0.44750  0.03240  0.16870  Biso   1.000  H
  Sm2      1.0000 0.75693  0.58890  0.74333  Biso   1.000  Sm
  O10      1.0000 0.84240  0.53846  0.71930  Biso   1.000  O
  O11      1.0000 0.81849  0.58729  0.73780  Biso   1.000  O
  O12      1.0000 0.88257  0.69982  0.73898  Biso   1.000  O
  O13      1.0000 0.93899  0.69990  0.73280  Biso   1.000  O
  O14      1.0000 0.70050  0.56107  0.75120  Biso   1.000  O
  O15      1.0000 0.70025  0.61683  0.74350  Biso   1.000  O
  O16      1.0000 0.58739  0.68207  0.75522  Biso   1.000  O
  O17      1.0000 0.55370  0.66060  0.79620  Biso   1.000  O
  O18      1.0000 0.76763  0.52831  0.73015  Biso   1.000  O
  C29      1.0000 0.84390  0.57071  0.72634  Biso   1.000  C
  C30      1.0000 0.87640  0.59190  0.72010  Biso   1.000  C
  C31      1.0000 0.87640  0.62670  0.73000  Biso   1.000  C
  H13      1.0000 0.85660  0.63650  0.74010  Biso   1.000  H
  C32      1.0000 0.90590  0.64710  0.72470  Biso   1.000  C
  C33      1.0000 0.93540  0.63250  0.70960  Biso   1.000  C
  H14      1.0000 0.95520  0.64610  0.70600  Biso   1.000  H
  C34      1.0000 0.93540  0.59770  0.69970  Biso   1.000  C
  C35      1.0000 0.90590  0.57730  0.70500  Biso   1.000  C
  H15      1.0000 0.90590  0.55400  0.69840  Biso   1.000  H
  C36      1.0000 0.91070  0.68419  0.73271  Biso   1.000  C
  C37      1.0000 0.96860  0.58570  0.68360  Biso   1.000  C
  C38      1.0000 0.96857  0.56200  0.65590  Biso   1.000  C
  H16      1.0000 0.94750  0.55410  0.64680  Biso   1.000  H
  C39      1.0000 0.68474  0.58946  0.75104  Biso   1.000  C
  C40      1.0000 0.64685  0.59121  0.76000  Biso   1.000  C
  C41      1.0000 0.62791  0.62210  0.75940  Biso   1.000  C
  H17      1.0000 0.63760  0.64210  0.74970  Biso   1.000  H
  C42      1.0000 0.59442  0.62313  0.77320  Biso   1.000  C
  C43      1.0000 0.57987  0.59326  0.78770  Biso   1.000  C
  H18      1.0000 0.55750  0.59390  0.79690  Biso   1.000  H
  C44      1.0000 0.59880  0.56237  0.78830  Biso   1.000  C
  C45      1.0000 0.63230  0.56134  0.77450  Biso   1.000  C
  H19      1.0000 0.64500  0.54070  0.77500  Biso   1.000  H
  C46      1.0000 0.57747  0.65810  0.77460  Biso   1.000  C
  C47      1.0000 0.58170  0.53123  0.80290  Biso   1.000  C
  C48      1.0000 0.55690  0.53153  0.82940  Biso   1.000  C
  H20      1.0000 0.54870  0.55260  0.83820  Biso   1.000  H
  C49      1.0000 0.87700  0.59230  0.72294  Biso   1.000  C
  C50      1.0000 0.87920  0.62790  0.72915  Biso   1.000  C
  H21      1.0000 0.85940  0.64030  0.73590  Biso   1.000  H
  C51      1.0000 0.91080  0.64510  0.72525  Biso   1.000  C
  C52      1.0000 0.94030  0.62660  0.71510  Biso   1.000  C
  H22      1.0000 0.96150  0.63810  0.71250  Biso   1.000  H
  C53      1.0000 0.93820  0.59100  0.70890  Biso   1.000  C
  C54      1.0000 0.90650  0.57380  0.71283  Biso   1.000  C
  H23      1.0000 0.90500  0.55000  0.70870  Biso   1.000  H
  C55      1.0000 0.96861  0.57070  0.69820  Biso   1.000  C
  C56      1.0000 0.96857  0.54200  0.67610  Biso   1.000  C
  H24      1.0000 0.94750  0.53240  0.66870  Biso   1.000  H
  Sm3      1.0000 0.74307  0.91110  0.24333  Biso   1.000  Sm
  O19      1.0000 0.65760  0.96154  0.21930  Biso   1.000  O
  O20      1.0000 0.68151  0.91271  0.23780  Biso   1.000  O
  O21      1.0000 0.61743  0.80018  0.23898  Biso   1.000  O
  O22      1.0000 0.56101  0.80010  0.23280  Biso   1.000  O
  O23      1.0000 0.79950  0.93893  0.25120  Biso   1.000  O
  O24      1.0000 0.79975  0.88317  0.24350  Biso   1.000  O
  O25      1.0000 0.91261  0.81793  0.25522  Biso   1.000  O
  O26      1.0000 0.94630  0.83940  0.29620  Biso   1.000  O
  O27      1.0000 0.73237  0.97169  0.23015  Biso   1.000  O
  C57      1.0000 0.65610  0.92929  0.22634  Biso   1.000  C
  C58      1.0000 0.62360  0.90810  0.22010  Biso   1.000  C
  C59      1.0000 0.62360  0.87330  0.23000  Biso   1.000  C
  H25      1.0000 0.64340  0.86350  0.24010  Biso   1.000  H
  C60      1.0000 0.59410  0.85290  0.22470  Biso   1.000  C
  C61      1.0000 0.56460  0.86750  0.20960  Biso   1.000  C
  H26      1.0000 0.54480  0.85390  0.20600  Biso   1.000  H
  C62      1.0000 0.56460  0.90230  0.19970  Biso   1.000  C
  C63      1.0000 0.59410  0.92270  0.20500  Biso   1.000  C
  H27      1.0000 0.59410  0.94600  0.19840  Biso   1.000  H
  C64      1.0000 0.58930  0.81581  0.23271  Biso   1.000  C
  C65      1.0000 0.53140  0.91430  0.18360  Biso   1.000  C
  C66      1.0000 0.53143  0.93800  0.15590  Biso   1.000  C
  H28      1.0000 0.55250  0.94590  0.14680  Biso   1.000  H
  C67      1.0000 0.81526  0.91054  0.25104  Biso   1.000  C
  C68      1.0000 0.85315  0.90879  0.26000  Biso   1.000  C
  C69      1.0000 0.87209  0.87790  0.25940  Biso   1.000  C
  H29      1.0000 0.86240  0.85790  0.24970  Biso   1.000  H
  C70      1.0000 0.90558  0.87687  0.27320  Biso   1.000  C
  C71      1.0000 0.92013  0.90674  0.28770  Biso   1.000  C
  H30      1.0000 0.94250  0.90610  0.29690  Biso   1.000  H
  C72      1.0000 0.90120  0.93763  0.28830  Biso   1.000  C
  C73      1.0000 0.86770  0.93866  0.27450  Biso   1.000  C
  H31      1.0000 0.85500  0.95930  0.27500  Biso   1.000  H
  C74      1.0000 0.92253  0.84190  0.27460  Biso   1.000  C
  C75      1.0000 0.91830  0.96877  0.30290  Biso   1.000  C
  C76      1.0000 0.94310  0.96847  0.32940  Biso   1.000  C
  H32      1.0000 0.95130  0.94740  0.33820  Biso   1.000  H
  C77      1.0000 0.62300  0.90770  0.22294  Biso   1.000  C
  C78      1.0000 0.62080  0.87210  0.22915  Biso   1.000  C
  H33      1.0000 0.64060  0.85970  0.23590  Biso   1.000  H
  C79      1.0000 0.58920  0.85490  0.22525  Biso   1.000  C
  C80      1.0000 0.55970  0.87340  0.21510  Biso   1.000  C
  H34      1.0000 0.53850  0.86190  0.21250  Biso   1.000  H
  C81      1.0000 0.56180  0.90900  0.20890  Biso   1.000  C
  C82      1.0000 0.59350  0.92620  0.21283  Biso   1.000  C
  H35      1.0000 0.59500  0.95000  0.20870  Biso   1.000  H
  C83      1.0000 0.53139  0.92930  0.19820  Biso   1.000  C
  C84      1.0000 0.53143  0.95800  0.17610  Biso   1.000  C
  H36      1.0000 0.55250  0.96760  0.16870  Biso   1.000  H
  Sm4      1.0000 0.24307  0.41110  0.74333  Biso   1.000  Sm
  O28      1.0000 0.15760  0.46154  0.71930  Biso   1.000  O
  O29      1.0000 0.18151  0.41271  0.73780  Biso   1.000  O
  O30      1.0000 0.11743  0.30018  0.73898  Biso   1.000  O
  O31      1.0000 0.06101  0.30010  0.73280  Biso   1.000  O
  O32      1.0000 0.29950  0.43893  0.75120  Biso   1.000  O
  O33      1.0000 0.29975  0.38317  0.74350  Biso   1.000  O
  O34      1.0000 0.41261  0.31793  0.75522  Biso   1.000  O
  O35      1.0000 0.44630  0.33940  0.79620  Biso   1.000  O
  O36      1.0000 0.23237  0.47169  0.73015  Biso   1.000  O
  C85      1.0000 0.15610  0.42929  0.72634  Biso   1.000  C
  C86      1.0000 0.12360  0.40810  0.72010  Biso   1.000  C
  C87      1.0000 0.12360  0.37330  0.73000  Biso   1.000  C
  H37      1.0000 0.14340  0.36350  0.74010  Biso   1.000  H
  C88      1.0000 0.09410  0.35290  0.72470  Biso   1.000  C
  C89      1.0000 0.06460  0.36750  0.70960  Biso   1.000  C
  H38      1.0000 0.04480  0.35390  0.70600  Biso   1.000  H
  C90      1.0000 0.06460  0.40230  0.69970  Biso   1.000  C
  C91      1.0000 0.09410  0.42270  0.70500  Biso   1.000  C
  H39      1.0000 0.09410  0.44600  0.69840  Biso   1.000  H
  C92      1.0000 0.08930  0.31581  0.73271  Biso   1.000  C
  C93      1.0000 0.03140  0.41430  0.68360  Biso   1.000  C
  C94      1.0000 0.03143  0.43800  0.65590  Biso   1.000  C
  H40      1.0000 0.05250  0.44590  0.64680  Biso   1.000  H
  C95      1.0000 0.31526  0.41054  0.75104  Biso   1.000  C
  C96      1.0000 0.35315  0.40879  0.76000  Biso   1.000  C
  C97      1.0000 0.37209  0.37790  0.75940  Biso   1.000  C
  H41      1.0000 0.36240  0.35790  0.74970  Biso   1.000  H
  C98      1.0000 0.40558  0.37687  0.77320  Biso   1.000  C
  C99      1.0000 0.42013  0.40674  0.78770  Biso   1.000  C
  H42      1.0000 0.44250  0.40610  0.79690  Biso   1.000  H
  C100     1.0000 0.40120  0.43763  0.78830  Biso   1.000  C
  C101     1.0000 0.36770  0.43866  0.77450  Biso   1.000  C
  H43      1.0000 0.35500  0.45930  0.77500  Biso   1.000  H
  C102     1.0000 0.42253  0.34190  0.77460  Biso   1.000  C
  C103     1.0000 0.41830  0.46877  0.80290  Biso   1.000  C
  C104     1.0000 0.44310  0.46847  0.82940  Biso   1.000  C
  H44      1.0000 0.45130  0.44740  0.83820  Biso   1.000  H
  C105     1.0000 0.12300  0.40770  0.72294  Biso   1.000  C
  C106     1.0000 0.12080  0.37210  0.72915  Biso   1.000  C
  H45      1.0000 0.14060  0.35970  0.73590  Biso   1.000  H
  C107     1.0000 0.08920  0.35490  0.72525  Biso   1.000  C
  C108     1.0000 0.05970  0.37340  0.71510  Biso   1.000  C
  H46      1.0000 0.03850  0.36190  0.71250  Biso   1.000  H
  C109     1.0000 0.06180  0.40900  0.70890  Biso   1.000  C
  C110     1.0000 0.09350  0.42620  0.71283  Biso   1.000  C
  H47      1.0000 0.09500  0.45000  0.70870  Biso   1.000  H
  C111     1.0000 0.03139  0.42930  0.69820  Biso   1.000  C
  C112     1.0000 0.03143  0.45800  0.67610  Biso   1.000  C
  H48      1.0000 0.05250  0.46760  0.66870  Biso   1.000  H
  Sm5      1.0000 0.74307  0.08890  0.75667  Biso   1.000  Sm
  O37      1.0000 0.65760  0.03846  0.78070  Biso   1.000  O
  O38      1.0000 0.68151  0.08729  0.76220  Biso   1.000  O
  O39      1.0000 0.61743  0.19982  0.76102  Biso   1.000  O
  O40      1.0000 0.56101  0.19990  0.76720  Biso   1.000  O
  O41      1.0000 0.79950  0.06107  0.74880  Biso   1.000  O
  O42      1.0000 0.79975  0.11683  0.75650  Biso   1.000  O
  O43      1.0000 0.91261  0.18207  0.74478  Biso   1.000  O
  O44      1.0000 0.94630  0.16060  0.70380  Biso   1.000  O
  O45      1.0000 0.73237  0.02831  0.76985  Biso   1.000  O
  C113     1.0000 0.65610  0.07071  0.77366  Biso   1.000  C
  C114     1.0000 0.62360  0.09190  0.77990  Biso   1.000  C
  C115     1.0000 0.62360  0.12670  0.77000  Biso   1.000  C
  H49      1.0000 0.64340  0.13650  0.75990  Biso   1.000  H
  C116     1.0000 0.59410  0.14710  0.77530  Biso   1.000  C
  C117     1.0000 0.56460  0.13250  0.79040  Biso   1.000  C
  H50      1.0000 0.54480  0.14610  0.79400  Biso   1.000  H
  C118     1.0000 0.56460  0.09770  0.80030  Biso   1.000  C
  C119     1.0000 0.59410  0.07730  0.79500  Biso   1.000  C
  H51      1.0000 0.59410  0.05400  0.80160  Biso   1.000  H
  C120     1.0000 0.58930  0.18419  0.76729  Biso   1.000  C
  C121     1.0000 0.53140  0.08570  0.81640  Biso   1.000  C
  C122     1.0000 0.53143  0.06200  0.84410  Biso   1.000  C
  H52      1.0000 0.55250  0.05410  0.85320  Biso   1.000  H
  C123     1.0000 0.81526  0.08946  0.74896  Biso   1.000  C
  C124     1.0000 0.85315  0.09121  0.74000  Biso   1.000  C
  C125     1.0000 0.87209  0.12210  0.74060  Biso   1.000  C
  H53      1.0000 0.86240  0.14210  0.75030  Biso   1.000  H
  C126     1.0000 0.90558  0.12313  0.72680  Biso   1.000  C
  C127     1.0000 0.92013  0.09326  0.71230  Biso   1.000  C
  H54      1.0000 0.94250  0.09390  0.70310  Biso   1.000  H
  C128     1.0000 0.90120  0.06237  0.71170  Biso   1.000  C
  C129     1.0000 0.86770  0.06134  0.72550  Biso   1.000  C
  H55      1.0000 0.85500  0.04070  0.72500  Biso   1.000  H
  C130     1.0000 0.92253  0.15810  0.72540  Biso   1.000  C
  C131     1.0000 0.91830  0.03123  0.69710  Biso   1.000  C
  C132     1.0000 0.94310  0.03153  0.67060  Biso   1.000  C
  H56      1.0000 0.95130  0.05260  0.66180  Biso   1.000  H
  C133     1.0000 0.62300  0.09230  0.77706  Biso   1.000  C
  C134     1.0000 0.62080  0.12790  0.77085  Biso   1.000  C
  H57      1.0000 0.64060  0.14030  0.76410  Biso   1.000  H
  C135     1.0000 0.58920  0.14510  0.77475  Biso   1.000  C
  C136     1.0000 0.55970  0.12660  0.78490  Biso   1.000  C
  H58      1.0000 0.53850  0.13810  0.78750  Biso   1.000  H
  C137     1.0000 0.56180  0.09100  0.79110  Biso   1.000  C
  C138     1.0000 0.59350  0.07380  0.78717  Biso   1.000  C
  H59      1.0000 0.59500  0.05000  0.79130  Biso   1.000  H
  C139     1.0000 0.53139  0.07070  0.80180  Biso   1.000  C
  C140     1.0000 0.53143  0.04200  0.82390  Biso   1.000  C
  H60      1.0000 0.55250  0.03240  0.83130  Biso   1.000  H
  Sm6      1.0000 0.24307  0.58890  0.25667  Biso   1.000  Sm
  O46      1.0000 0.15760  0.53846  0.28070  Biso   1.000  O
  O47      1.0000 0.18151  0.58729  0.26220  Biso   1.000  O
  O48      1.0000 0.11743  0.69982  0.26102  Biso   1.000  O
  O49      1.0000 0.06101  0.69990  0.26720  Biso   1.000  O
  O50      1.0000 0.29950  0.56107  0.24880  Biso   1.000  O
  O51      1.0000 0.29975  0.61683  0.25650  Biso   1.000  O
  O52      1.0000 0.41261  0.68207  0.24478  Biso   1.000  O
  O53      1.0000 0.44630  0.66060  0.20380  Biso   1.000  O
  O54      1.0000 0.23237  0.52831  0.26985  Biso   1.000  O
  C141     1.0000 0.15610  0.57071  0.27366  Biso   1.000  C
  C142     1.0000 0.12360  0.59190  0.27990  Biso   1.000  C
  C143     1.0000 0.12360  0.62670  0.27000  Biso   1.000  C
  H61      1.0000 0.14340  0.63650  0.25990  Biso   1.000  H
  C144     1.0000 0.09410  0.64710  0.27530  Biso   1.000  C
  C145     1.0000 0.06460  0.63250  0.29040  Biso   1.000  C
  H62      1.0000 0.04480  0.64610  0.29400  Biso   1.000  H
  C146     1.0000 0.06460  0.59770  0.30030  Biso   1.000  C
  C147     1.0000 0.09410  0.57730  0.29500  Biso   1.000  C
  H63      1.0000 0.09410  0.55400  0.30160  Biso   1.000  H
  C148     1.0000 0.08930  0.68419  0.26729  Biso   1.000  C
  C149     1.0000 0.03140  0.58570  0.31640  Biso   1.000  C
  C150     1.0000 0.03143  0.56200  0.34410  Biso   1.000  C
  H64      1.0000 0.05250  0.55410  0.35320  Biso   1.000  H
  C151     1.0000 0.31526  0.58946  0.24896  Biso   1.000  C
  C152     1.0000 0.35315  0.59121  0.24000  Biso   1.000  C
  C153     1.0000 0.37209  0.62210  0.24060  Biso   1.000  C
  H65      1.0000 0.36240  0.64210  0.25030  Biso   1.000  H
  C154     1.0000 0.40558  0.62313  0.22680  Biso   1.000  C
  C155     1.0000 0.42013  0.59326  0.21230  Biso   1.000  C
  H66      1.0000 0.44250  0.59390  0.20310  Biso   1.000  H
  C156     1.0000 0.40120  0.56237  0.21170  Biso   1.000  C
  C157     1.0000 0.36770  0.56134  0.22550  Biso   1.000  C
  H67      1.0000 0.35500  0.54070  0.22500  Biso   1.000  H
  C158     1.0000 0.42253  0.65810  0.22540  Biso   1.000  C
  C159     1.0000 0.41830  0.53123  0.19710  Biso   1.000  C
  C160     1.0000 0.44310  0.53153  0.17060  Biso   1.000  C
  H68      1.0000 0.45130  0.55260  0.16180  Biso   1.000  H
  C161     1.0000 0.12300  0.59230  0.27706  Biso   1.000  C
  C162     1.0000 0.12080  0.62790  0.27085  Biso   1.000  C
  H69      1.0000 0.14060  0.64030  0.26410  Biso   1.000  H
  C163     1.0000 0.08920  0.64510  0.27475  Biso   1.000  C
  C164     1.0000 0.05970  0.62660  0.28490  Biso   1.000  C
  H70      1.0000 0.03850  0.63810  0.28750  Biso   1.000  H
  C165     1.0000 0.06180  0.59100  0.29110  Biso   1.000  C
  C166     1.0000 0.09350  0.57380  0.28717  Biso   1.000  C
  H71      1.0000 0.09500  0.55000  0.29130  Biso   1.000  H
  C167     1.0000 0.03139  0.57070  0.30180  Biso   1.000  C
  C168     1.0000 0.03143  0.54200  0.32390  Biso   1.000  C
  H72      1.0000 0.05250  0.53240  0.33130  Biso   1.000  H
  Sm7      1.0000 0.25693  0.91110  0.75667  Biso   1.000  Sm
  O55      1.0000 0.34240  0.96154  0.78070  Biso   1.000  O
  O56      1.0000 0.31849  0.91271  0.76220  Biso   1.000  O
  O57      1.0000 0.38257  0.80018  0.76102  Biso   1.000  O
  O58      1.0000 0.43899  0.80010  0.76720  Biso   1.000  O
  O59      1.0000 0.20050  0.93893  0.74880  Biso   1.000  O
  O60      1.0000 0.20025  0.88317  0.75650  Biso   1.000  O
  O61      1.0000 0.08739  0.81793  0.74478  Biso   1.000  O
  O62      1.0000 0.05370  0.83940  0.70380  Biso   1.000  O
  O63      1.0000 0.26763  0.97169  0.76985  Biso   1.000  O
  C169     1.0000 0.34390  0.92929  0.77366  Biso   1.000  C
  C170     1.0000 0.37640  0.90810  0.77990  Biso   1.000  C
  C171     1.0000 0.37640  0.87330  0.77000  Biso   1.000  C
  H73      1.0000 0.35660  0.86350  0.75990  Biso   1.000  H
  C172     1.0000 0.40590  0.85290  0.77530  Biso   1.000  C
  C173     1.0000 0.43540  0.86750  0.79040  Biso   1.000  C
  H74      1.0000 0.45520  0.85390  0.79400  Biso   1.000  H
  C174     1.0000 0.43540  0.90230  0.80030  Biso   1.000  C
  C175     1.0000 0.40590  0.92270  0.79500  Biso   1.000  C
  H75      1.0000 0.40590  0.94600  0.80160  Biso   1.000  H
  C176     1.0000 0.41070  0.81581  0.76729  Biso   1.000  C
  C177     1.0000 0.46860  0.91430  0.81640  Biso   1.000  C
  C178     1.0000 0.46857  0.93800  0.84410  Biso   1.000  C
  H76      1.0000 0.44750  0.94590  0.85320  Biso   1.000  H
  C179     1.0000 0.18474  0.91054  0.74896  Biso   1.000  C
  C180     1.0000 0.14685  0.90879  0.74000  Biso   1.000  C
  C181     1.0000 0.12791  0.87790  0.74060  Biso   1.000  C
  H77      1.0000 0.13760  0.85790  0.75030  Biso   1.000  H
  C182     1.0000 0.09442  0.87687  0.72680  Biso   1.000  C
  C183     1.0000 0.07987  0.90674  0.71230  Biso   1.000  C
  H78      1.0000 0.05750  0.90610  0.70310  Biso   1.000  H
  C184     1.0000 0.09880  0.93763  0.71170  Biso   1.000  C
  C185     1.0000 0.13230  0.93866  0.72550  Biso   1.000  C
  H79      1.0000 0.14500  0.95930  0.72500  Biso   1.000  H
  C186     1.0000 0.07747  0.84190  0.72540  Biso   1.000  C
  C187     1.0000 0.08170  0.96877  0.69710  Biso   1.000  C
  C188     1.0000 0.05690  0.96847  0.67060  Biso   1.000  C
  H80      1.0000 0.04870  0.94740  0.66180  Biso   1.000  H
  C189     1.0000 0.37700  0.90770  0.77706  Biso   1.000  C
  C190     1.0000 0.37920  0.87210  0.77085  Biso   1.000  C
  H81      1.0000 0.35940  0.85970  0.76410  Biso   1.000  H
  C191     1.0000 0.41080  0.85490  0.77475  Biso   1.000  C
  C192     1.0000 0.44030  0.87340  0.78490  Biso   1.000  C
  H82      1.0000 0.46150  0.86190  0.78750  Biso   1.000  H
  C193     1.0000 0.43820  0.90900  0.79110  Biso   1.000  C
  C194     1.0000 0.40650  0.92620  0.78717  Biso   1.000  C
  H83      1.0000 0.40500  0.95000  0.79130  Biso   1.000  H
  C195     1.0000 0.46861  0.92930  0.80180  Biso   1.000  C
  C196     1.0000 0.46857  0.95800  0.82390  Biso   1.000  C
  H84      1.0000 0.44750  0.96760  0.83130  Biso   1.000  H
  Sm8      1.0000 0.75693  0.41110  0.25667  Biso   1.000  Sm
  O64      1.0000 0.84240  0.46154  0.28070  Biso   1.000  O
  O65      1.0000 0.81849  0.41271  0.26220  Biso   1.000  O
  O66      1.0000 0.88257  0.30018  0.26102  Biso   1.000  O
  O67      1.0000 0.93899  0.30010  0.26720  Biso   1.000  O
  O68      1.0000 0.70050  0.43893  0.24880  Biso   1.000  O
  O69      1.0000 0.70025  0.38317  0.25650  Biso   1.000  O
  O70      1.0000 0.58739  0.31793  0.24478  Biso   1.000  O
  O71      1.0000 0.55370  0.33940  0.20380  Biso   1.000  O
  O72      1.0000 0.76763  0.47169  0.26985  Biso   1.000  O
  C197     1.0000 0.84390  0.42929  0.27366  Biso   1.000  C
  C198     1.0000 0.87640  0.40810  0.27990  Biso   1.000  C
  C199     1.0000 0.87640  0.37330  0.27000  Biso   1.000  C
  H85      1.0000 0.85660  0.36350  0.25990  Biso   1.000  H
  C200     1.0000 0.90590  0.35290  0.27530  Biso   1.000  C
  C201     1.0000 0.93540  0.36750  0.29040  Biso   1.000  C
  H86      1.0000 0.95520  0.35390  0.29400  Biso   1.000  H
  C202     1.0000 0.93540  0.40230  0.30030  Biso   1.000  C
  C203     1.0000 0.90590  0.42270  0.29500  Biso   1.000  C
  H87      1.0000 0.90590  0.44600  0.30160  Biso   1.000  H
  C204     1.0000 0.91070  0.31581  0.26729  Biso   1.000  C
  C205     1.0000 0.96860  0.41430  0.31640  Biso   1.000  C
  C206     1.0000 0.96857  0.43800  0.34410  Biso   1.000  C
  H88      1.0000 0.94750  0.44590  0.35320  Biso   1.000  H
  C207     1.0000 0.68474  0.41054  0.24896  Biso   1.000  C
  C208     1.0000 0.64685  0.40879  0.24000  Biso   1.000  C
  C209     1.0000 0.62791  0.37790  0.24060  Biso   1.000  C
  H89      1.0000 0.63760  0.35790  0.25030  Biso   1.000  H
  C210     1.0000 0.59442  0.37687  0.22680  Biso   1.000  C
  C211     1.0000 0.57987  0.40674  0.21230  Biso   1.000  C
  H90      1.0000 0.55750  0.40610  0.20310  Biso   1.000  H
  C212     1.0000 0.59880  0.43763  0.21170  Biso   1.000  C
  C213     1.0000 0.63230  0.43866  0.22550  Biso   1.000  C
  H91      1.0000 0.64500  0.45930  0.22500  Biso   1.000  H
  C214     1.0000 0.57747  0.34190  0.22540  Biso   1.000  C
  C215     1.0000 0.58170  0.46877  0.19710  Biso   1.000  C
  C216     1.0000 0.55690  0.46847  0.17060  Biso   1.000  C
  H92      1.0000 0.54870  0.44740  0.16180  Biso   1.000  H
  C217     1.0000 0.87700  0.40770  0.27706  Biso   1.000  C
  C218     1.0000 0.87920  0.37210  0.27085  Biso   1.000  C
  H93      1.0000 0.85940  0.35970  0.26410  Biso   1.000  H
  C219     1.0000 0.91080  0.35490  0.27475  Biso   1.000  C
  C220     1.0000 0.94030  0.37340  0.28490  Biso   1.000  C
  H94      1.0000 0.96150  0.36190  0.28750  Biso   1.000  H
  C221     1.0000 0.93820  0.40900  0.29110  Biso   1.000  C
  C222     1.0000 0.90650  0.42620  0.28717  Biso   1.000  C
  H95      1.0000 0.90500  0.45000  0.29130  Biso   1.000  H
  C223     1.0000 0.96861  0.42930  0.30180  Biso   1.000  C
  C224     1.0000 0.96857  0.45800  0.32390  Biso   1.000  C
  H96      1.0000 0.94750  0.46760  0.33130  Biso   1.000  H
  Sm9      1.0000 0.24333  0.25693  0.08890  Biso   1.000  Sm
  O73      1.0000 0.21930  0.34240  0.03846  Biso   1.000  O
  O74      1.0000 0.23780  0.31849  0.08729  Biso   1.000  O
  O75      1.0000 0.23898  0.38257  0.19982  Biso   1.000  O
  O76      1.0000 0.23280  0.43899  0.19990  Biso   1.000  O
  O77      1.0000 0.25120  0.20050  0.06107  Biso   1.000  O
  O78      1.0000 0.24350  0.20025  0.11683  Biso   1.000  O
  O79      1.0000 0.25522  0.08739  0.18207  Biso   1.000  O
  O80      1.0000 0.29620  0.05370  0.16060  Biso   1.000  O
  O81      1.0000 0.23015  0.26763  0.02831  Biso   1.000  O
  C225     1.0000 0.22634  0.34390  0.07071  Biso   1.000  C
  C226     1.0000 0.22010  0.37640  0.09190  Biso   1.000  C
  C227     1.0000 0.23000  0.37640  0.12670  Biso   1.000  C
  H97      1.0000 0.24010  0.35660  0.13650  Biso   1.000  H
  C228     1.0000 0.22470  0.40590  0.14710  Biso   1.000  C
  C229     1.0000 0.20960  0.43540  0.13250  Biso   1.000  C
  H98      1.0000 0.20600  0.45520  0.14610  Biso   1.000  H
  C230     1.0000 0.19970  0.43540  0.09770  Biso   1.000  C
  C231     1.0000 0.20500  0.40590  0.07730  Biso   1.000  C
  H99      1.0000 0.19840  0.40590  0.05400  Biso   1.000  H
  C232     1.0000 0.23271  0.41070  0.18419  Biso   1.000  C
  C233     1.0000 0.18360  0.46860  0.08570  Biso   1.000  C
  C234     1.0000 0.15590  0.46857  0.06200  Biso   1.000  C
  H100     1.0000 0.14680  0.44750  0.05410  Biso   1.000  H
  C235     1.0000 0.25104  0.18474  0.08946  Biso   1.000  C
  C236     1.0000 0.26000  0.14685  0.09121  Biso   1.000  C
  C237     1.0000 0.25940  0.12791  0.12210  Biso   1.000  C
  H101     1.0000 0.24970  0.13760  0.14210  Biso   1.000  H
  C238     1.0000 0.27320  0.09442  0.12313  Biso   1.000  C
  C239     1.0000 0.28770  0.07987  0.09326  Biso   1.000  C
  H102     1.0000 0.29690  0.05750  0.09390  Biso   1.000  H
  C240     1.0000 0.28830  0.09880  0.06237  Biso   1.000  C
  C241     1.0000 0.27450  0.13230  0.06134  Biso   1.000  C
  H103     1.0000 0.27500  0.14500  0.04070  Biso   1.000  H
  C242     1.0000 0.27460  0.07747  0.15810  Biso   1.000  C
  C243     1.0000 0.30290  0.08170  0.03123  Biso   1.000  C
  C244     1.0000 0.32940  0.05690  0.03153  Biso   1.000  C
  H104     1.0000 0.33820  0.04870  0.05260  Biso   1.000  H
  C245     1.0000 0.22294  0.37700  0.09230  Biso   1.000  C
  C246     1.0000 0.22915  0.37920  0.12790  Biso   1.000  C
  H105     1.0000 0.23590  0.35940  0.14030  Biso   1.000  H
  C247     1.0000 0.22525  0.41080  0.14510  Biso   1.000  C
  C248     1.0000 0.21510  0.44030  0.12660  Biso   1.000  C
  H106     1.0000 0.21250  0.46150  0.13810  Biso   1.000  H
  C249     1.0000 0.20890  0.43820  0.09100  Biso   1.000  C
  C250     1.0000 0.21283  0.40650  0.07380  Biso   1.000  C
  H107     1.0000 0.20870  0.40500  0.05000  Biso   1.000  H
  C251     1.0000 0.19820  0.46861  0.07070  Biso   1.000  C
  C252     1.0000 0.17610  0.46857  0.04200  Biso   1.000  C
  H108     1.0000 0.16870  0.44750  0.03240  Biso   1.000  H
  Sm10     1.0000 0.74333  0.75693  0.58890  Biso   1.000  Sm
  O82      1.0000 0.71930  0.84240  0.53846  Biso   1.000  O
  O83      1.0000 0.73780  0.81849  0.58729  Biso   1.000  O
  O84      1.0000 0.73898  0.88257  0.69982  Biso   1.000  O
  O85      1.0000 0.73280  0.93899  0.69990  Biso   1.000  O
  O86      1.0000 0.75120  0.70050  0.56107  Biso   1.000  O
  O87      1.0000 0.74350  0.70025  0.61683  Biso   1.000  O
  O88      1.0000 0.75522  0.58739  0.68207  Biso   1.000  O
  O89      1.0000 0.79620  0.55370  0.66060  Biso   1.000  O
  O90      1.0000 0.73015  0.76763  0.52831  Biso   1.000  O
  C253     1.0000 0.72634  0.84390  0.57071  Biso   1.000  C
  C254     1.0000 0.72010  0.87640  0.59190  Biso   1.000  C
  C255     1.0000 0.73000  0.87640  0.62670  Biso   1.000  C
  H109     1.0000 0.74010  0.85660  0.63650  Biso   1.000  H
  C256     1.0000 0.72470  0.90590  0.64710  Biso   1.000  C
  C257     1.0000 0.70960  0.93540  0.63250  Biso   1.000  C
  H110     1.0000 0.70600  0.95520  0.64610  Biso   1.000  H
  C258     1.0000 0.69970  0.93540  0.59770  Biso   1.000  C
  C259     1.0000 0.70500  0.90590  0.57730  Biso   1.000  C
  H111     1.0000 0.69840  0.90590  0.55400  Biso   1.000  H
  C260     1.0000 0.73271  0.91070  0.68419  Biso   1.000  C
  C261     1.0000 0.68360  0.96860  0.58570  Biso   1.000  C
  C262     1.0000 0.65590  0.96857  0.56200  Biso   1.000  C
  H112     1.0000 0.64680  0.94750  0.55410  Biso   1.000  H
  C263     1.0000 0.75104  0.68474  0.58946  Biso   1.000  C
  C264     1.0000 0.76000  0.64685  0.59121  Biso   1.000  C
  C265     1.0000 0.75940  0.62791  0.62210  Biso   1.000  C
  H113     1.0000 0.74970  0.63760  0.64210  Biso   1.000  H
  C266     1.0000 0.77320  0.59442  0.62313  Biso   1.000  C
  C267     1.0000 0.78770  0.57987  0.59326  Biso   1.000  C
  H114     1.0000 0.79690  0.55750  0.59390  Biso   1.000  H
  C268     1.0000 0.78830  0.59880  0.56237  Biso   1.000  C
  C269     1.0000 0.77450  0.63230  0.56134  Biso   1.000  C
  H115     1.0000 0.77500  0.64500  0.54070  Biso   1.000  H
  C270     1.0000 0.77460  0.57747  0.65810  Biso   1.000  C
  C271     1.0000 0.80290  0.58170  0.53123  Biso   1.000  C
  C272     1.0000 0.82940  0.55690  0.53153  Biso   1.000  C
  H116     1.0000 0.83820  0.54870  0.55260  Biso   1.000  H
  C273     1.0000 0.72294  0.87700  0.59230  Biso   1.000  C
  C274     1.0000 0.72915  0.87920  0.62790  Biso   1.000  C
  H117     1.0000 0.73590  0.85940  0.64030  Biso   1.000  H
  C275     1.0000 0.72525  0.91080  0.64510  Biso   1.000  C
  C276     1.0000 0.71510  0.94030  0.62660  Biso   1.000  C
  H118     1.0000 0.71250  0.96150  0.63810  Biso   1.000  H
  C277     1.0000 0.70890  0.93820  0.59100  Biso   1.000  C
  C278     1.0000 0.71283  0.90650  0.57380  Biso   1.000  C
  H119     1.0000 0.70870  0.90500  0.55000  Biso   1.000  H
  C279     1.0000 0.69820  0.96861  0.57070  Biso   1.000  C
  C280     1.0000 0.67610  0.96857  0.54200  Biso   1.000  C
  H120     1.0000 0.66870  0.94750  0.53240  Biso   1.000  H
  Sm11     1.0000 0.24333  0.74307  0.91110  Biso   1.000  Sm
  O91      1.0000 0.21930  0.65760  0.96154  Biso   1.000  O
  O92      1.0000 0.23780  0.68151  0.91271  Biso   1.000  O
  O93      1.0000 0.23898  0.61743  0.80018  Biso   1.000  O
  O94      1.0000 0.23280  0.56101  0.80010  Biso   1.000  O
  O95      1.0000 0.25120  0.79950  0.93893  Biso   1.000  O
  O96      1.0000 0.24350  0.79975  0.88317  Biso   1.000  O
  O97      1.0000 0.25522  0.91261  0.81793  Biso   1.000  O
  O98      1.0000 0.29620  0.94630  0.83940  Biso   1.000  O
  O99      1.0000 0.23015  0.73237  0.97169  Biso   1.000  O
  C281     1.0000 0.22634  0.65610  0.92929  Biso   1.000  C
  C282     1.0000 0.22010  0.62360  0.90810  Biso   1.000  C
  C283     1.0000 0.23000  0.62360  0.87330  Biso   1.000  C
  H121     1.0000 0.24010  0.64340  0.86350  Biso   1.000  H
  C284     1.0000 0.22470  0.59410  0.85290  Biso   1.000  C
  C285     1.0000 0.20960  0.56460  0.86750  Biso   1.000  C
  H122     1.0000 0.20600  0.54480  0.85390  Biso   1.000  H
  C286     1.0000 0.19970  0.56460  0.90230  Biso   1.000  C
  C287     1.0000 0.20500  0.59410  0.92270  Biso   1.000  C
  H123     1.0000 0.19840  0.59410  0.94600  Biso   1.000  H
  C288     1.0000 0.23271  0.58930  0.81581  Biso   1.000  C
  C289     1.0000 0.18360  0.53140  0.91430  Biso   1.000  C
  C290     1.0000 0.15590  0.53143  0.93800  Biso   1.000  C
  H124     1.0000 0.14680  0.55250  0.94590  Biso   1.000  H
  C291     1.0000 0.25104  0.81526  0.91054  Biso   1.000  C
  C292     1.0000 0.26000  0.85315  0.90879  Biso   1.000  C
  C293     1.0000 0.25940  0.87209  0.87790  Biso   1.000  C
  H125     1.0000 0.24970  0.86240  0.85790  Biso   1.000  H
  C294     1.0000 0.27320  0.90558  0.87687  Biso   1.000  C
  C295     1.0000 0.28770  0.92013  0.90674  Biso   1.000  C
  H126     1.0000 0.29690  0.94250  0.90610  Biso   1.000  H
  C296     1.0000 0.28830  0.90120  0.93763  Biso   1.000  C
  C297     1.0000 0.27450  0.86770  0.93866  Biso   1.000  C
  H127     1.0000 0.27500  0.85500  0.95930  Biso   1.000  H
  C298     1.0000 0.27460  0.92253  0.84190  Biso   1.000  C
  C299     1.0000 0.30290  0.91830  0.96877  Biso   1.000  C
  C300     1.0000 0.32940  0.94310  0.96847  Biso   1.000  C
  H128     1.0000 0.33820  0.95130  0.94740  Biso   1.000  H
  C301     1.0000 0.22294  0.62300  0.90770  Biso   1.000  C
  C302     1.0000 0.22915  0.62080  0.87210  Biso   1.000  C
  H129     1.0000 0.23590  0.64060  0.85970  Biso   1.000  H
  C303     1.0000 0.22525  0.58920  0.85490  Biso   1.000  C
  C304     1.0000 0.21510  0.55970  0.87340  Biso   1.000  C
  H130     1.0000 0.21250  0.53850  0.86190  Biso   1.000  H
  C305     1.0000 0.20890  0.56180  0.90900  Biso   1.000  C
  C306     1.0000 0.21283  0.59350  0.92620  Biso   1.000  C
  H131     1.0000 0.20870  0.59500  0.95000  Biso   1.000  H
  C307     1.0000 0.19820  0.53139  0.92930  Biso   1.000  C
  C308     1.0000 0.17610  0.53143  0.95800  Biso   1.000  C
  H132     1.0000 0.16870  0.55250  0.96760  Biso   1.000  H
  Sm12     1.0000 0.74333  0.24307  0.41110  Biso   1.000  Sm
  O100     1.0000 0.71930  0.15760  0.46154  Biso   1.000  O
  O101     1.0000 0.73780  0.18151  0.41271  Biso   1.000  O
  O102     1.0000 0.73898  0.11743  0.30018  Biso   1.000  O
  O103     1.0000 0.73280  0.06101  0.30010  Biso   1.000  O
  O104     1.0000 0.75120  0.29950  0.43893  Biso   1.000  O
  O105     1.0000 0.74350  0.29975  0.38317  Biso   1.000  O
  O106     1.0000 0.75522  0.41261  0.31793  Biso   1.000  O
  O107     1.0000 0.79620  0.44630  0.33940  Biso   1.000  O
  O108     1.0000 0.73015  0.23237  0.47169  Biso   1.000  O
  C309     1.0000 0.72634  0.15610  0.42929  Biso   1.000  C
  C310     1.0000 0.72010  0.12360  0.40810  Biso   1.000  C
  C311     1.0000 0.73000  0.12360  0.37330  Biso   1.000  C
  H133     1.0000 0.74010  0.14340  0.36350  Biso   1.000  H
  C312     1.0000 0.72470  0.09410  0.35290  Biso   1.000  C
  C313     1.0000 0.70960  0.06460  0.36750  Biso   1.000  C
  H134     1.0000 0.70600  0.04480  0.35390  Biso   1.000  H
  C314     1.0000 0.69970  0.06460  0.40230  Biso   1.000  C
  C315     1.0000 0.70500  0.09410  0.42270  Biso   1.000  C
  H135     1.0000 0.69840  0.09410  0.44600  Biso   1.000  H
  C316     1.0000 0.73271  0.08930  0.31581  Biso   1.000  C
  C317     1.0000 0.68360  0.03140  0.41430  Biso   1.000  C
  C318     1.0000 0.65590  0.03143  0.43800  Biso   1.000  C
  H136     1.0000 0.64680  0.05250  0.44590  Biso   1.000  H
  C319     1.0000 0.75104  0.31526  0.41054  Biso   1.000  C
  C320     1.0000 0.76000  0.35315  0.40879  Biso   1.000  C
  C321     1.0000 0.75940  0.37209  0.37790  Biso   1.000  C
  H137     1.0000 0.74970  0.36240  0.35790  Biso   1.000  H
  C322     1.0000 0.77320  0.40558  0.37687  Biso   1.000  C
  C323     1.0000 0.78770  0.42013  0.40674  Biso   1.000  C
  H138     1.0000 0.79690  0.44250  0.40610  Biso   1.000  H
  C324     1.0000 0.78830  0.40120  0.43763  Biso   1.000  C
  C325     1.0000 0.77450  0.36770  0.43866  Biso   1.000  C
  H139     1.0000 0.77500  0.35500  0.45930  Biso   1.000  H
  C326     1.0000 0.77460  0.42253  0.34190  Biso   1.000  C
  C327     1.0000 0.80290  0.41830  0.46877  Biso   1.000  C
  C328     1.0000 0.82940  0.44310  0.46847  Biso   1.000  C
  H140     1.0000 0.83820  0.45130  0.44740  Biso   1.000  H
  C329     1.0000 0.72294  0.12300  0.40770  Biso   1.000  C
  C330     1.0000 0.72915  0.12080  0.37210  Biso   1.000  C
  H141     1.0000 0.73590  0.14060  0.35970  Biso   1.000  H
  C331     1.0000 0.72525  0.08920  0.35490  Biso   1.000  C
  C332     1.0000 0.71510  0.05970  0.37340  Biso   1.000  C
  H142     1.0000 0.71250  0.03850  0.36190  Biso   1.000  H
  C333     1.0000 0.70890  0.06180  0.40900  Biso   1.000  C
  C334     1.0000 0.71283  0.09350  0.42620  Biso   1.000  C
  H143     1.0000 0.70870  0.09500  0.45000  Biso   1.000  H
  C335     1.0000 0.69820  0.03139  0.42930  Biso   1.000  C
  C336     1.0000 0.67610  0.03143  0.45800  Biso   1.000  C
  H144     1.0000 0.66870  0.05250  0.46760  Biso   1.000  H
  Sm13     1.0000 0.75667  0.74307  0.08890  Biso   1.000  Sm
  O109     1.0000 0.78070  0.65760  0.03846  Biso   1.000  O
  O110     1.0000 0.76220  0.68151  0.08729  Biso   1.000  O
  O111     1.0000 0.76102  0.61743  0.19982  Biso   1.000  O
  O112     1.0000 0.76720  0.56101  0.19990  Biso   1.000  O
  O113     1.0000 0.74880  0.79950  0.06107  Biso   1.000  O
  O114     1.0000 0.75650  0.79975  0.11683  Biso   1.000  O
  O115     1.0000 0.74478  0.91261  0.18207  Biso   1.000  O
  O116     1.0000 0.70380  0.94630  0.16060  Biso   1.000  O
  O117     1.0000 0.76985  0.73237  0.02831  Biso   1.000  O
  C337     1.0000 0.77366  0.65610  0.07071  Biso   1.000  C
  C338     1.0000 0.77990  0.62360  0.09190  Biso   1.000  C
  C339     1.0000 0.77000  0.62360  0.12670  Biso   1.000  C
  H145     1.0000 0.75990  0.64340  0.13650  Biso   1.000  H
  C340     1.0000 0.77530  0.59410  0.14710  Biso   1.000  C
  C341     1.0000 0.79040  0.56460  0.13250  Biso   1.000  C
  H146     1.0000 0.79400  0.54480  0.14610  Biso   1.000  H
  C342     1.0000 0.80030  0.56460  0.09770  Biso   1.000  C
  C343     1.0000 0.79500  0.59410  0.07730  Biso   1.000  C
  H147     1.0000 0.80160  0.59410  0.05400  Biso   1.000  H
  C344     1.0000 0.76729  0.58930  0.18419  Biso   1.000  C
  C345     1.0000 0.81640  0.53140  0.08570  Biso   1.000  C
  C346     1.0000 0.84410  0.53143  0.06200  Biso   1.000  C
  H148     1.0000 0.85320  0.55250  0.05410  Biso   1.000  H
  C347     1.0000 0.74896  0.81526  0.08946  Biso   1.000  C
  C348     1.0000 0.74000  0.85315  0.09121  Biso   1.000  C
  C349     1.0000 0.74060  0.87209  0.12210  Biso   1.000  C
  H149     1.0000 0.75030  0.86240  0.14210  Biso   1.000  H
  C350     1.0000 0.72680  0.90558  0.12313  Biso   1.000  C
  C351     1.0000 0.71230  0.92013  0.09326  Biso   1.000  C
  H150     1.0000 0.70310  0.94250  0.09390  Biso   1.000  H
  C352     1.0000 0.71170  0.90120  0.06237  Biso   1.000  C
  C353     1.0000 0.72550  0.86770  0.06134  Biso   1.000  C
  H151     1.0000 0.72500  0.85500  0.04070  Biso   1.000  H
  C354     1.0000 0.72540  0.92253  0.15810  Biso   1.000  C
  C355     1.0000 0.69710  0.91830  0.03123  Biso   1.000  C
  C356     1.0000 0.67060  0.94310  0.03153  Biso   1.000  C
  H152     1.0000 0.66180  0.95130  0.05260  Biso   1.000  H
  C357     1.0000 0.77706  0.62300  0.09230  Biso   1.000  C
  C358     1.0000 0.77085  0.62080  0.12790  Biso   1.000  C
  H153     1.0000 0.76410  0.64060  0.14030  Biso   1.000  H
  C359     1.0000 0.77475  0.58920  0.14510  Biso   1.000  C
  C360     1.0000 0.78490  0.55970  0.12660  Biso   1.000  C
  H154     1.0000 0.78750  0.53850  0.13810  Biso   1.000  H
  C361     1.0000 0.79110  0.56180  0.09100  Biso   1.000  C
  C362     1.0000 0.78717  0.59350  0.07380  Biso   1.000  C
  H155     1.0000 0.79130  0.59500  0.05000  Biso   1.000  H
  C363     1.0000 0.80180  0.53139  0.07070  Biso   1.000  C
  C364     1.0000 0.82390  0.53143  0.04200  Biso   1.000  C
  H156     1.0000 0.83130  0.55250  0.03240  Biso   1.000  H
  Sm14     1.0000 0.25667  0.24307  0.58890  Biso   1.000  Sm
  O118     1.0000 0.28070  0.15760  0.53846  Biso   1.000  O
  O119     1.0000 0.26220  0.18151  0.58729  Biso   1.000  O
  O120     1.0000 0.26102  0.11743  0.69982  Biso   1.000  O
  O121     1.0000 0.26720  0.06101  0.69990  Biso   1.000  O
  O122     1.0000 0.24880  0.29950  0.56107  Biso   1.000  O
  O123     1.0000 0.25650  0.29975  0.61683  Biso   1.000  O
  O124     1.0000 0.24478  0.41261  0.68207  Biso   1.000  O
  O125     1.0000 0.20380  0.44630  0.66060  Biso   1.000  O
  O126     1.0000 0.26985  0.23237  0.52831  Biso   1.000  O
  C365     1.0000 0.27366  0.15610  0.57071  Biso   1.000  C
  C366     1.0000 0.27990  0.12360  0.59190  Biso   1.000  C
  C367     1.0000 0.27000  0.12360  0.62670  Biso   1.000  C
  H157     1.0000 0.25990  0.14340  0.63650  Biso   1.000  H
  C368     1.0000 0.27530  0.09410  0.64710  Biso   1.000  C
  C369     1.0000 0.29040  0.06460  0.63250  Biso   1.000  C
  H158     1.0000 0.29400  0.04480  0.64610  Biso   1.000  H
  C370     1.0000 0.30030  0.06460  0.59770  Biso   1.000  C
  C371     1.0000 0.29500  0.09410  0.57730  Biso   1.000  C
  H159     1.0000 0.30160  0.09410  0.55400  Biso   1.000  H
  C372     1.0000 0.26729  0.08930  0.68419  Biso   1.000  C
  C373     1.0000 0.31640  0.03140  0.58570  Biso   1.000  C
  C374     1.0000 0.34410  0.03143  0.56200  Biso   1.000  C
  H160     1.0000 0.35320  0.05250  0.55410  Biso   1.000  H
  C375     1.0000 0.24896  0.31526  0.58946  Biso   1.000  C
  C376     1.0000 0.24000  0.35315  0.59121  Biso   1.000  C
  C377     1.0000 0.24060  0.37209  0.62210  Biso   1.000  C
  H161     1.0000 0.25030  0.36240  0.64210  Biso   1.000  H
  C378     1.0000 0.22680  0.40558  0.62313  Biso   1.000  C
  C379     1.0000 0.21230  0.42013  0.59326  Biso   1.000  C
  H162     1.0000 0.20310  0.44250  0.59390  Biso   1.000  H
  C380     1.0000 0.21170  0.40120  0.56237  Biso   1.000  C
  C381     1.0000 0.22550  0.36770  0.56134  Biso   1.000  C
  H163     1.0000 0.22500  0.35500  0.54070  Biso   1.000  H
  C382     1.0000 0.22540  0.42253  0.65810  Biso   1.000  C
  C383     1.0000 0.19710  0.41830  0.53123  Biso   1.000  C
  C384     1.0000 0.17060  0.44310  0.53153  Biso   1.000  C
  H164     1.0000 0.16180  0.45130  0.55260  Biso   1.000  H
  C385     1.0000 0.27706  0.12300  0.59230  Biso   1.000  C
  C386     1.0000 0.27085  0.12080  0.62790  Biso   1.000  C
  H165     1.0000 0.26410  0.14060  0.64030  Biso   1.000  H
  C387     1.0000 0.27475  0.08920  0.64510  Biso   1.000  C
  C388     1.0000 0.28490  0.05970  0.62660  Biso   1.000  C
  H166     1.0000 0.28750  0.03850  0.63810  Biso   1.000  H
  C389     1.0000 0.29110  0.06180  0.59100  Biso   1.000  C
  C390     1.0000 0.28717  0.09350  0.57380  Biso   1.000  C
  H167     1.0000 0.29130  0.09500  0.55000  Biso   1.000  H
  C391     1.0000 0.30180  0.03139  0.57070  Biso   1.000  C
  C392     1.0000 0.32390  0.03143  0.54200  Biso   1.000  C
  H168     1.0000 0.33130  0.05250  0.53240  Biso   1.000  H
  Sm15     1.0000 0.75667  0.25693  0.91110  Biso   1.000  Sm
  O127     1.0000 0.78070  0.34240  0.96154  Biso   1.000  O
  O128     1.0000 0.76220  0.31849  0.91271  Biso   1.000  O
  O129     1.0000 0.76102  0.38257  0.80018  Biso   1.000  O
  O130     1.0000 0.76720  0.43899  0.80010  Biso   1.000  O
  O131     1.0000 0.74880  0.20050  0.93893  Biso   1.000  O
  O132     1.0000 0.75650  0.20025  0.88317  Biso   1.000  O
  O133     1.0000 0.74478  0.08739  0.81793  Biso   1.000  O
  O134     1.0000 0.70380  0.05370  0.83940  Biso   1.000  O
  O135     1.0000 0.76985  0.26763  0.97169  Biso   1.000  O
  C393     1.0000 0.77366  0.34390  0.92929  Biso   1.000  C
  C394     1.0000 0.77990  0.37640  0.90810  Biso   1.000  C
  C395     1.0000 0.77000  0.37640  0.87330  Biso   1.000  C
  H169     1.0000 0.75990  0.35660  0.86350  Biso   1.000  H
  C396     1.0000 0.77530  0.40590  0.85290  Biso   1.000  C
  C397     1.0000 0.79040  0.43540  0.86750  Biso   1.000  C
  H170     1.0000 0.79400  0.45520  0.85390  Biso   1.000  H
  C398     1.0000 0.80030  0.43540  0.90230  Biso   1.000  C
  C399     1.0000 0.79500  0.40590  0.92270  Biso   1.000  C
  H171     1.0000 0.80160  0.40590  0.94600  Biso   1.000  H
  C400     1.0000 0.76729  0.41070  0.81581  Biso   1.000  C
  C401     1.0000 0.81640  0.46860  0.91430  Biso   1.000  C
  C402     1.0000 0.84410  0.46857  0.93800  Biso   1.000  C
  H172     1.0000 0.85320  0.44750  0.94590  Biso   1.000  H
  C403     1.0000 0.74896  0.18474  0.91054  Biso   1.000  C
  C404     1.0000 0.74000  0.14685  0.90879  Biso   1.000  C
  C405     1.0000 0.74060  0.12791  0.87790  Biso   1.000  C
  H173     1.0000 0.75030  0.13760  0.85790  Biso   1.000  H
  C406     1.0000 0.72680  0.09442  0.87687  Biso   1.000  C
  C407     1.0000 0.71230  0.07987  0.90674  Biso   1.000  C
  H174     1.0000 0.70310  0.05750  0.90610  Biso   1.000  H
  C408     1.0000 0.71170  0.09880  0.93763  Biso   1.000  C
  C409     1.0000 0.72550  0.13230  0.93866  Biso   1.000  C
  H175     1.0000 0.72500  0.14500  0.95930  Biso   1.000  H
  C410     1.0000 0.72540  0.07747  0.84190  Biso   1.000  C
  C411     1.0000 0.69710  0.08170  0.96877  Biso   1.000  C
  C412     1.0000 0.67060  0.05690  0.96847  Biso   1.000  C
  H176     1.0000 0.66180  0.04870  0.94740  Biso   1.000  H
  C413     1.0000 0.77706  0.37700  0.90770  Biso   1.000  C
  C414     1.0000 0.77085  0.37920  0.87210  Biso   1.000  C
  H177     1.0000 0.76410  0.35940  0.85970  Biso   1.000  H
  C415     1.0000 0.77475  0.41080  0.85490  Biso   1.000  C
  C416     1.0000 0.78490  0.44030  0.87340  Biso   1.000  C
  H178     1.0000 0.78750  0.46150  0.86190  Biso   1.000  H
  C417     1.0000 0.79110  0.43820  0.90900  Biso   1.000  C
  C418     1.0000 0.78717  0.40650  0.92620  Biso   1.000  C
  H179     1.0000 0.79130  0.40500  0.95000  Biso   1.000  H
  C419     1.0000 0.80180  0.46861  0.92930  Biso   1.000  C
  C420     1.0000 0.82390  0.46857  0.95800  Biso   1.000  C
  H180     1.0000 0.83130  0.44750  0.96760  Biso   1.000  H
  Sm16     1.0000 0.25667  0.75693  0.41110  Biso   1.000  Sm
  O136     1.0000 0.28070  0.84240  0.46154  Biso   1.000  O
  O137     1.0000 0.26220  0.81849  0.41271  Biso   1.000  O
  O138     1.0000 0.26102  0.88257  0.30018  Biso   1.000  O
  O139     1.0000 0.26720  0.93899  0.30010  Biso   1.000  O
  O140     1.0000 0.24880  0.70050  0.43893  Biso   1.000  O
  O141     1.0000 0.25650  0.70025  0.38317  Biso   1.000  O
  O142     1.0000 0.24478  0.58739  0.31793  Biso   1.000  O
  O143     1.0000 0.20380  0.55370  0.33940  Biso   1.000  O
  O144     1.0000 0.26985  0.76763  0.47169  Biso   1.000  O
  C421     1.0000 0.27366  0.84390  0.42929  Biso   1.000  C
  C422     1.0000 0.27990  0.87640  0.40810  Biso   1.000  C
  C423     1.0000 0.27000  0.87640  0.37330  Biso   1.000  C
  H181     1.0000 0.25990  0.85660  0.36350  Biso   1.000  H
  C424     1.0000 0.27530  0.90590  0.35290  Biso   1.000  C
  C425     1.0000 0.29040  0.93540  0.36750  Biso   1.000  C
  H182     1.0000 0.29400  0.95520  0.35390  Biso   1.000  H
  C426     1.0000 0.30030  0.93540  0.40230  Biso   1.000  C
  C427     1.0000 0.29500  0.90590  0.42270  Biso   1.000  C
  H183     1.0000 0.30160  0.90590  0.44600  Biso   1.000  H
  C428     1.0000 0.26729  0.91070  0.31581  Biso   1.000  C
  C429     1.0000 0.31640  0.96860  0.41430  Biso   1.000  C
  C430     1.0000 0.34410  0.96857  0.43800  Biso   1.000  C
  H184     1.0000 0.35320  0.94750  0.44590  Biso   1.000  H
  C431     1.0000 0.24896  0.68474  0.41054  Biso   1.000  C
  C432     1.0000 0.24000  0.64685  0.40879  Biso   1.000  C
  C433     1.0000 0.24060  0.62791  0.37790  Biso   1.000  C
  H185     1.0000 0.25030  0.63760  0.35790  Biso   1.000  H
  C434     1.0000 0.22680  0.59442  0.37687  Biso   1.000  C
  C435     1.0000 0.21230  0.57987  0.40674  Biso   1.000  C
  H186     1.0000 0.20310  0.55750  0.40610  Biso   1.000  H
  C436     1.0000 0.21170  0.59880  0.43763  Biso   1.000  C
  C437     1.0000 0.22550  0.63230  0.43866  Biso   1.000  C
  H187     1.0000 0.22500  0.64500  0.45930  Biso   1.000  H
  C438     1.0000 0.22540  0.57747  0.34190  Biso   1.000  C
  C439     1.0000 0.19710  0.58170  0.46877  Biso   1.000  C
  C440     1.0000 0.17060  0.55690  0.46847  Biso   1.000  C
  H188     1.0000 0.16180  0.54870  0.44740  Biso   1.000  H
  C441     1.0000 0.27706  0.87700  0.40770  Biso   1.000  C
  C442     1.0000 0.27085  0.87920  0.37210  Biso   1.000  C
  H189     1.0000 0.26410  0.85940  0.35970  Biso   1.000  H
  C443     1.0000 0.27475  0.91080  0.35490  Biso   1.000  C
  C444     1.0000 0.28490  0.94030  0.37340  Biso   1.000  C
  H190     1.0000 0.28750  0.96150  0.36190  Biso   1.000  H
  C445     1.0000 0.29110  0.93820  0.40900  Biso   1.000  C
  C446     1.0000 0.28717  0.90650  0.42620  Biso   1.000  C
  H191     1.0000 0.29130  0.90500  0.45000  Biso   1.000  H
  C447     1.0000 0.30180  0.96861  0.42930  Biso   1.000  C
  C448     1.0000 0.32390  0.96857  0.45800  Biso   1.000  C
  H192     1.0000 0.33130  0.94750  0.46760  Biso   1.000  H
  Sm17     1.0000 0.08890  0.24333  0.25693  Biso   1.000  Sm
  O145     1.0000 0.03846  0.21930  0.34240  Biso   1.000  O
  O146     1.0000 0.08729  0.23780  0.31849  Biso   1.000  O
  O147     1.0000 0.19982  0.23898  0.38257  Biso   1.000  O
  O148     1.0000 0.19990  0.23280  0.43899  Biso   1.000  O
  O149     1.0000 0.06107  0.25120  0.20050  Biso   1.000  O
  O150     1.0000 0.11683  0.24350  0.20025  Biso   1.000  O
  O151     1.0000 0.18207  0.25522  0.08739  Biso   1.000  O
  O152     1.0000 0.16060  0.29620  0.05370  Biso   1.000  O
  O153     1.0000 0.02831  0.23015  0.26763  Biso   1.000  O
  C449     1.0000 0.07071  0.22634  0.34390  Biso   1.000  C
  C450     1.0000 0.09190  0.22010  0.37640  Biso   1.000  C
  C451     1.0000 0.12670  0.23000  0.37640  Biso   1.000  C
  H193     1.0000 0.13650  0.24010  0.35660  Biso   1.000  H
  C452     1.0000 0.14710  0.22470  0.40590  Biso   1.000  C
  C453     1.0000 0.13250  0.20960  0.43540  Biso   1.000  C
  H194     1.0000 0.14610  0.20600  0.45520  Biso   1.000  H
  C454     1.0000 0.09770  0.19970  0.43540  Biso   1.000  C
  C455     1.0000 0.07730  0.20500  0.40590  Biso   1.000  C
  H195     1.0000 0.05400  0.19840  0.40590  Biso   1.000  H
  C456     1.0000 0.18419  0.23271  0.41070  Biso   1.000  C
  C457     1.0000 0.08570  0.18360  0.46860  Biso   1.000  C
  C458     1.0000 0.06200  0.15590  0.46857  Biso   1.000  C
  H196     1.0000 0.05410  0.14680  0.44750  Biso   1.000  H
  C459     1.0000 0.08946  0.25104  0.18474  Biso   1.000  C
  C460     1.0000 0.09121  0.26000  0.14685  Biso   1.000  C
  C461     1.0000 0.12210  0.25940  0.12791  Biso   1.000  C
  H197     1.0000 0.14210  0.24970  0.13760  Biso   1.000  H
  C462     1.0000 0.12313  0.27320  0.09442  Biso   1.000  C
  C463     1.0000 0.09326  0.28770  0.07987  Biso   1.000  C
  H198     1.0000 0.09390  0.29690  0.05750  Biso   1.000  H
  C464     1.0000 0.06237  0.28830  0.09880  Biso   1.000  C
  C465     1.0000 0.06134  0.27450  0.13230  Biso   1.000  C
  H199     1.0000 0.04070  0.27500  0.14500  Biso   1.000  H
  C466     1.0000 0.15810  0.27460  0.07747  Biso   1.000  C
  C467     1.0000 0.03123  0.30290  0.08170  Biso   1.000  C
  C468     1.0000 0.03153  0.32940  0.05690  Biso   1.000  C
  H200     1.0000 0.05260  0.33820  0.04870  Biso   1.000  H
  C469     1.0000 0.09230  0.22294  0.37700  Biso   1.000  C
  C470     1.0000 0.12790  0.22915  0.37920  Biso   1.000  C
  H201     1.0000 0.14030  0.23590  0.35940  Biso   1.000  H
  C471     1.0000 0.14510  0.22525  0.41080  Biso   1.000  C
  C472     1.0000 0.12660  0.21510  0.44030  Biso   1.000  C
  H202     1.0000 0.13810  0.21250  0.46150  Biso   1.000  H
  C473     1.0000 0.09100  0.20890  0.43820  Biso   1.000  C
  C474     1.0000 0.07380  0.21283  0.40650  Biso   1.000  C
  H203     1.0000 0.05000  0.20870  0.40500  Biso   1.000  H
  C475     1.0000 0.07070  0.19820  0.46861  Biso   1.000  C
  C476     1.0000 0.04200  0.17610  0.46857  Biso   1.000  C
  H204     1.0000 0.03240  0.16870  0.44750  Biso   1.000  H
  Sm18     1.0000 0.58890  0.74333  0.75693  Biso   1.000  Sm
  O154     1.0000 0.53846  0.71930  0.84240  Biso   1.000  O
  O155     1.0000 0.58729  0.73780  0.81849  Biso   1.000  O
  O156     1.0000 0.69982  0.73898  0.88257  Biso   1.000  O
  O157     1.0000 0.69990  0.73280  0.93899  Biso   1.000  O
  O158     1.0000 0.56107  0.75120  0.70050  Biso   1.000  O
  O159     1.0000 0.61683  0.74350  0.70025  Biso   1.000  O
  O160     1.0000 0.68207  0.75522  0.58739  Biso   1.000  O
  O161     1.0000 0.66060  0.79620  0.55370  Biso   1.000  O
  O162     1.0000 0.52831  0.73015  0.76763  Biso   1.000  O
  C477     1.0000 0.57071  0.72634  0.84390  Biso   1.000  C
  C478     1.0000 0.59190  0.72010  0.87640  Biso   1.000  C
  C479     1.0000 0.62670  0.73000  0.87640  Biso   1.000  C
  H205     1.0000 0.63650  0.74010  0.85660  Biso   1.000  H
  C480     1.0000 0.64710  0.72470  0.90590  Biso   1.000  C
  C481     1.0000 0.63250  0.70960  0.93540  Biso   1.000  C
  H206     1.0000 0.64610  0.70600  0.95520  Biso   1.000  H
  C482     1.0000 0.59770  0.69970  0.93540  Biso   1.000  C
  C483     1.0000 0.57730  0.70500  0.90590  Biso   1.000  C
  H207     1.0000 0.55400  0.69840  0.90590  Biso   1.000  H
  C484     1.0000 0.68419  0.73271  0.91070  Biso   1.000  C
  C485     1.0000 0.58570  0.68360  0.96860  Biso   1.000  C
  C486     1.0000 0.56200  0.65590  0.96857  Biso   1.000  C
  H208     1.0000 0.55410  0.64680  0.94750  Biso   1.000  H
  C487     1.0000 0.58946  0.75104  0.68474  Biso   1.000  C
  C488     1.0000 0.59121  0.76000  0.64685  Biso   1.000  C
  C489     1.0000 0.62210  0.75940  0.62791  Biso   1.000  C
  H209     1.0000 0.64210  0.74970  0.63760  Biso   1.000  H
  C490     1.0000 0.62313  0.77320  0.59442  Biso   1.000  C
  C491     1.0000 0.59326  0.78770  0.57987  Biso   1.000  C
  H210     1.0000 0.59390  0.79690  0.55750  Biso   1.000  H
  C492     1.0000 0.56237  0.78830  0.59880  Biso   1.000  C
  C493     1.0000 0.56134  0.77450  0.63230  Biso   1.000  C
  H211     1.0000 0.54070  0.77500  0.64500  Biso   1.000  H
  C494     1.0000 0.65810  0.77460  0.57747  Biso   1.000  C
  C495     1.0000 0.53123  0.80290  0.58170  Biso   1.000  C
  C496     1.0000 0.53153  0.82940  0.55690  Biso   1.000  C
  H212     1.0000 0.55260  0.83820  0.54870  Biso   1.000  H
  C497     1.0000 0.59230  0.72294  0.87700  Biso   1.000  C
  C498     1.0000 0.62790  0.72915  0.87920  Biso   1.000  C
  H213     1.0000 0.64030  0.73590  0.85940  Biso   1.000  H
  C499     1.0000 0.64510  0.72525  0.91080  Biso   1.000  C
  C500     1.0000 0.62660  0.71510  0.94030  Biso   1.000  C
  H214     1.0000 0.63810  0.71250  0.96150  Biso   1.000  H
  C501     1.0000 0.59100  0.70890  0.93820  Biso   1.000  C
  C502     1.0000 0.57380  0.71283  0.90650  Biso   1.000  C
  H215     1.0000 0.55000  0.70870  0.90500  Biso   1.000  H
  C503     1.0000 0.57070  0.69820  0.96861  Biso   1.000  C
  C504     1.0000 0.54200  0.67610  0.96857  Biso   1.000  C
  H216     1.0000 0.53240  0.66870  0.94750  Biso   1.000  H
  Sm19     1.0000 0.91110  0.24333  0.74307  Biso   1.000  Sm
  O163     1.0000 0.96154  0.21930  0.65760  Biso   1.000  O
  O164     1.0000 0.91271  0.23780  0.68151  Biso   1.000  O
  O165     1.0000 0.80018  0.23898  0.61743  Biso   1.000  O
  O166     1.0000 0.80010  0.23280  0.56101  Biso   1.000  O
  O167     1.0000 0.93893  0.25120  0.79950  Biso   1.000  O
  O168     1.0000 0.88317  0.24350  0.79975  Biso   1.000  O
  O169     1.0000 0.81793  0.25522  0.91261  Biso   1.000  O
  O170     1.0000 0.83940  0.29620  0.94630  Biso   1.000  O
  O171     1.0000 0.97169  0.23015  0.73237  Biso   1.000  O
  C505     1.0000 0.92929  0.22634  0.65610  Biso   1.000  C
  C506     1.0000 0.90810  0.22010  0.62360  Biso   1.000  C
  C507     1.0000 0.87330  0.23000  0.62360  Biso   1.000  C
  H217     1.0000 0.86350  0.24010  0.64340  Biso   1.000  H
  C508     1.0000 0.85290  0.22470  0.59410  Biso   1.000  C
  C509     1.0000 0.86750  0.20960  0.56460  Biso   1.000  C
  H218     1.0000 0.85390  0.20600  0.54480  Biso   1.000  H
  C510     1.0000 0.90230  0.19970  0.56460  Biso   1.000  C
  C511     1.0000 0.92270  0.20500  0.59410  Biso   1.000  C
  H219     1.0000 0.94600  0.19840  0.59410  Biso   1.000  H
  C512     1.0000 0.81581  0.23271  0.58930  Biso   1.000  C
  C513     1.0000 0.91430  0.18360  0.53140  Biso   1.000  C
  C514     1.0000 0.93800  0.15590  0.53143  Biso   1.000  C
  H220     1.0000 0.94590  0.14680  0.55250  Biso   1.000  H
  C515     1.0000 0.91054  0.25104  0.81526  Biso   1.000  C
  C516     1.0000 0.90879  0.26000  0.85315  Biso   1.000  C
  C517     1.0000 0.87790  0.25940  0.87209  Biso   1.000  C
  H221     1.0000 0.85790  0.24970  0.86240  Biso   1.000  H
  C518     1.0000 0.87687  0.27320  0.90558  Biso   1.000  C
  C519     1.0000 0.90674  0.28770  0.92013  Biso   1.000  C
  H222     1.0000 0.90610  0.29690  0.94250  Biso   1.000  H
  C520     1.0000 0.93763  0.28830  0.90120  Biso   1.000  C
  C521     1.0000 0.93866  0.27450  0.86770  Biso   1.000  C
  H223     1.0000 0.95930  0.27500  0.85500  Biso   1.000  H
  C522     1.0000 0.84190  0.27460  0.92253  Biso   1.000  C
  C523     1.0000 0.96877  0.30290  0.91830  Biso   1.000  C
  C524     1.0000 0.96847  0.32940  0.94310  Biso   1.000  C
  H224     1.0000 0.94740  0.33820  0.95130  Biso   1.000  H
  C525     1.0000 0.90770  0.22294  0.62300  Biso   1.000  C
  C526     1.0000 0.87210  0.22915  0.62080  Biso   1.000  C
  H225     1.0000 0.85970  0.23590  0.64060  Biso   1.000  H
  C527     1.0000 0.85490  0.22525  0.58920  Biso   1.000  C
  C528     1.0000 0.87340  0.21510  0.55970  Biso   1.000  C
  H226     1.0000 0.86190  0.21250  0.53850  Biso   1.000  H
  C529     1.0000 0.90900  0.20890  0.56180  Biso   1.000  C
  C530     1.0000 0.92620  0.21283  0.59350  Biso   1.000  C
  H227     1.0000 0.95000  0.20870  0.59500  Biso   1.000  H
  C531     1.0000 0.92930  0.19820  0.53139  Biso   1.000  C
  C532     1.0000 0.95800  0.17610  0.53143  Biso   1.000  C
  H228     1.0000 0.96760  0.16870  0.55250  Biso   1.000  H
  Sm20     1.0000 0.41110  0.74333  0.24307  Biso   1.000  Sm
  O172     1.0000 0.46154  0.71930  0.15760  Biso   1.000  O
  O173     1.0000 0.41271  0.73780  0.18151  Biso   1.000  O
  O174     1.0000 0.30018  0.73898  0.11743  Biso   1.000  O
  O175     1.0000 0.30010  0.73280  0.06101  Biso   1.000  O
  O176     1.0000 0.43893  0.75120  0.29950  Biso   1.000  O
  O177     1.0000 0.38317  0.74350  0.29975  Biso   1.000  O
  O178     1.0000 0.31793  0.75522  0.41261  Biso   1.000  O
  O179     1.0000 0.33940  0.79620  0.44630  Biso   1.000  O
  O180     1.0000 0.47169  0.73015  0.23237  Biso   1.000  O
  C533     1.0000 0.42929  0.72634  0.15610  Biso   1.000  C
  C534     1.0000 0.40810  0.72010  0.12360  Biso   1.000  C
  C535     1.0000 0.37330  0.73000  0.12360  Biso   1.000  C
  H229     1.0000 0.36350  0.74010  0.14340  Biso   1.000  H
  C536     1.0000 0.35290  0.72470  0.09410  Biso   1.000  C
  C537     1.0000 0.36750  0.70960  0.06460  Biso   1.000  C
  H230     1.0000 0.35390  0.70600  0.04480  Biso   1.000  H
  C538     1.0000 0.40230  0.69970  0.06460  Biso   1.000  C
  C539     1.0000 0.42270  0.70500  0.09410  Biso   1.000  C
  H231     1.0000 0.44600  0.69840  0.09410  Biso   1.000  H
  C540     1.0000 0.31581  0.73271  0.08930  Biso   1.000  C
  C541     1.0000 0.41430  0.68360  0.03140  Biso   1.000  C
  C542     1.0000 0.43800  0.65590  0.03143  Biso   1.000  C
  H232     1.0000 0.44590  0.64680  0.05250  Biso   1.000  H
  C543     1.0000 0.41054  0.75104  0.31526  Biso   1.000  C
  C544     1.0000 0.40879  0.76000  0.35315  Biso   1.000  C
  C545     1.0000 0.37790  0.75940  0.37209  Biso   1.000  C
  H233     1.0000 0.35790  0.74970  0.36240  Biso   1.000  H
  C546     1.0000 0.37687  0.77320  0.40558  Biso   1.000  C
  C547     1.0000 0.40674  0.78770  0.42013  Biso   1.000  C
  H234     1.0000 0.40610  0.79690  0.44250  Biso   1.000  H
  C548     1.0000 0.43763  0.78830  0.40120  Biso   1.000  C
  C549     1.0000 0.43866  0.77450  0.36770  Biso   1.000  C
  H235     1.0000 0.45930  0.77500  0.35500  Biso   1.000  H
  C550     1.0000 0.34190  0.77460  0.42253  Biso   1.000  C
  C551     1.0000 0.46877  0.80290  0.41830  Biso   1.000  C
  C552     1.0000 0.46847  0.82940  0.44310  Biso   1.000  C
  H236     1.0000 0.44740  0.83820  0.45130  Biso   1.000  H
  C553     1.0000 0.40770  0.72294  0.12300  Biso   1.000  C
  C554     1.0000 0.37210  0.72915  0.12080  Biso   1.000  C
  H237     1.0000 0.35970  0.73590  0.14060  Biso   1.000  H
  C555     1.0000 0.35490  0.72525  0.08920  Biso   1.000  C
  C556     1.0000 0.37340  0.71510  0.05970  Biso   1.000  C
  H238     1.0000 0.36190  0.71250  0.03850  Biso   1.000  H
  C557     1.0000 0.40900  0.70890  0.06180  Biso   1.000  C
  C558     1.0000 0.42620  0.71283  0.09350  Biso   1.000  C
  H239     1.0000 0.45000  0.70870  0.09500  Biso   1.000  H
  C559     1.0000 0.42930  0.69820  0.03139  Biso   1.000  C
  C560     1.0000 0.45800  0.67610  0.03143  Biso   1.000  C
  H240     1.0000 0.46760  0.66870  0.05250  Biso   1.000  H
  Sm21     1.0000 0.08890  0.75667  0.74307  Biso   1.000  Sm
  O181     1.0000 0.03846  0.78070  0.65760  Biso   1.000  O
  O182     1.0000 0.08729  0.76220  0.68151  Biso   1.000  O
  O183     1.0000 0.19982  0.76102  0.61743  Biso   1.000  O
  O184     1.0000 0.19990  0.76720  0.56101  Biso   1.000  O
  O185     1.0000 0.06107  0.74880  0.79950  Biso   1.000  O
  O186     1.0000 0.11683  0.75650  0.79975  Biso   1.000  O
  O187     1.0000 0.18207  0.74478  0.91261  Biso   1.000  O
  O188     1.0000 0.16060  0.70380  0.94630  Biso   1.000  O
  O189     1.0000 0.02831  0.76985  0.73237  Biso   1.000  O
  C561     1.0000 0.07071  0.77366  0.65610  Biso   1.000  C
  C562     1.0000 0.09190  0.77990  0.62360  Biso   1.000  C
  C563     1.0000 0.12670  0.77000  0.62360  Biso   1.000  C
  H241     1.0000 0.13650  0.75990  0.64340  Biso   1.000  H
  C564     1.0000 0.14710  0.77530  0.59410  Biso   1.000  C
  C565     1.0000 0.13250  0.79040  0.56460  Biso   1.000  C
  H242     1.0000 0.14610  0.79400  0.54480  Biso   1.000  H
  C566     1.0000 0.09770  0.80030  0.56460  Biso   1.000  C
  C567     1.0000 0.07730  0.79500  0.59410  Biso   1.000  C
  H243     1.0000 0.05400  0.80160  0.59410  Biso   1.000  H
  C568     1.0000 0.18419  0.76729  0.58930  Biso   1.000  C
  C569     1.0000 0.08570  0.81640  0.53140  Biso   1.000  C
  C570     1.0000 0.06200  0.84410  0.53143  Biso   1.000  C
  H244     1.0000 0.05410  0.85320  0.55250  Biso   1.000  H
  C571     1.0000 0.08946  0.74896  0.81526  Biso   1.000  C
  C572     1.0000 0.09121  0.74000  0.85315  Biso   1.000  C
  C573     1.0000 0.12210  0.74060  0.87209  Biso   1.000  C
  H245     1.0000 0.14210  0.75030  0.86240  Biso   1.000  H
  C574     1.0000 0.12313  0.72680  0.90558  Biso   1.000  C
  C575     1.0000 0.09326  0.71230  0.92013  Biso   1.000  C
  H246     1.0000 0.09390  0.70310  0.94250  Biso   1.000  H
  C576     1.0000 0.06237  0.71170  0.90120  Biso   1.000  C
  C577     1.0000 0.06134  0.72550  0.86770  Biso   1.000  C
  H247     1.0000 0.04070  0.72500  0.85500  Biso   1.000  H
  C578     1.0000 0.15810  0.72540  0.92253  Biso   1.000  C
  C579     1.0000 0.03123  0.69710  0.91830  Biso   1.000  C
  C580     1.0000 0.03153  0.67060  0.94310  Biso   1.000  C
  H248     1.0000 0.05260  0.66180  0.95130  Biso   1.000  H
  C581     1.0000 0.09230  0.77706  0.62300  Biso   1.000  C
  C582     1.0000 0.12790  0.77085  0.62080  Biso   1.000  C
  H249     1.0000 0.14030  0.76410  0.64060  Biso   1.000  H
  C583     1.0000 0.14510  0.77475  0.58920  Biso   1.000  C
  C584     1.0000 0.12660  0.78490  0.55970  Biso   1.000  C
  H250     1.0000 0.13810  0.78750  0.53850  Biso   1.000  H
  C585     1.0000 0.09100  0.79110  0.56180  Biso   1.000  C
  C586     1.0000 0.07380  0.78717  0.59350  Biso   1.000  C
  H251     1.0000 0.05000  0.79130  0.59500  Biso   1.000  H
  C587     1.0000 0.07070  0.80180  0.53139  Biso   1.000  C
  C588     1.0000 0.04200  0.82390  0.53143  Biso   1.000  C
  H252     1.0000 0.03240  0.83130  0.55250  Biso   1.000  H
  Sm22     1.0000 0.58890  0.25667  0.24307  Biso   1.000  Sm
  O190     1.0000 0.53846  0.28070  0.15760  Biso   1.000  O
  O191     1.0000 0.58729  0.26220  0.18151  Biso   1.000  O
  O192     1.0000 0.69982  0.26102  0.11743  Biso   1.000  O
  O193     1.0000 0.69990  0.26720  0.06101  Biso   1.000  O
  O194     1.0000 0.56107  0.24880  0.29950  Biso   1.000  O
  O195     1.0000 0.61683  0.25650  0.29975  Biso   1.000  O
  O196     1.0000 0.68207  0.24478  0.41261  Biso   1.000  O
  O197     1.0000 0.66060  0.20380  0.44630  Biso   1.000  O
  O198     1.0000 0.52831  0.26985  0.23237  Biso   1.000  O
  C589     1.0000 0.57071  0.27366  0.15610  Biso   1.000  C
  C590     1.0000 0.59190  0.27990  0.12360  Biso   1.000  C
  C591     1.0000 0.62670  0.27000  0.12360  Biso   1.000  C
  H253     1.0000 0.63650  0.25990  0.14340  Biso   1.000  H
  C592     1.0000 0.64710  0.27530  0.09410  Biso   1.000  C
  C593     1.0000 0.63250  0.29040  0.06460  Biso   1.000  C
  H254     1.0000 0.64610  0.29400  0.04480  Biso   1.000  H
  C594     1.0000 0.59770  0.30030  0.06460  Biso   1.000  C
  C595     1.0000 0.57730  0.29500  0.09410  Biso   1.000  C
  H255     1.0000 0.55400  0.30160  0.09410  Biso   1.000  H
  C596     1.0000 0.68419  0.26729  0.08930  Biso   1.000  C
  C597     1.0000 0.58570  0.31640  0.03140  Biso   1.000  C
  C598     1.0000 0.56200  0.34410  0.03143  Biso   1.000  C
  H256     1.0000 0.55410  0.35320  0.05250  Biso   1.000  H
  C599     1.0000 0.58946  0.24896  0.31526  Biso   1.000  C
  C600     1.0000 0.59121  0.24000  0.35315  Biso   1.000  C
  C601     1.0000 0.62210  0.24060  0.37209  Biso   1.000  C
  H257     1.0000 0.64210  0.25030  0.36240  Biso   1.000  H
  C602     1.0000 0.62313  0.22680  0.40558  Biso   1.000  C
  C603     1.0000 0.59326  0.21230  0.42013  Biso   1.000  C
  H258     1.0000 0.59390  0.20310  0.44250  Biso   1.000  H
  C604     1.0000 0.56237  0.21170  0.40120  Biso   1.000  C
  C605     1.0000 0.56134  0.22550  0.36770  Biso   1.000  C
  H259     1.0000 0.54070  0.22500  0.35500  Biso   1.000  H
  C606     1.0000 0.65810  0.22540  0.42253  Biso   1.000  C
  C607     1.0000 0.53123  0.19710  0.41830  Biso   1.000  C
  C608     1.0000 0.53153  0.17060  0.44310  Biso   1.000  C
  H260     1.0000 0.55260  0.16180  0.45130  Biso   1.000  H
  C609     1.0000 0.59230  0.27706  0.12300  Biso   1.000  C
  C610     1.0000 0.62790  0.27085  0.12080  Biso   1.000  C
  H261     1.0000 0.64030  0.26410  0.14060  Biso   1.000  H
  C611     1.0000 0.64510  0.27475  0.08920  Biso   1.000  C
  C612     1.0000 0.62660  0.28490  0.05970  Biso   1.000  C
  H262     1.0000 0.63810  0.28750  0.03850  Biso   1.000  H
  C613     1.0000 0.59100  0.29110  0.06180  Biso   1.000  C
  C614     1.0000 0.57380  0.28717  0.09350  Biso   1.000  C
  H263     1.0000 0.55000  0.29130  0.09500  Biso   1.000  H
  C615     1.0000 0.57070  0.30180  0.03139  Biso   1.000  C
  C616     1.0000 0.54200  0.32390  0.03143  Biso   1.000  C
  H264     1.0000 0.53240  0.33130  0.05250  Biso   1.000  H
  Sm23     1.0000 0.91110  0.75667  0.25693  Biso   1.000  Sm
  O199     1.0000 0.96154  0.78070  0.34240  Biso   1.000  O
  O200     1.0000 0.91271  0.76220  0.31849  Biso   1.000  O
  O201     1.0000 0.80018  0.76102  0.38257  Biso   1.000  O
  O202     1.0000 0.80010  0.76720  0.43899  Biso   1.000  O
  O203     1.0000 0.93893  0.74880  0.20050  Biso   1.000  O
  O204     1.0000 0.88317  0.75650  0.20025  Biso   1.000  O
  O205     1.0000 0.81793  0.74478  0.08739  Biso   1.000  O
  O206     1.0000 0.83940  0.70380  0.05370  Biso   1.000  O
  O207     1.0000 0.97169  0.76985  0.26763  Biso   1.000  O
  C617     1.0000 0.92929  0.77366  0.34390  Biso   1.000  C
  C618     1.0000 0.90810  0.77990  0.37640  Biso   1.000  C
  C619     1.0000 0.87330  0.77000  0.37640  Biso   1.000  C
  H265     1.0000 0.86350  0.75990  0.35660  Biso   1.000  H
  C620     1.0000 0.85290  0.77530  0.40590  Biso   1.000  C
  C621     1.0000 0.86750  0.79040  0.43540  Biso   1.000  C
  H266     1.0000 0.85390  0.79400  0.45520  Biso   1.000  H
  C622     1.0000 0.90230  0.80030  0.43540  Biso   1.000  C
  C623     1.0000 0.92270  0.79500  0.40590  Biso   1.000  C
  H267     1.0000 0.94600  0.80160  0.40590  Biso   1.000  H
  C624     1.0000 0.81581  0.76729  0.41070  Biso   1.000  C
  C625     1.0000 0.91430  0.81640  0.46860  Biso   1.000  C
  C626     1.0000 0.93800  0.84410  0.46857  Biso   1.000  C
  H268     1.0000 0.94590  0.85320  0.44750  Biso   1.000  H
  C627     1.0000 0.91054  0.74896  0.18474  Biso   1.000  C
  C628     1.0000 0.90879  0.74000  0.14685  Biso   1.000  C
  C629     1.0000 0.87790  0.74060  0.12791  Biso   1.000  C
  H269     1.0000 0.85790  0.75030  0.13760  Biso   1.000  H
  C630     1.0000 0.87687  0.72680  0.09442  Biso   1.000  C
  C631     1.0000 0.90674  0.71230  0.07987  Biso   1.000  C
  H270     1.0000 0.90610  0.70310  0.05750  Biso   1.000  H
  C632     1.0000 0.93763  0.71170  0.09880  Biso   1.000  C
  C633     1.0000 0.93866  0.72550  0.13230  Biso   1.000  C
  H271     1.0000 0.95930  0.72500  0.14500  Biso   1.000  H
  C634     1.0000 0.84190  0.72540  0.07747  Biso   1.000  C
  C635     1.0000 0.96877  0.69710  0.08170  Biso   1.000  C
  C636     1.0000 0.96847  0.67060  0.05690  Biso   1.000  C
  H272     1.0000 0.94740  0.66180  0.04870  Biso   1.000  H
  C637     1.0000 0.90770  0.77706  0.37700  Biso   1.000  C
  C638     1.0000 0.87210  0.77085  0.37920  Biso   1.000  C
  H273     1.0000 0.85970  0.76410  0.35940  Biso   1.000  H
  C639     1.0000 0.85490  0.77475  0.41080  Biso   1.000  C
  C640     1.0000 0.87340  0.78490  0.44030  Biso   1.000  C
  H274     1.0000 0.86190  0.78750  0.46150  Biso   1.000  H
  C641     1.0000 0.90900  0.79110  0.43820  Biso   1.000  C
  C642     1.0000 0.92620  0.78717  0.40650  Biso   1.000  C
  H275     1.0000 0.95000  0.79130  0.40500  Biso   1.000  H
  C643     1.0000 0.92930  0.80180  0.46861  Biso   1.000  C
  C644     1.0000 0.95800  0.82390  0.46857  Biso   1.000  C
  H276     1.0000 0.96760  0.83130  0.44750  Biso   1.000  H
  Sm24     1.0000 0.41110  0.25667  0.75693  Biso   1.000  Sm
  O208     1.0000 0.46154  0.28070  0.84240  Biso   1.000  O
  O209     1.0000 0.41271  0.26220  0.81849  Biso   1.000  O
  O210     1.0000 0.30018  0.26102  0.88257  Biso   1.000  O
  O211     1.0000 0.30010  0.26720  0.93899  Biso   1.000  O
  O212     1.0000 0.43893  0.24880  0.70050  Biso   1.000  O
  O213     1.0000 0.38317  0.25650  0.70025  Biso   1.000  O
  O214     1.0000 0.31793  0.24478  0.58739  Biso   1.000  O
  O215     1.0000 0.33940  0.20380  0.55370  Biso   1.000  O
  O216     1.0000 0.47169  0.26985  0.76763  Biso   1.000  O
  C645     1.0000 0.42929  0.27366  0.84390  Biso   1.000  C
  C646     1.0000 0.40810  0.27990  0.87640  Biso   1.000  C
  C647     1.0000 0.37330  0.27000  0.87640  Biso   1.000  C
  H277     1.0000 0.36350  0.25990  0.85660  Biso   1.000  H
  C648     1.0000 0.35290  0.27530  0.90590  Biso   1.000  C
  C649     1.0000 0.36750  0.29040  0.93540  Biso   1.000  C
  H278     1.0000 0.35390  0.29400  0.95520  Biso   1.000  H
  C650     1.0000 0.40230  0.30030  0.93540  Biso   1.000  C
  C651     1.0000 0.42270  0.29500  0.90590  Biso   1.000  C
  H279     1.0000 0.44600  0.30160  0.90590  Biso   1.000  H
  C652     1.0000 0.31581  0.26729  0.91070  Biso   1.000  C
  C653     1.0000 0.41430  0.31640  0.96860  Biso   1.000  C
  C654     1.0000 0.43800  0.34410  0.96857  Biso   1.000  C
  H280     1.0000 0.44590  0.35320  0.94750  Biso   1.000  H
  C655     1.0000 0.41054  0.24896  0.68474  Biso   1.000  C
  C656     1.0000 0.40879  0.24000  0.64685  Biso   1.000  C
  C657     1.0000 0.37790  0.24060  0.62791  Biso   1.000  C
  H281     1.0000 0.35790  0.25030  0.63760  Biso   1.000  H
  C658     1.0000 0.37687  0.22680  0.59442  Biso   1.000  C
  C659     1.0000 0.40674  0.21230  0.57987  Biso   1.000  C
  H282     1.0000 0.40610  0.20310  0.55750  Biso   1.000  H
  C660     1.0000 0.43763  0.21170  0.59880  Biso   1.000  C
  C661     1.0000 0.43866  0.22550  0.63230  Biso   1.000  C
  H283     1.0000 0.45930  0.22500  0.64500  Biso   1.000  H
  C662     1.0000 0.34190  0.22540  0.57747  Biso   1.000  C
  C663     1.0000 0.46877  0.19710  0.58170  Biso   1.000  C
  C664     1.0000 0.46847  0.17060  0.55690  Biso   1.000  C
  H284     1.0000 0.44740  0.16180  0.54870  Biso   1.000  H
  C665     1.0000 0.40770  0.27706  0.87700  Biso   1.000  C
  C666     1.0000 0.37210  0.27085  0.87920  Biso   1.000  C
  H285     1.0000 0.35970  0.26410  0.85940  Biso   1.000  H
  C667     1.0000 0.35490  0.27475  0.91080  Biso   1.000  C
  C668     1.0000 0.37340  0.28490  0.94030  Biso   1.000  C
  H286     1.0000 0.36190  0.28750  0.96150  Biso   1.000  H
  C669     1.0000 0.40900  0.29110  0.93820  Biso   1.000  C
  C670     1.0000 0.42620  0.28717  0.90650  Biso   1.000  C
  H287     1.0000 0.45000  0.29130  0.90500  Biso   1.000  H
  C671     1.0000 0.42930  0.30180  0.96861  Biso   1.000  C
  C672     1.0000 0.45800  0.32390  0.96857  Biso   1.000  C
  H288     1.0000 0.46760  0.33130  0.94750  Biso   1.000  H
  Sm25     1.0000 0.74307  0.91110  0.75667  Biso   1.000  Sm
  O217     1.0000 0.65760  0.96154  0.78070  Biso   1.000  O
  O218     1.0000 0.68151  0.91271  0.76220  Biso   1.000  O
  O219     1.0000 0.61743  0.80018  0.76102  Biso   1.000  O
  O220     1.0000 0.56101  0.80010  0.76720  Biso   1.000  O
  O221     1.0000 0.79950  0.93893  0.74880  Biso   1.000  O
  O222     1.0000 0.79975  0.88317  0.75650  Biso   1.000  O
  O223     1.0000 0.91261  0.81793  0.74478  Biso   1.000  O
  O224     1.0000 0.94630  0.83940  0.70380  Biso   1.000  O
  O225     1.0000 0.73237  0.97169  0.76985  Biso   1.000  O
  C673     1.0000 0.65610  0.92929  0.77366  Biso   1.000  C
  C674     1.0000 0.62360  0.90810  0.77990  Biso   1.000  C
  C675     1.0000 0.62360  0.87330  0.77000  Biso   1.000  C
  H289     1.0000 0.64340  0.86350  0.75990  Biso   1.000  H
  C676     1.0000 0.59410  0.85290  0.77530  Biso   1.000  C
  C677     1.0000 0.56460  0.86750  0.79040  Biso   1.000  C
  H290     1.0000 0.54480  0.85390  0.79400  Biso   1.000  H
  C678     1.0000 0.56460  0.90230  0.80030  Biso   1.000  C
  C679     1.0000 0.59410  0.92270  0.79500  Biso   1.000  C
  H291     1.0000 0.59410  0.94600  0.80160  Biso   1.000  H
  C680     1.0000 0.58930  0.81581  0.76729  Biso   1.000  C
  C681     1.0000 0.53140  0.91430  0.81640  Biso   1.000  C
  C682     1.0000 0.53143  0.93800  0.84410  Biso   1.000  C
  H292     1.0000 0.55250  0.94590  0.85320  Biso   1.000  H
  C683     1.0000 0.81526  0.91054  0.74896  Biso   1.000  C
  C684     1.0000 0.85315  0.90879  0.74000  Biso   1.000  C
  C685     1.0000 0.87209  0.87790  0.74060  Biso   1.000  C
  H293     1.0000 0.86240  0.85790  0.75030  Biso   1.000  H
  C686     1.0000 0.90558  0.87687  0.72680  Biso   1.000  C
  C687     1.0000 0.92013  0.90674  0.71230  Biso   1.000  C
  H294     1.0000 0.94250  0.90610  0.70310  Biso   1.000  H
  C688     1.0000 0.90120  0.93763  0.71170  Biso   1.000  C
  C689     1.0000 0.86770  0.93866  0.72550  Biso   1.000  C
  H295     1.0000 0.85500  0.95930  0.72500  Biso   1.000  H
  C690     1.0000 0.92253  0.84190  0.72540  Biso   1.000  C
  C691     1.0000 0.91830  0.96877  0.69710  Biso   1.000  C
  C692     1.0000 0.94310  0.96847  0.67060  Biso   1.000  C
  H296     1.0000 0.95130  0.94740  0.66180  Biso   1.000  H
  C693     1.0000 0.62300  0.90770  0.77706  Biso   1.000  C
  C694     1.0000 0.62080  0.87210  0.77085  Biso   1.000  C
  H297     1.0000 0.64060  0.85970  0.76410  Biso   1.000  H
  C695     1.0000 0.58920  0.85490  0.77475  Biso   1.000  C
  C696     1.0000 0.55970  0.87340  0.78490  Biso   1.000  C
  H298     1.0000 0.53850  0.86190  0.78750  Biso   1.000  H
  C697     1.0000 0.56180  0.90900  0.79110  Biso   1.000  C
  C698     1.0000 0.59350  0.92620  0.78717  Biso   1.000  C
  H299     1.0000 0.59500  0.95000  0.79130  Biso   1.000  H
  C699     1.0000 0.53139  0.92930  0.80180  Biso   1.000  C
  C700     1.0000 0.53143  0.95800  0.82390  Biso   1.000  C
  H300     1.0000 0.55250  0.96760  0.83130  Biso   1.000  H
  Sm26     1.0000 0.24307  0.41110  0.25667  Biso   1.000  Sm
  O226     1.0000 0.15760  0.46154  0.28070  Biso   1.000  O
  O227     1.0000 0.18151  0.41271  0.26220  Biso   1.000  O
  O228     1.0000 0.11743  0.30018  0.26102  Biso   1.000  O
  O229     1.0000 0.06101  0.30010  0.26720  Biso   1.000  O
  O230     1.0000 0.29950  0.43893  0.24880  Biso   1.000  O
  O231     1.0000 0.29975  0.38317  0.25650  Biso   1.000  O
  O232     1.0000 0.41261  0.31793  0.24478  Biso   1.000  O
  O233     1.0000 0.44630  0.33940  0.20380  Biso   1.000  O
  O234     1.0000 0.23237  0.47169  0.26985  Biso   1.000  O
  C701     1.0000 0.15610  0.42929  0.27366  Biso   1.000  C
  C702     1.0000 0.12360  0.40810  0.27990  Biso   1.000  C
  C703     1.0000 0.12360  0.37330  0.27000  Biso   1.000  C
  H301     1.0000 0.14340  0.36350  0.25990  Biso   1.000  H
  C704     1.0000 0.09410  0.35290  0.27530  Biso   1.000  C
  C705     1.0000 0.06460  0.36750  0.29040  Biso   1.000  C
  H302     1.0000 0.04480  0.35390  0.29400  Biso   1.000  H
  C706     1.0000 0.06460  0.40230  0.30030  Biso   1.000  C
  C707     1.0000 0.09410  0.42270  0.29500  Biso   1.000  C
  H303     1.0000 0.09410  0.44600  0.30160  Biso   1.000  H
  C708     1.0000 0.08930  0.31581  0.26729  Biso   1.000  C
  C709     1.0000 0.03140  0.41430  0.31640  Biso   1.000  C
  C710     1.0000 0.03143  0.43800  0.34410  Biso   1.000  C
  H304     1.0000 0.05250  0.44590  0.35320  Biso   1.000  H
  C711     1.0000 0.31526  0.41054  0.24896  Biso   1.000  C
  C712     1.0000 0.35315  0.40879  0.24000  Biso   1.000  C
  C713     1.0000 0.37209  0.37790  0.24060  Biso   1.000  C
  H305     1.0000 0.36240  0.35790  0.25030  Biso   1.000  H
  C714     1.0000 0.40558  0.37687  0.22680  Biso   1.000  C
  C715     1.0000 0.42013  0.40674  0.21230  Biso   1.000  C
  H306     1.0000 0.44250  0.40610  0.20310  Biso   1.000  H
  C716     1.0000 0.40120  0.43763  0.21170  Biso   1.000  C
  C717     1.0000 0.36770  0.43866  0.22550  Biso   1.000  C
  H307     1.0000 0.35500  0.45930  0.22500  Biso   1.000  H
  C718     1.0000 0.42253  0.34190  0.22540  Biso   1.000  C
  C719     1.0000 0.41830  0.46877  0.19710  Biso   1.000  C
  C720     1.0000 0.44310  0.46847  0.17060  Biso   1.000  C
  H308     1.0000 0.45130  0.44740  0.16180  Biso   1.000  H
  C721     1.0000 0.12300  0.40770  0.27706  Biso   1.000  C
  C722     1.0000 0.12080  0.37210  0.27085  Biso   1.000  C
  H309     1.0000 0.14060  0.35970  0.26410  Biso   1.000  H
  C723     1.0000 0.08920  0.35490  0.27475  Biso   1.000  C
  C724     1.0000 0.05970  0.37340  0.28490  Biso   1.000  C
  H310     1.0000 0.03850  0.36190  0.28750  Biso   1.000  H
  C725     1.0000 0.06180  0.40900  0.29110  Biso   1.000  C
  C726     1.0000 0.09350  0.42620  0.28717  Biso   1.000  C
  H311     1.0000 0.09500  0.45000  0.29130  Biso   1.000  H
  C727     1.0000 0.03139  0.42930  0.30180  Biso   1.000  C
  C728     1.0000 0.03143  0.45800  0.32390  Biso   1.000  C
  H312     1.0000 0.05250  0.46760  0.33130  Biso   1.000  H
  Sm27     1.0000 0.25693  0.08890  0.75667  Biso   1.000  Sm
  O235     1.0000 0.34240  0.03846  0.78070  Biso   1.000  O
  O236     1.0000 0.31849  0.08729  0.76220  Biso   1.000  O
  O237     1.0000 0.38257  0.19982  0.76102  Biso   1.000  O
  O238     1.0000 0.43899  0.19990  0.76720  Biso   1.000  O
  O239     1.0000 0.20050  0.06107  0.74880  Biso   1.000  O
  O240     1.0000 0.20025  0.11683  0.75650  Biso   1.000  O
  O241     1.0000 0.08739  0.18207  0.74478  Biso   1.000  O
  O242     1.0000 0.05370  0.16060  0.70380  Biso   1.000  O
  O243     1.0000 0.26763  0.02831  0.76985  Biso   1.000  O
  C729     1.0000 0.34390  0.07071  0.77366  Biso   1.000  C
  C730     1.0000 0.37640  0.09190  0.77990  Biso   1.000  C
  C731     1.0000 0.37640  0.12670  0.77000  Biso   1.000  C
  H313     1.0000 0.35660  0.13650  0.75990  Biso   1.000  H
  C732     1.0000 0.40590  0.14710  0.77530  Biso   1.000  C
  C733     1.0000 0.43540  0.13250  0.79040  Biso   1.000  C
  H314     1.0000 0.45520  0.14610  0.79400  Biso   1.000  H
  C734     1.0000 0.43540  0.09770  0.80030  Biso   1.000  C
  C735     1.0000 0.40590  0.07730  0.79500  Biso   1.000  C
  H315     1.0000 0.40590  0.05400  0.80160  Biso   1.000  H
  C736     1.0000 0.41070  0.18419  0.76729  Biso   1.000  C
  C737     1.0000 0.46860  0.08570  0.81640  Biso   1.000  C
  C738     1.0000 0.46857  0.06200  0.84410  Biso   1.000  C
  H316     1.0000 0.44750  0.05410  0.85320  Biso   1.000  H
  C739     1.0000 0.18474  0.08946  0.74896  Biso   1.000  C
  C740     1.0000 0.14685  0.09121  0.74000  Biso   1.000  C
  C741     1.0000 0.12791  0.12210  0.74060  Biso   1.000  C
  H317     1.0000 0.13760  0.14210  0.75030  Biso   1.000  H
  C742     1.0000 0.09442  0.12313  0.72680  Biso   1.000  C
  C743     1.0000 0.07987  0.09326  0.71230  Biso   1.000  C
  H318     1.0000 0.05750  0.09390  0.70310  Biso   1.000  H
  C744     1.0000 0.09880  0.06237  0.71170  Biso   1.000  C
  C745     1.0000 0.13230  0.06134  0.72550  Biso   1.000  C
  H319     1.0000 0.14500  0.04070  0.72500  Biso   1.000  H
  C746     1.0000 0.07747  0.15810  0.72540  Biso   1.000  C
  C747     1.0000 0.08170  0.03123  0.69710  Biso   1.000  C
  C748     1.0000 0.05690  0.03153  0.67060  Biso   1.000  C
  H320     1.0000 0.04870  0.05260  0.66180  Biso   1.000  H
  C749     1.0000 0.37700  0.09230  0.77706  Biso   1.000  C
  C750     1.0000 0.37920  0.12790  0.77085  Biso   1.000  C
  H321     1.0000 0.35940  0.14030  0.76410  Biso   1.000  H
  C751     1.0000 0.41080  0.14510  0.77475  Biso   1.000  C
  C752     1.0000 0.44030  0.12660  0.78490  Biso   1.000  C
  H322     1.0000 0.46150  0.13810  0.78750  Biso   1.000  H
  C753     1.0000 0.43820  0.09100  0.79110  Biso   1.000  C
  C754     1.0000 0.40650  0.07380  0.78717  Biso   1.000  C
  H323     1.0000 0.40500  0.05000  0.79130  Biso   1.000  H
  C755     1.0000 0.46861  0.07070  0.80180  Biso   1.000  C
  C756     1.0000 0.46857  0.04200  0.82390  Biso   1.000  C
  H324     1.0000 0.44750  0.03240  0.83130  Biso   1.000  H
  Sm28     1.0000 0.75693  0.58890  0.25667  Biso   1.000  Sm
  O244     1.0000 0.84240  0.53846  0.28070  Biso   1.000  O
  O245     1.0000 0.81849  0.58729  0.26220  Biso   1.000  O
  O246     1.0000 0.88257  0.69982  0.26102  Biso   1.000  O
  O247     1.0000 0.93899  0.69990  0.26720  Biso   1.000  O
  O248     1.0000 0.70050  0.56107  0.24880  Biso   1.000  O
  O249     1.0000 0.70025  0.61683  0.25650  Biso   1.000  O
  O250     1.0000 0.58739  0.68207  0.24478  Biso   1.000  O
  O251     1.0000 0.55370  0.66060  0.20380  Biso   1.000  O
  O252     1.0000 0.76763  0.52831  0.26985  Biso   1.000  O
  C757     1.0000 0.84390  0.57071  0.27366  Biso   1.000  C
  C758     1.0000 0.87640  0.59190  0.27990  Biso   1.000  C
  C759     1.0000 0.87640  0.62670  0.27000  Biso   1.000  C
  H325     1.0000 0.85660  0.63650  0.25990  Biso   1.000  H
  C760     1.0000 0.90590  0.64710  0.27530  Biso   1.000  C
  C761     1.0000 0.93540  0.63250  0.29040  Biso   1.000  C
  H326     1.0000 0.95520  0.64610  0.29400  Biso   1.000  H
  C762     1.0000 0.93540  0.59770  0.30030  Biso   1.000  C
  C763     1.0000 0.90590  0.57730  0.29500  Biso   1.000  C
  H327     1.0000 0.90590  0.55400  0.30160  Biso   1.000  H
  C764     1.0000 0.91070  0.68419  0.26729  Biso   1.000  C
  C765     1.0000 0.96860  0.58570  0.31640  Biso   1.000  C
  C766     1.0000 0.96857  0.56200  0.34410  Biso   1.000  C
  H328     1.0000 0.94750  0.55410  0.35320  Biso   1.000  H
  C767     1.0000 0.68474  0.58946  0.24896  Biso   1.000  C
  C768     1.0000 0.64685  0.59121  0.24000  Biso   1.000  C
  C769     1.0000 0.62791  0.62210  0.24060  Biso   1.000  C
  H329     1.0000 0.63760  0.64210  0.25030  Biso   1.000  H
  C770     1.0000 0.59442  0.62313  0.22680  Biso   1.000  C
  C771     1.0000 0.57987  0.59326  0.21230  Biso   1.000  C
  H330     1.0000 0.55750  0.59390  0.20310  Biso   1.000  H
  C772     1.0000 0.59880  0.56237  0.21170  Biso   1.000  C
  C773     1.0000 0.63230  0.56134  0.22550  Biso   1.000  C
  H331     1.0000 0.64500  0.54070  0.22500  Biso   1.000  H
  C774     1.0000 0.57747  0.65810  0.22540  Biso   1.000  C
  C775     1.0000 0.58170  0.53123  0.19710  Biso   1.000  C
  C776     1.0000 0.55690  0.53153  0.17060  Biso   1.000  C
  H332     1.0000 0.54870  0.55260  0.16180  Biso   1.000  H
  C777     1.0000 0.87700  0.59230  0.27706  Biso   1.000  C
  C778     1.0000 0.87920  0.62790  0.27085  Biso   1.000  C
  H333     1.0000 0.85940  0.64030  0.26410  Biso   1.000  H
  C779     1.0000 0.91080  0.64510  0.27475  Biso   1.000  C
  C780     1.0000 0.94030  0.62660  0.28490  Biso   1.000  C
  H334     1.0000 0.96150  0.63810  0.28750  Biso   1.000  H
  C781     1.0000 0.93820  0.59100  0.29110  Biso   1.000  C
  C782     1.0000 0.90650  0.57380  0.28717  Biso   1.000  C
  H335     1.0000 0.90500  0.55000  0.29130  Biso   1.000  H
  C783     1.0000 0.96861  0.57070  0.30180  Biso   1.000  C
  C784     1.0000 0.96857  0.54200  0.32390  Biso   1.000  C
  H336     1.0000 0.94750  0.53240  0.33130  Biso   1.000  H
  Sm29     1.0000 0.25693  0.91110  0.24333  Biso   1.000  Sm
  O253     1.0000 0.34240  0.96154  0.21930  Biso   1.000  O
  O254     1.0000 0.31849  0.91271  0.23780  Biso   1.000  O
  O255     1.0000 0.38257  0.80018  0.23898  Biso   1.000  O
  O256     1.0000 0.43899  0.80010  0.23280  Biso   1.000  O
  O257     1.0000 0.20050  0.93893  0.25120  Biso   1.000  O
  O258     1.0000 0.20025  0.88317  0.24350  Biso   1.000  O
  O259     1.0000 0.08739  0.81793  0.25522  Biso   1.000  O
  O260     1.0000 0.05370  0.83940  0.29620  Biso   1.000  O
  O261     1.0000 0.26763  0.97169  0.23015  Biso   1.000  O
  C785     1.0000 0.34390  0.92929  0.22634  Biso   1.000  C
  C786     1.0000 0.37640  0.90810  0.22010  Biso   1.000  C
  C787     1.0000 0.37640  0.87330  0.23000  Biso   1.000  C
  H337     1.0000 0.35660  0.86350  0.24010  Biso   1.000  H
  C788     1.0000 0.40590  0.85290  0.22470  Biso   1.000  C
  C789     1.0000 0.43540  0.86750  0.20960  Biso   1.000  C
  H338     1.0000 0.45520  0.85390  0.20600  Biso   1.000  H
  C790     1.0000 0.43540  0.90230  0.19970  Biso   1.000  C
  C791     1.0000 0.40590  0.92270  0.20500  Biso   1.000  C
  H339     1.0000 0.40590  0.94600  0.19840  Biso   1.000  H
  C792     1.0000 0.41070  0.81581  0.23271  Biso   1.000  C
  C793     1.0000 0.46860  0.91430  0.18360  Biso   1.000  C
  C794     1.0000 0.46857  0.93800  0.15590  Biso   1.000  C
  H340     1.0000 0.44750  0.94590  0.14680  Biso   1.000  H
  C795     1.0000 0.18474  0.91054  0.25104  Biso   1.000  C
  C796     1.0000 0.14685  0.90879  0.26000  Biso   1.000  C
  C797     1.0000 0.12791  0.87790  0.25940  Biso   1.000  C
  H341     1.0000 0.13760  0.85790  0.24970  Biso   1.000  H
  C798     1.0000 0.09442  0.87687  0.27320  Biso   1.000  C
  C799     1.0000 0.07987  0.90674  0.28770  Biso   1.000  C
  H342     1.0000 0.05750  0.90610  0.29690  Biso   1.000  H
  C800     1.0000 0.09880  0.93763  0.28830  Biso   1.000  C
  C801     1.0000 0.13230  0.93866  0.27450  Biso   1.000  C
  H343     1.0000 0.14500  0.95930  0.27500  Biso   1.000  H
  C802     1.0000 0.07747  0.84190  0.27460  Biso   1.000  C
  C803     1.0000 0.08170  0.96877  0.30290  Biso   1.000  C
  C804     1.0000 0.05690  0.96847  0.32940  Biso   1.000  C
  H344     1.0000 0.04870  0.94740  0.33820  Biso   1.000  H
  C805     1.0000 0.37700  0.90770  0.22294  Biso   1.000  C
  C806     1.0000 0.37920  0.87210  0.22915  Biso   1.000  C
  H345     1.0000 0.35940  0.85970  0.23590  Biso   1.000  H
  C807     1.0000 0.41080  0.85490  0.22525  Biso   1.000  C
  C808     1.0000 0.44030  0.87340  0.21510  Biso   1.000  C
  H346     1.0000 0.46150  0.86190  0.21250  Biso   1.000  H
  C809     1.0000 0.43820  0.90900  0.20890  Biso   1.000  C
  C810     1.0000 0.40650  0.92620  0.21283  Biso   1.000  C
  H347     1.0000 0.40500  0.95000  0.20870  Biso   1.000  H
  C811     1.0000 0.46861  0.92930  0.19820  Biso   1.000  C
  C812     1.0000 0.46857  0.95800  0.17610  Biso   1.000  C
  H348     1.0000 0.44750  0.96760  0.16870  Biso   1.000  H
  Sm30     1.0000 0.75693  0.41110  0.74333  Biso   1.000  Sm
  O262     1.0000 0.84240  0.46154  0.71930  Biso   1.000  O
  O263     1.0000 0.81849  0.41271  0.73780  Biso   1.000  O
  O264     1.0000 0.88257  0.30018  0.73898  Biso   1.000  O
  O265     1.0000 0.93899  0.30010  0.73280  Biso   1.000  O
  O266     1.0000 0.70050  0.43893  0.75120  Biso   1.000  O
  O267     1.0000 0.70025  0.38317  0.74350  Biso   1.000  O
  O268     1.0000 0.58739  0.31793  0.75522  Biso   1.000  O
  O269     1.0000 0.55370  0.33940  0.79620  Biso   1.000  O
  O270     1.0000 0.76763  0.47169  0.73015  Biso   1.000  O
  C813     1.0000 0.84390  0.42929  0.72634  Biso   1.000  C
  C814     1.0000 0.87640  0.40810  0.72010  Biso   1.000  C
  C815     1.0000 0.87640  0.37330  0.73000  Biso   1.000  C
  H349     1.0000 0.85660  0.36350  0.74010  Biso   1.000  H
  C816     1.0000 0.90590  0.35290  0.72470  Biso   1.000  C
  C817     1.0000 0.93540  0.36750  0.70960  Biso   1.000  C
  H350     1.0000 0.95520  0.35390  0.70600  Biso   1.000  H
  C818     1.0000 0.93540  0.40230  0.69970  Biso   1.000  C
  C819     1.0000 0.90590  0.42270  0.70500  Biso   1.000  C
  H351     1.0000 0.90590  0.44600  0.69840  Biso   1.000  H
  C820     1.0000 0.91070  0.31581  0.73271  Biso   1.000  C
  C821     1.0000 0.96860  0.41430  0.68360  Biso   1.000  C
  C822     1.0000 0.96857  0.43800  0.65590  Biso   1.000  C
  H352     1.0000 0.94750  0.44590  0.64680  Biso   1.000  H
  C823     1.0000 0.68474  0.41054  0.75104  Biso   1.000  C
  C824     1.0000 0.64685  0.40879  0.76000  Biso   1.000  C
  C825     1.0000 0.62791  0.37790  0.75940  Biso   1.000  C
  H353     1.0000 0.63760  0.35790  0.74970  Biso   1.000  H
  C826     1.0000 0.59442  0.37687  0.77320  Biso   1.000  C
  C827     1.0000 0.57987  0.40674  0.78770  Biso   1.000  C
  H354     1.0000 0.55750  0.40610  0.79690  Biso   1.000  H
  C828     1.0000 0.59880  0.43763  0.78830  Biso   1.000  C
  C829     1.0000 0.63230  0.43866  0.77450  Biso   1.000  C
  H355     1.0000 0.64500  0.45930  0.77500  Biso   1.000  H
  C830     1.0000 0.57747  0.34190  0.77460  Biso   1.000  C
  C831     1.0000 0.58170  0.46877  0.80290  Biso   1.000  C
  C832     1.0000 0.55690  0.46847  0.82940  Biso   1.000  C
  H356     1.0000 0.54870  0.44740  0.83820  Biso   1.000  H
  C833     1.0000 0.87700  0.40770  0.72294  Biso   1.000  C
  C834     1.0000 0.87920  0.37210  0.72915  Biso   1.000  C
  H357     1.0000 0.85940  0.35970  0.73590  Biso   1.000  H
  C835     1.0000 0.91080  0.35490  0.72525  Biso   1.000  C
  C836     1.0000 0.94030  0.37340  0.71510  Biso   1.000  C
  H358     1.0000 0.96150  0.36190  0.71250  Biso   1.000  H
  C837     1.0000 0.93820  0.40900  0.70890  Biso   1.000  C
  C838     1.0000 0.90650  0.42620  0.71283  Biso   1.000  C
  H359     1.0000 0.90500  0.45000  0.70870  Biso   1.000  H
  C839     1.0000 0.96861  0.42930  0.69820  Biso   1.000  C
  C840     1.0000 0.96857  0.45800  0.67610  Biso   1.000  C
  H360     1.0000 0.94750  0.46760  0.66870  Biso   1.000  H
  Sm31     1.0000 0.74307  0.08890  0.24333  Biso   1.000  Sm
  O271     1.0000 0.65760  0.03846  0.21930  Biso   1.000  O
  O272     1.0000 0.68151  0.08729  0.23780  Biso   1.000  O
  O273     1.0000 0.61743  0.19982  0.23898  Biso   1.000  O
  O274     1.0000 0.56101  0.19990  0.23280  Biso   1.000  O
  O275     1.0000 0.79950  0.06107  0.25120  Biso   1.000  O
  O276     1.0000 0.79975  0.11683  0.24350  Biso   1.000  O
  O277     1.0000 0.91261  0.18207  0.25522  Biso   1.000  O
  O278     1.0000 0.94630  0.16060  0.29620  Biso   1.000  O
  O279     1.0000 0.73237  0.02831  0.23015  Biso   1.000  O
  C841     1.0000 0.65610  0.07071  0.22634  Biso   1.000  C
  C842     1.0000 0.62360  0.09190  0.22010  Biso   1.000  C
  C843     1.0000 0.62360  0.12670  0.23000  Biso   1.000  C
  H361     1.0000 0.64340  0.13650  0.24010  Biso   1.000  H
  C844     1.0000 0.59410  0.14710  0.22470  Biso   1.000  C
  C845     1.0000 0.56460  0.13250  0.20960  Biso   1.000  C
  H362     1.0000 0.54480  0.14610  0.20600  Biso   1.000  H
  C846     1.0000 0.56460  0.09770  0.19970  Biso   1.000  C
  C847     1.0000 0.59410  0.07730  0.20500  Biso   1.000  C
  H363     1.0000 0.59410  0.05400  0.19840  Biso   1.000  H
  C848     1.0000 0.58930  0.18419  0.23271  Biso   1.000  C
  C849     1.0000 0.53140  0.08570  0.18360  Biso   1.000  C
  C850     1.0000 0.53143  0.06200  0.15590  Biso   1.000  C
  H364     1.0000 0.55250  0.05410  0.14680  Biso   1.000  H
  C851     1.0000 0.81526  0.08946  0.25104  Biso   1.000  C
  C852     1.0000 0.85315  0.09121  0.26000  Biso   1.000  C
  C853     1.0000 0.87209  0.12210  0.25940  Biso   1.000  C
  H365     1.0000 0.86240  0.14210  0.24970  Biso   1.000  H
  C854     1.0000 0.90558  0.12313  0.27320  Biso   1.000  C
  C855     1.0000 0.92013  0.09326  0.28770  Biso   1.000  C
  H366     1.0000 0.94250  0.09390  0.29690  Biso   1.000  H
  C856     1.0000 0.90120  0.06237  0.28830  Biso   1.000  C
  C857     1.0000 0.86770  0.06134  0.27450  Biso   1.000  C
  H367     1.0000 0.85500  0.04070  0.27500  Biso   1.000  H
  C858     1.0000 0.92253  0.15810  0.27460  Biso   1.000  C
  C859     1.0000 0.91830  0.03123  0.30290  Biso   1.000  C
  C860     1.0000 0.94310  0.03153  0.32940  Biso   1.000  C
  H368     1.0000 0.95130  0.05260  0.33820  Biso   1.000  H
  C861     1.0000 0.62300  0.09230  0.22294  Biso   1.000  C
  C862     1.0000 0.62080  0.12790  0.22915  Biso   1.000  C
  H369     1.0000 0.64060  0.14030  0.23590  Biso   1.000  H
  C863     1.0000 0.58920  0.14510  0.22525  Biso   1.000  C
  C864     1.0000 0.55970  0.12660  0.21510  Biso   1.000  C
  H370     1.0000 0.53850  0.13810  0.21250  Biso   1.000  H
  C865     1.0000 0.56180  0.09100  0.20890  Biso   1.000  C
  C866     1.0000 0.59350  0.07380  0.21283  Biso   1.000  C
  H371     1.0000 0.59500  0.05000  0.20870  Biso   1.000  H
  C867     1.0000 0.53139  0.07070  0.19820  Biso   1.000  C
  C868     1.0000 0.53143  0.04200  0.17610  Biso   1.000  C
  H372     1.0000 0.55250  0.03240  0.16870  Biso   1.000  H
  Sm32     1.0000 0.24307  0.58890  0.74333  Biso   1.000  Sm
  O280     1.0000 0.15760  0.53846  0.71930  Biso   1.000  O
  O281     1.0000 0.18151  0.58729  0.73780  Biso   1.000  O
  O282     1.0000 0.11743  0.69982  0.73898  Biso   1.000  O
  O283     1.0000 0.06101  0.69990  0.73280  Biso   1.000  O
  O284     1.0000 0.29950  0.56107  0.75120  Biso   1.000  O
  O285     1.0000 0.29975  0.61683  0.74350  Biso   1.000  O
  O286     1.0000 0.41261  0.68207  0.75522  Biso   1.000  O
  O287     1.0000 0.44630  0.66060  0.79620  Biso   1.000  O
  O288     1.0000 0.23237  0.52831  0.73015  Biso   1.000  O
  C869     1.0000 0.15610  0.57071  0.72634  Biso   1.000  C
  C870     1.0000 0.12360  0.59190  0.72010  Biso   1.000  C
  C871     1.0000 0.12360  0.62670  0.73000  Biso   1.000  C
  H373     1.0000 0.14340  0.63650  0.74010  Biso   1.000  H
  C872     1.0000 0.09410  0.64710  0.72470  Biso   1.000  C
  C873     1.0000 0.06460  0.63250  0.70960  Biso   1.000  C
  H374     1.0000 0.04480  0.64610  0.70600  Biso   1.000  H
  C874     1.0000 0.06460  0.59770  0.69970  Biso   1.000  C
  C875     1.0000 0.09410  0.57730  0.70500  Biso   1.000  C
  H375     1.0000 0.09410  0.55400  0.69840  Biso   1.000  H
  C876     1.0000 0.08930  0.68419  0.73271  Biso   1.000  C
  C877     1.0000 0.03140  0.58570  0.68360  Biso   1.000  C
  C878     1.0000 0.03143  0.56200  0.65590  Biso   1.000  C
  H376     1.0000 0.05250  0.55410  0.64680  Biso   1.000  H
  C879     1.0000 0.31526  0.58946  0.75104  Biso   1.000  C
  C880     1.0000 0.35315  0.59121  0.76000  Biso   1.000  C
  C881     1.0000 0.37209  0.62210  0.75940  Biso   1.000  C
  H377     1.0000 0.36240  0.64210  0.74970  Biso   1.000  H
  C882     1.0000 0.40558  0.62313  0.77320  Biso   1.000  C
  C883     1.0000 0.42013  0.59326  0.78770  Biso   1.000  C
  H378     1.0000 0.44250  0.59390  0.79690  Biso   1.000  H
  C884     1.0000 0.40120  0.56237  0.78830  Biso   1.000  C
  C885     1.0000 0.36770  0.56134  0.77450  Biso   1.000  C
  H379     1.0000 0.35500  0.54070  0.77500  Biso   1.000  H
  C886     1.0000 0.42253  0.65810  0.77460  Biso   1.000  C
  C887     1.0000 0.41830  0.53123  0.80290  Biso   1.000  C
  C888     1.0000 0.44310  0.53153  0.82940  Biso   1.000  C
  H380     1.0000 0.45130  0.55260  0.83820  Biso   1.000  H
  C889     1.0000 0.12300  0.59230  0.72294  Biso   1.000  C
  C890     1.0000 0.12080  0.62790  0.72915  Biso   1.000  C
  H381     1.0000 0.14060  0.64030  0.73590  Biso   1.000  H
  C891     1.0000 0.08920  0.64510  0.72525  Biso   1.000  C
  C892     1.0000 0.05970  0.62660  0.71510  Biso   1.000  C
  H382     1.0000 0.03850  0.63810  0.71250  Biso   1.000  H
  C893     1.0000 0.06180  0.59100  0.70890  Biso   1.000  C
  C894     1.0000 0.09350  0.57380  0.71283  Biso   1.000  C
  H383     1.0000 0.09500  0.55000  0.70870  Biso   1.000  H
  C895     1.0000 0.03139  0.57070  0.69820  Biso   1.000  C
  C896     1.0000 0.03143  0.54200  0.67610  Biso   1.000  C
  H384     1.0000 0.05250  0.53240  0.66870  Biso   1.000  H
  Sm33     1.0000 0.75667  0.74307  0.91110  Biso   1.000  Sm
  O289     1.0000 0.78070  0.65760  0.96154  Biso   1.000  O
  O290     1.0000 0.76220  0.68151  0.91271  Biso   1.000  O
  O291     1.0000 0.76102  0.61743  0.80018  Biso   1.000  O
  O292     1.0000 0.76720  0.56101  0.80010  Biso   1.000  O
  O293     1.0000 0.74880  0.79950  0.93893  Biso   1.000  O
  O294     1.0000 0.75650  0.79975  0.88317  Biso   1.000  O
  O295     1.0000 0.74478  0.91261  0.81793  Biso   1.000  O
  O296     1.0000 0.70380  0.94630  0.83940  Biso   1.000  O
  O297     1.0000 0.76985  0.73237  0.97169  Biso   1.000  O
  C897     1.0000 0.77366  0.65610  0.92929  Biso   1.000  C
  C898     1.0000 0.77990  0.62360  0.90810  Biso   1.000  C
  C899     1.0000 0.77000  0.62360  0.87330  Biso   1.000  C
  H385     1.0000 0.75990  0.64340  0.86350  Biso   1.000  H
  C900     1.0000 0.77530  0.59410  0.85290  Biso   1.000  C
  C901     1.0000 0.79040  0.56460  0.86750  Biso   1.000  C
  H386     1.0000 0.79400  0.54480  0.85390  Biso   1.000  H
  C902     1.0000 0.80030  0.56460  0.90230  Biso   1.000  C
  C903     1.0000 0.79500  0.59410  0.92270  Biso   1.000  C
  H387     1.0000 0.80160  0.59410  0.94600  Biso   1.000  H
  C904     1.0000 0.76729  0.58930  0.81581  Biso   1.000  C
  C905     1.0000 0.81640  0.53140  0.91430  Biso   1.000  C
  C906     1.0000 0.84410  0.53143  0.93800  Biso   1.000  C
  H388     1.0000 0.85320  0.55250  0.94590  Biso   1.000  H
  C907     1.0000 0.74896  0.81526  0.91054  Biso   1.000  C
  C908     1.0000 0.74000  0.85315  0.90879  Biso   1.000  C
  C909     1.0000 0.74060  0.87209  0.87790  Biso   1.000  C
  H389     1.0000 0.75030  0.86240  0.85790  Biso   1.000  H
  C910     1.0000 0.72680  0.90558  0.87687  Biso   1.000  C
  C911     1.0000 0.71230  0.92013  0.90674  Biso   1.000  C
  H390     1.0000 0.70310  0.94250  0.90610  Biso   1.000  H
  C912     1.0000 0.71170  0.90120  0.93763  Biso   1.000  C
  C913     1.0000 0.72550  0.86770  0.93866  Biso   1.000  C
  H391     1.0000 0.72500  0.85500  0.95930  Biso   1.000  H
  C914     1.0000 0.72540  0.92253  0.84190  Biso   1.000  C
  C915     1.0000 0.69710  0.91830  0.96877  Biso   1.000  C
  C916     1.0000 0.67060  0.94310  0.96847  Biso   1.000  C
  H392     1.0000 0.66180  0.95130  0.94740  Biso   1.000  H
  C917     1.0000 0.77706  0.62300  0.90770  Biso   1.000  C
  C918     1.0000 0.77085  0.62080  0.87210  Biso   1.000  C
  H393     1.0000 0.76410  0.64060  0.85970  Biso   1.000  H
  C919     1.0000 0.77475  0.58920  0.85490  Biso   1.000  C
  C920     1.0000 0.78490  0.55970  0.87340  Biso   1.000  C
  H394     1.0000 0.78750  0.53850  0.86190  Biso   1.000  H
  C921     1.0000 0.79110  0.56180  0.90900  Biso   1.000  C
  C922     1.0000 0.78717  0.59350  0.92620  Biso   1.000  C
  H395     1.0000 0.79130  0.59500  0.95000  Biso   1.000  H
  C923     1.0000 0.80180  0.53139  0.92930  Biso   1.000  C
  C924     1.0000 0.82390  0.53143  0.95800  Biso   1.000  C
  H396     1.0000 0.83130  0.55250  0.96760  Biso   1.000  H
  Sm34     1.0000 0.25667  0.24307  0.41110  Biso   1.000  Sm
  O298     1.0000 0.28070  0.15760  0.46154  Biso   1.000  O
  O299     1.0000 0.26220  0.18151  0.41271  Biso   1.000  O
  O300     1.0000 0.26102  0.11743  0.30018  Biso   1.000  O
  O301     1.0000 0.26720  0.06101  0.30010  Biso   1.000  O
  O302     1.0000 0.24880  0.29950  0.43893  Biso   1.000  O
  O303     1.0000 0.25650  0.29975  0.38317  Biso   1.000  O
  O304     1.0000 0.24478  0.41261  0.31793  Biso   1.000  O
  O305     1.0000 0.20380  0.44630  0.33940  Biso   1.000  O
  O306     1.0000 0.26985  0.23237  0.47169  Biso   1.000  O
  C925     1.0000 0.27366  0.15610  0.42929  Biso   1.000  C
  C926     1.0000 0.27990  0.12360  0.40810  Biso   1.000  C
  C927     1.0000 0.27000  0.12360  0.37330  Biso   1.000  C
  H397     1.0000 0.25990  0.14340  0.36350  Biso   1.000  H
  C928     1.0000 0.27530  0.09410  0.35290  Biso   1.000  C
  C929     1.0000 0.29040  0.06460  0.36750  Biso   1.000  C
  H398     1.0000 0.29400  0.04480  0.35390  Biso   1.000  H
  C930     1.0000 0.30030  0.06460  0.40230  Biso   1.000  C
  C931     1.0000 0.29500  0.09410  0.42270  Biso   1.000  C
  H399     1.0000 0.30160  0.09410  0.44600  Biso   1.000  H
  C932     1.0000 0.26729  0.08930  0.31581  Biso   1.000  C
  C933     1.0000 0.31640  0.03140  0.41430  Biso   1.000  C
  C934     1.0000 0.34410  0.03143  0.43800  Biso   1.000  C
  H400     1.0000 0.35320  0.05250  0.44590  Biso   1.000  H
  C935     1.0000 0.24896  0.31526  0.41054  Biso   1.000  C
  C936     1.0000 0.24000  0.35315  0.40879  Biso   1.000  C
  C937     1.0000 0.24060  0.37209  0.37790  Biso   1.000  C
  H401     1.0000 0.25030  0.36240  0.35790  Biso   1.000  H
  C938     1.0000 0.22680  0.40558  0.37687  Biso   1.000  C
  C939     1.0000 0.21230  0.42013  0.40674  Biso   1.000  C
  H402     1.0000 0.20310  0.44250  0.40610  Biso   1.000  H
  C940     1.0000 0.21170  0.40120  0.43763  Biso   1.000  C
  C941     1.0000 0.22550  0.36770  0.43866  Biso   1.000  C
  H403     1.0000 0.22500  0.35500  0.45930  Biso   1.000  H
  C942     1.0000 0.22540  0.42253  0.34190  Biso   1.000  C
  C943     1.0000 0.19710  0.41830  0.46877  Biso   1.000  C
  C944     1.0000 0.17060  0.44310  0.46847  Biso   1.000  C
  H404     1.0000 0.16180  0.45130  0.44740  Biso   1.000  H
  C945     1.0000 0.27706  0.12300  0.40770  Biso   1.000  C
  C946     1.0000 0.27085  0.12080  0.37210  Biso   1.000  C
  H405     1.0000 0.26410  0.14060  0.35970  Biso   1.000  H
  C947     1.0000 0.27475  0.08920  0.35490  Biso   1.000  C
  C948     1.0000 0.28490  0.05970  0.37340  Biso   1.000  C
  H406     1.0000 0.28750  0.03850  0.36190  Biso   1.000  H
  C949     1.0000 0.29110  0.06180  0.40900  Biso   1.000  C
  C950     1.0000 0.28717  0.09350  0.42620  Biso   1.000  C
  H407     1.0000 0.29130  0.09500  0.45000  Biso   1.000  H
  C951     1.0000 0.30180  0.03139  0.42930  Biso   1.000  C
  C952     1.0000 0.32390  0.03143  0.45800  Biso   1.000  C
  H408     1.0000 0.33130  0.05250  0.46760  Biso   1.000  H
  Sm35     1.0000 0.75667  0.25693  0.08890  Biso   1.000  Sm
  O307     1.0000 0.78070  0.34240  0.03846  Biso   1.000  O
  O308     1.0000 0.76220  0.31849  0.08729  Biso   1.000  O
  O309     1.0000 0.76102  0.38257  0.19982  Biso   1.000  O
  O310     1.0000 0.76720  0.43899  0.19990  Biso   1.000  O
  O311     1.0000 0.74880  0.20050  0.06107  Biso   1.000  O
  O312     1.0000 0.75650  0.20025  0.11683  Biso   1.000  O
  O313     1.0000 0.74478  0.08739  0.18207  Biso   1.000  O
  O314     1.0000 0.70380  0.05370  0.16060  Biso   1.000  O
  O315     1.0000 0.76985  0.26763  0.02831  Biso   1.000  O
  C953     1.0000 0.77366  0.34390  0.07071  Biso   1.000  C
  C954     1.0000 0.77990  0.37640  0.09190  Biso   1.000  C
  C955     1.0000 0.77000  0.37640  0.12670  Biso   1.000  C
  H409     1.0000 0.75990  0.35660  0.13650  Biso   1.000  H
  C956     1.0000 0.77530  0.40590  0.14710  Biso   1.000  C
  C957     1.0000 0.79040  0.43540  0.13250  Biso   1.000  C
  H410     1.0000 0.79400  0.45520  0.14610  Biso   1.000  H
  C958     1.0000 0.80030  0.43540  0.09770  Biso   1.000  C
  C959     1.0000 0.79500  0.40590  0.07730  Biso   1.000  C
  H411     1.0000 0.80160  0.40590  0.05400  Biso   1.000  H
  C960     1.0000 0.76729  0.41070  0.18419  Biso   1.000  C
  C961     1.0000 0.81640  0.46860  0.08570  Biso   1.000  C
  C962     1.0000 0.84410  0.46857  0.06200  Biso   1.000  C
  H412     1.0000 0.85320  0.44750  0.05410  Biso   1.000  H
  C963     1.0000 0.74896  0.18474  0.08946  Biso   1.000  C
  C964     1.0000 0.74000  0.14685  0.09121  Biso   1.000  C
  C965     1.0000 0.74060  0.12791  0.12210  Biso   1.000  C
  H413     1.0000 0.75030  0.13760  0.14210  Biso   1.000  H
  C966     1.0000 0.72680  0.09442  0.12313  Biso   1.000  C
  C967     1.0000 0.71230  0.07987  0.09326  Biso   1.000  C
  H414     1.0000 0.70310  0.05750  0.09390  Biso   1.000  H
  C968     1.0000 0.71170  0.09880  0.06237  Biso   1.000  C
  C969     1.0000 0.72550  0.13230  0.06134  Biso   1.000  C
  H415     1.0000 0.72500  0.14500  0.04070  Biso   1.000  H
  C970     1.0000 0.72540  0.07747  0.15810  Biso   1.000  C
  C971     1.0000 0.69710  0.08170  0.03123  Biso   1.000  C
  C972     1.0000 0.67060  0.05690  0.03153  Biso   1.000  C
  H416     1.0000 0.66180  0.04870  0.05260  Biso   1.000  H
  C973     1.0000 0.77706  0.37700  0.09230  Biso   1.000  C
  C974     1.0000 0.77085  0.37920  0.12790  Biso   1.000  C
  H417     1.0000 0.76410  0.35940  0.14030  Biso   1.000  H
  C975     1.0000 0.77475  0.41080  0.14510  Biso   1.000  C
  C976     1.0000 0.78490  0.44030  0.12660  Biso   1.000  C
  H418     1.0000 0.78750  0.46150  0.13810  Biso   1.000  H
  C977     1.0000 0.79110  0.43820  0.09100  Biso   1.000  C
  C978     1.0000 0.78717  0.40650  0.07380  Biso   1.000  C
  H419     1.0000 0.79130  0.40500  0.05000  Biso   1.000  H
  C979     1.0000 0.80180  0.46861  0.07070  Biso   1.000  C
  C980     1.0000 0.82390  0.46857  0.04200  Biso   1.000  C
  H420     1.0000 0.83130  0.44750  0.03240  Biso   1.000  H
  Sm36     1.0000 0.25667  0.75693  0.58890  Biso   1.000  Sm
  O316     1.0000 0.28070  0.84240  0.53846  Biso   1.000  O
  O317     1.0000 0.26220  0.81849  0.58729  Biso   1.000  O
  O318     1.0000 0.26102  0.88257  0.69982  Biso   1.000  O
  O319     1.0000 0.26720  0.93899  0.69990  Biso   1.000  O
  O320     1.0000 0.24880  0.70050  0.56107  Biso   1.000  O
  O321     1.0000 0.25650  0.70025  0.61683  Biso   1.000  O
  O322     1.0000 0.24478  0.58739  0.68207  Biso   1.000  O
  O323     1.0000 0.20380  0.55370  0.66060  Biso   1.000  O
  O324     1.0000 0.26985  0.76763  0.52831  Biso   1.000  O
  C981     1.0000 0.27366  0.84390  0.57071  Biso   1.000  C
  C982     1.0000 0.27990  0.87640  0.59190  Biso   1.000  C
  C983     1.0000 0.27000  0.87640  0.62670  Biso   1.000  C
  H421     1.0000 0.25990  0.85660  0.63650  Biso   1.000  H
  C984     1.0000 0.27530  0.90590  0.64710  Biso   1.000  C
  C985     1.0000 0.29040  0.93540  0.63250  Biso   1.000  C
  H422     1.0000 0.29400  0.95520  0.64610  Biso   1.000  H
  C986     1.0000 0.30030  0.93540  0.59770  Biso   1.000  C
  C987     1.0000 0.29500  0.90590  0.57730  Biso   1.000  C
  H423     1.0000 0.30160  0.90590  0.55400  Biso   1.000  H
  C988     1.0000 0.26729  0.91070  0.68419  Biso   1.000  C
  C989     1.0000 0.31640  0.96860  0.58570  Biso   1.000  C
  C990     1.0000 0.34410  0.96857  0.56200  Biso   1.000  C
  H424     1.0000 0.35320  0.94750  0.55410  Biso   1.000  H
  C991     1.0000 0.24896  0.68474  0.58946  Biso   1.000  C
  C992     1.0000 0.24000  0.64685  0.59121  Biso   1.000  C
  C993     1.0000 0.24060  0.62791  0.62210  Biso   1.000  C
  H425     1.0000 0.25030  0.63760  0.64210  Biso   1.000  H
  C994     1.0000 0.22680  0.59442  0.62313  Biso   1.000  C
  C995     1.0000 0.21230  0.57987  0.59326  Biso   1.000  C
  H426     1.0000 0.20310  0.55750  0.59390  Biso   1.000  H
  C996     1.0000 0.21170  0.59880  0.56237  Biso   1.000  C
  C997     1.0000 0.22550  0.63230  0.56134  Biso   1.000  C
  H427     1.0000 0.22500  0.64500  0.54070  Biso   1.000  H
  C998     1.0000 0.22540  0.57747  0.65810  Biso   1.000  C
  C999     1.0000 0.19710  0.58170  0.53123  Biso   1.000  C
  C1000    1.0000 0.17060  0.55690  0.53153  Biso   1.000  C
  H428     1.0000 0.16180  0.54870  0.55260  Biso   1.000  H
  C1001    1.0000 0.27706  0.87700  0.59230  Biso   1.000  C
  C1002    1.0000 0.27085  0.87920  0.62790  Biso   1.000  C
  H429     1.0000 0.26410  0.85940  0.64030  Biso   1.000  H
  C1003    1.0000 0.27475  0.91080  0.64510  Biso   1.000  C
  C1004    1.0000 0.28490  0.94030  0.62660  Biso   1.000  C
  H430     1.0000 0.28750  0.96150  0.63810  Biso   1.000  H
  C1005    1.0000 0.29110  0.93820  0.59100  Biso   1.000  C
  C1006    1.0000 0.28717  0.90650  0.57380  Biso   1.000  C
  H431     1.0000 0.29130  0.90500  0.55000  Biso   1.000  H
  C1007    1.0000 0.30180  0.96861  0.57070  Biso   1.000  C
  C1008    1.0000 0.32390  0.96857  0.54200  Biso   1.000  C
  H432     1.0000 0.33130  0.94750  0.53240  Biso   1.000  H
  Sm37     1.0000 0.24333  0.25693  0.91110  Biso   1.000  Sm
  O325     1.0000 0.21930  0.34240  0.96154  Biso   1.000  O
  O326     1.0000 0.23780  0.31849  0.91271  Biso   1.000  O
  O327     1.0000 0.23898  0.38257  0.80018  Biso   1.000  O
  O328     1.0000 0.23280  0.43899  0.80010  Biso   1.000  O
  O329     1.0000 0.25120  0.20050  0.93893  Biso   1.000  O
  O330     1.0000 0.24350  0.20025  0.88317  Biso   1.000  O
  O331     1.0000 0.25522  0.08739  0.81793  Biso   1.000  O
  O332     1.0000 0.29620  0.05370  0.83940  Biso   1.000  O
  O333     1.0000 0.23015  0.26763  0.97169  Biso   1.000  O
  C1009    1.0000 0.22634  0.34390  0.92929  Biso   1.000  C
  C1010    1.0000 0.22010  0.37640  0.90810  Biso   1.000  C
  C1011    1.0000 0.23000  0.37640  0.87330  Biso   1.000  C
  H433     1.0000 0.24010  0.35660  0.86350  Biso   1.000  H
  C1012    1.0000 0.22470  0.40590  0.85290  Biso   1.000  C
  C1013    1.0000 0.20960  0.43540  0.86750  Biso   1.000  C
  H434     1.0000 0.20600  0.45520  0.85390  Biso   1.000  H
  C1014    1.0000 0.19970  0.43540  0.90230  Biso   1.000  C
  C1015    1.0000 0.20500  0.40590  0.92270  Biso   1.000  C
  H435     1.0000 0.19840  0.40590  0.94600  Biso   1.000  H
  C1016    1.0000 0.23271  0.41070  0.81581  Biso   1.000  C
  C1017    1.0000 0.18360  0.46860  0.91430  Biso   1.000  C
  C1018    1.0000 0.15590  0.46857  0.93800  Biso   1.000  C
  H436     1.0000 0.14680  0.44750  0.94590  Biso   1.000  H
  C1019    1.0000 0.25104  0.18474  0.91054  Biso   1.000  C
  C1020    1.0000 0.26000  0.14685  0.90879  Biso   1.000  C
  C1021    1.0000 0.25940  0.12791  0.87790  Biso   1.000  C
  H437     1.0000 0.24970  0.13760  0.85790  Biso   1.000  H
  C1022    1.0000 0.27320  0.09442  0.87687  Biso   1.000  C
  C1023    1.0000 0.28770  0.07987  0.90674  Biso   1.000  C
  H438     1.0000 0.29690  0.05750  0.90610  Biso   1.000  H
  C1024    1.0000 0.28830  0.09880  0.93763  Biso   1.000  C
  C1025    1.0000 0.27450  0.13230  0.93866  Biso   1.000  C
  H439     1.0000 0.27500  0.14500  0.95930  Biso   1.000  H
  C1026    1.0000 0.27460  0.07747  0.84190  Biso   1.000  C
  C1027    1.0000 0.30290  0.08170  0.96877  Biso   1.000  C
  C1028    1.0000 0.32940  0.05690  0.96847  Biso   1.000  C
  H440     1.0000 0.33820  0.04870  0.94740  Biso   1.000  H
  C1029    1.0000 0.22294  0.37700  0.90770  Biso   1.000  C
  C1030    1.0000 0.22915  0.37920  0.87210  Biso   1.000  C
  H441     1.0000 0.23590  0.35940  0.85970  Biso   1.000  H
  C1031    1.0000 0.22525  0.41080  0.85490  Biso   1.000  C
  C1032    1.0000 0.21510  0.44030  0.87340  Biso   1.000  C
  H442     1.0000 0.21250  0.46150  0.86190  Biso   1.000  H
  C1033    1.0000 0.20890  0.43820  0.90900  Biso   1.000  C
  C1034    1.0000 0.21283  0.40650  0.92620  Biso   1.000  C
  H443     1.0000 0.20870  0.40500  0.95000  Biso   1.000  H
  C1035    1.0000 0.19820  0.46861  0.92930  Biso   1.000  C
  C1036    1.0000 0.17610  0.46857  0.95800  Biso   1.000  C
  H444     1.0000 0.16870  0.44750  0.96760  Biso   1.000  H
  Sm38     1.0000 0.74333  0.75693  0.41110  Biso   1.000  Sm
  O334     1.0000 0.71930  0.84240  0.46154  Biso   1.000  O
  O335     1.0000 0.73780  0.81849  0.41271  Biso   1.000  O
  O336     1.0000 0.73898  0.88257  0.30018  Biso   1.000  O
  O337     1.0000 0.73280  0.93899  0.30010  Biso   1.000  O
  O338     1.0000 0.75120  0.70050  0.43893  Biso   1.000  O
  O339     1.0000 0.74350  0.70025  0.38317  Biso   1.000  O
  O340     1.0000 0.75522  0.58739  0.31793  Biso   1.000  O
  O341     1.0000 0.79620  0.55370  0.33940  Biso   1.000  O
  O342     1.0000 0.73015  0.76763  0.47169  Biso   1.000  O
  C1037    1.0000 0.72634  0.84390  0.42929  Biso   1.000  C
  C1038    1.0000 0.72010  0.87640  0.40810  Biso   1.000  C
  C1039    1.0000 0.73000  0.87640  0.37330  Biso   1.000  C
  H445     1.0000 0.74010  0.85660  0.36350  Biso   1.000  H
  C1040    1.0000 0.72470  0.90590  0.35290  Biso   1.000  C
  C1041    1.0000 0.70960  0.93540  0.36750  Biso   1.000  C
  H446     1.0000 0.70600  0.95520  0.35390  Biso   1.000  H
  C1042    1.0000 0.69970  0.93540  0.40230  Biso   1.000  C
  C1043    1.0000 0.70500  0.90590  0.42270  Biso   1.000  C
  H447     1.0000 0.69840  0.90590  0.44600  Biso   1.000  H
  C1044    1.0000 0.73271  0.91070  0.31581  Biso   1.000  C
  C1045    1.0000 0.68360  0.96860  0.41430  Biso   1.000  C
  C1046    1.0000 0.65590  0.96857  0.43800  Biso   1.000  C
  H448     1.0000 0.64680  0.94750  0.44590  Biso   1.000  H
  C1047    1.0000 0.75104  0.68474  0.41054  Biso   1.000  C
  C1048    1.0000 0.76000  0.64685  0.40879  Biso   1.000  C
  C1049    1.0000 0.75940  0.62791  0.37790  Biso   1.000  C
  H449     1.0000 0.74970  0.63760  0.35790  Biso   1.000  H
  C1050    1.0000 0.77320  0.59442  0.37687  Biso   1.000  C
  C1051    1.0000 0.78770  0.57987  0.40674  Biso   1.000  C
  H450     1.0000 0.79690  0.55750  0.40610  Biso   1.000  H
  C1052    1.0000 0.78830  0.59880  0.43763  Biso   1.000  C
  C1053    1.0000 0.77450  0.63230  0.43866  Biso   1.000  C
  H451     1.0000 0.77500  0.64500  0.45930  Biso   1.000  H
  C1054    1.0000 0.77460  0.57747  0.34190  Biso   1.000  C
  C1055    1.0000 0.80290  0.58170  0.46877  Biso   1.000  C
  C1056    1.0000 0.82940  0.55690  0.46847  Biso   1.000  C
  H452     1.0000 0.83820  0.54870  0.44740  Biso   1.000  H
  C1057    1.0000 0.72294  0.87700  0.40770  Biso   1.000  C
  C1058    1.0000 0.72915  0.87920  0.37210  Biso   1.000  C
  H453     1.0000 0.73590  0.85940  0.35970  Biso   1.000  H
  C1059    1.0000 0.72525  0.91080  0.35490  Biso   1.000  C
  C1060    1.0000 0.71510  0.94030  0.37340  Biso   1.000  C
  H454     1.0000 0.71250  0.96150  0.36190  Biso   1.000  H
  C1061    1.0000 0.70890  0.93820  0.40900  Biso   1.000  C
  C1062    1.0000 0.71283  0.90650  0.42620  Biso   1.000  C
  H455     1.0000 0.70870  0.90500  0.45000  Biso   1.000  H
  C1063    1.0000 0.69820  0.96861  0.42930  Biso   1.000  C
  C1064    1.0000 0.67610  0.96857  0.45800  Biso   1.000  C
  H456     1.0000 0.66870  0.94750  0.46760  Biso   1.000  H
  Sm39     1.0000 0.24333  0.74307  0.08890  Biso   1.000  Sm
  O343     1.0000 0.21930  0.65760  0.03846  Biso   1.000  O
  O344     1.0000 0.23780  0.68151  0.08729  Biso   1.000  O
  O345     1.0000 0.23898  0.61743  0.19982  Biso   1.000  O
  O346     1.0000 0.23280  0.56101  0.19990  Biso   1.000  O
  O347     1.0000 0.25120  0.79950  0.06107  Biso   1.000  O
  O348     1.0000 0.24350  0.79975  0.11683  Biso   1.000  O
  O349     1.0000 0.25522  0.91261  0.18207  Biso   1.000  O
  O350     1.0000 0.29620  0.94630  0.16060  Biso   1.000  O
  O351     1.0000 0.23015  0.73237  0.02831  Biso   1.000  O
  C1065    1.0000 0.22634  0.65610  0.07071  Biso   1.000  C
  C1066    1.0000 0.22010  0.62360  0.09190  Biso   1.000  C
  C1067    1.0000 0.23000  0.62360  0.12670  Biso   1.000  C
  H457     1.0000 0.24010  0.64340  0.13650  Biso   1.000  H
  C1068    1.0000 0.22470  0.59410  0.14710  Biso   1.000  C
  C1069    1.0000 0.20960  0.56460  0.13250  Biso   1.000  C
  H458     1.0000 0.20600  0.54480  0.14610  Biso   1.000  H
  C1070    1.0000 0.19970  0.56460  0.09770  Biso   1.000  C
  C1071    1.0000 0.20500  0.59410  0.07730  Biso   1.000  C
  H459     1.0000 0.19840  0.59410  0.05400  Biso   1.000  H
  C1072    1.0000 0.23271  0.58930  0.18419  Biso   1.000  C
  C1073    1.0000 0.18360  0.53140  0.08570  Biso   1.000  C
  C1074    1.0000 0.15590  0.53143  0.06200  Biso   1.000  C
  H460     1.0000 0.14680  0.55250  0.05410  Biso   1.000  H
  C1075    1.0000 0.25104  0.81526  0.08946  Biso   1.000  C
  C1076    1.0000 0.26000  0.85315  0.09121  Biso   1.000  C
  C1077    1.0000 0.25940  0.87209  0.12210  Biso   1.000  C
  H461     1.0000 0.24970  0.86240  0.14210  Biso   1.000  H
  C1078    1.0000 0.27320  0.90558  0.12313  Biso   1.000  C
  C1079    1.0000 0.28770  0.92013  0.09326  Biso   1.000  C
  H462     1.0000 0.29690  0.94250  0.09390  Biso   1.000  H
  C1080    1.0000 0.28830  0.90120  0.06237  Biso   1.000  C
  C1081    1.0000 0.27450  0.86770  0.06134  Biso   1.000  C
  H463     1.0000 0.27500  0.85500  0.04070  Biso   1.000  H
  C1082    1.0000 0.27460  0.92253  0.15810  Biso   1.000  C
  C1083    1.0000 0.30290  0.91830  0.03123  Biso   1.000  C
  C1084    1.0000 0.32940  0.94310  0.03153  Biso   1.000  C
  H464     1.0000 0.33820  0.95130  0.05260  Biso   1.000  H
  C1085    1.0000 0.22294  0.62300  0.09230  Biso   1.000  C
  C1086    1.0000 0.22915  0.62080  0.12790  Biso   1.000  C
  H465     1.0000 0.23590  0.64060  0.14030  Biso   1.000  H
  C1087    1.0000 0.22525  0.58920  0.14510  Biso   1.000  C
  C1088    1.0000 0.21510  0.55970  0.12660  Biso   1.000  C
  H466     1.0000 0.21250  0.53850  0.13810  Biso   1.000  H
  C1089    1.0000 0.20890  0.56180  0.09100  Biso   1.000  C
  C1090    1.0000 0.21283  0.59350  0.07380  Biso   1.000  C
  H467     1.0000 0.20870  0.59500  0.05000  Biso   1.000  H
  C1091    1.0000 0.19820  0.53139  0.07070  Biso   1.000  C
  C1092    1.0000 0.17610  0.53143  0.04200  Biso   1.000  C
  H468     1.0000 0.16870  0.55250  0.03240  Biso   1.000  H
  Sm40     1.0000 0.74333  0.24307  0.58890  Biso   1.000  Sm
  O352     1.0000 0.71930  0.15760  0.53846  Biso   1.000  O
  O353     1.0000 0.73780  0.18151  0.58729  Biso   1.000  O
  O354     1.0000 0.73898  0.11743  0.69982  Biso   1.000  O
  O355     1.0000 0.73280  0.06101  0.69990  Biso   1.000  O
  O356     1.0000 0.75120  0.29950  0.56107  Biso   1.000  O
  O357     1.0000 0.74350  0.29975  0.61683  Biso   1.000  O
  O358     1.0000 0.75522  0.41261  0.68207  Biso   1.000  O
  O359     1.0000 0.79620  0.44630  0.66060  Biso   1.000  O
  O360     1.0000 0.73015  0.23237  0.52831  Biso   1.000  O
  C1093    1.0000 0.72634  0.15610  0.57071  Biso   1.000  C
  C1094    1.0000 0.72010  0.12360  0.59190  Biso   1.000  C
  C1095    1.0000 0.73000  0.12360  0.62670  Biso   1.000  C
  H469     1.0000 0.74010  0.14340  0.63650  Biso   1.000  H
  C1096    1.0000 0.72470  0.09410  0.64710  Biso   1.000  C
  C1097    1.0000 0.70960  0.06460  0.63250  Biso   1.000  C
  H470     1.0000 0.70600  0.04480  0.64610  Biso   1.000  H
  C1098    1.0000 0.69970  0.06460  0.59770  Biso   1.000  C
  C1099    1.0000 0.70500  0.09410  0.57730  Biso   1.000  C
  H471     1.0000 0.69840  0.09410  0.55400  Biso   1.000  H
  C1100    1.0000 0.73271  0.08930  0.68419  Biso   1.000  C
  C1101    1.0000 0.68360  0.03140  0.58570  Biso   1.000  C
  C1102    1.0000 0.65590  0.03143  0.56200  Biso   1.000  C
  H472     1.0000 0.64680  0.05250  0.55410  Biso   1.000  H
  C1103    1.0000 0.75104  0.31526  0.58946  Biso   1.000  C
  C1104    1.0000 0.76000  0.35315  0.59121  Biso   1.000  C
  C1105    1.0000 0.75940  0.37209  0.62210  Biso   1.000  C
  H473     1.0000 0.74970  0.36240  0.64210  Biso   1.000  H
  C1106    1.0000 0.77320  0.40558  0.62313  Biso   1.000  C
  C1107    1.0000 0.78770  0.42013  0.59326  Biso   1.000  C
  H474     1.0000 0.79690  0.44250  0.59390  Biso   1.000  H
  C1108    1.0000 0.78830  0.40120  0.56237  Biso   1.000  C
  C1109    1.0000 0.77450  0.36770  0.56134  Biso   1.000  C
  H475     1.0000 0.77500  0.35500  0.54070  Biso   1.000  H
  C1110    1.0000 0.77460  0.42253  0.65810  Biso   1.000  C
  C1111    1.0000 0.80290  0.41830  0.53123  Biso   1.000  C
  C1112    1.0000 0.82940  0.44310  0.53153  Biso   1.000  C
  H476     1.0000 0.83820  0.45130  0.55260  Biso   1.000  H
  C1113    1.0000 0.72294  0.12300  0.59230  Biso   1.000  C
  C1114    1.0000 0.72915  0.12080  0.62790  Biso   1.000  C
  H477     1.0000 0.73590  0.14060  0.64030  Biso   1.000  H
  C1115    1.0000 0.72525  0.08920  0.64510  Biso   1.000  C
  C1116    1.0000 0.71510  0.05970  0.62660  Biso   1.000  C
  H478     1.0000 0.71250  0.03850  0.63810  Biso   1.000  H
  C1117    1.0000 0.70890  0.06180  0.59100  Biso   1.000  C
  C1118    1.0000 0.71283  0.09350  0.57380  Biso   1.000  C
  H479     1.0000 0.70870  0.09500  0.55000  Biso   1.000  H
  C1119    1.0000 0.69820  0.03139  0.57070  Biso   1.000  C
  C1120    1.0000 0.67610  0.03143  0.54200  Biso   1.000  C
  H480     1.0000 0.66870  0.05250  0.53240  Biso   1.000  H
  Sm41     1.0000 0.91110  0.75667  0.74307  Biso   1.000  Sm
  O361     1.0000 0.96154  0.78070  0.65760  Biso   1.000  O
  O362     1.0000 0.91271  0.76220  0.68151  Biso   1.000  O
  O363     1.0000 0.80018  0.76102  0.61743  Biso   1.000  O
  O364     1.0000 0.80010  0.76720  0.56101  Biso   1.000  O
  O365     1.0000 0.93893  0.74880  0.79950  Biso   1.000  O
  O366     1.0000 0.88317  0.75650  0.79975  Biso   1.000  O
  O367     1.0000 0.81793  0.74478  0.91261  Biso   1.000  O
  O368     1.0000 0.83940  0.70380  0.94630  Biso   1.000  O
  O369     1.0000 0.97169  0.76985  0.73237  Biso   1.000  O
  C1121    1.0000 0.92929  0.77366  0.65610  Biso   1.000  C
  C1122    1.0000 0.90810  0.77990  0.62360  Biso   1.000  C
  C1123    1.0000 0.87330  0.77000  0.62360  Biso   1.000  C
  H481     1.0000 0.86350  0.75990  0.64340  Biso   1.000  H
  C1124    1.0000 0.85290  0.77530  0.59410  Biso   1.000  C
  C1125    1.0000 0.86750  0.79040  0.56460  Biso   1.000  C
  H482     1.0000 0.85390  0.79400  0.54480  Biso   1.000  H
  C1126    1.0000 0.90230  0.80030  0.56460  Biso   1.000  C
  C1127    1.0000 0.92270  0.79500  0.59410  Biso   1.000  C
  H483     1.0000 0.94600  0.80160  0.59410  Biso   1.000  H
  C1128    1.0000 0.81581  0.76729  0.58930  Biso   1.000  C
  C1129    1.0000 0.91430  0.81640  0.53140  Biso   1.000  C
  C1130    1.0000 0.93800  0.84410  0.53143  Biso   1.000  C
  H484     1.0000 0.94590  0.85320  0.55250  Biso   1.000  H
  C1131    1.0000 0.91054  0.74896  0.81526  Biso   1.000  C
  C1132    1.0000 0.90879  0.74000  0.85315  Biso   1.000  C
  C1133    1.0000 0.87790  0.74060  0.87209  Biso   1.000  C
  H485     1.0000 0.85790  0.75030  0.86240  Biso   1.000  H
  C1134    1.0000 0.87687  0.72680  0.90558  Biso   1.000  C
  C1135    1.0000 0.90674  0.71230  0.92013  Biso   1.000  C
  H486     1.0000 0.90610  0.70310  0.94250  Biso   1.000  H
  C1136    1.0000 0.93763  0.71170  0.90120  Biso   1.000  C
  C1137    1.0000 0.93866  0.72550  0.86770  Biso   1.000  C
  H487     1.0000 0.95930  0.72500  0.85500  Biso   1.000  H
  C1138    1.0000 0.84190  0.72540  0.92253  Biso   1.000  C
  C1139    1.0000 0.96877  0.69710  0.91830  Biso   1.000  C
  C1140    1.0000 0.96847  0.67060  0.94310  Biso   1.000  C
  H488     1.0000 0.94740  0.66180  0.95130  Biso   1.000  H
  C1141    1.0000 0.90770  0.77706  0.62300  Biso   1.000  C
  C1142    1.0000 0.87210  0.77085  0.62080  Biso   1.000  C
  H489     1.0000 0.85970  0.76410  0.64060  Biso   1.000  H
  C1143    1.0000 0.85490  0.77475  0.58920  Biso   1.000  C
  C1144    1.0000 0.87340  0.78490  0.55970  Biso   1.000  C
  H490     1.0000 0.86190  0.78750  0.53850  Biso   1.000  H
  C1145    1.0000 0.90900  0.79110  0.56180  Biso   1.000  C
  C1146    1.0000 0.92620  0.78717  0.59350  Biso   1.000  C
  H491     1.0000 0.95000  0.79130  0.59500  Biso   1.000  H
  C1147    1.0000 0.92930  0.80180  0.53139  Biso   1.000  C
  C1148    1.0000 0.95800  0.82390  0.53143  Biso   1.000  C
  H492     1.0000 0.96760  0.83130  0.55250  Biso   1.000  H
  Sm42     1.0000 0.41110  0.25667  0.24307  Biso   1.000  Sm
  O370     1.0000 0.46154  0.28070  0.15760  Biso   1.000  O
  O371     1.0000 0.41271  0.26220  0.18151  Biso   1.000  O
  O372     1.0000 0.30018  0.26102  0.11743  Biso   1.000  O
  O373     1.0000 0.30010  0.26720  0.06101  Biso   1.000  O
  O374     1.0000 0.43893  0.24880  0.29950  Biso   1.000  O
  O375     1.0000 0.38317  0.25650  0.29975  Biso   1.000  O
  O376     1.0000 0.31793  0.24478  0.41261  Biso   1.000  O
  O377     1.0000 0.33940  0.20380  0.44630  Biso   1.000  O
  O378     1.0000 0.47169  0.26985  0.23237  Biso   1.000  O
  C1149    1.0000 0.42929  0.27366  0.15610  Biso   1.000  C
  C1150    1.0000 0.40810  0.27990  0.12360  Biso   1.000  C
  C1151    1.0000 0.37330  0.27000  0.12360  Biso   1.000  C
  H493     1.0000 0.36350  0.25990  0.14340  Biso   1.000  H
  C1152    1.0000 0.35290  0.27530  0.09410  Biso   1.000  C
  C1153    1.0000 0.36750  0.29040  0.06460  Biso   1.000  C
  H494     1.0000 0.35390  0.29400  0.04480  Biso   1.000  H
  C1154    1.0000 0.40230  0.30030  0.06460  Biso   1.000  C
  C1155    1.0000 0.42270  0.29500  0.09410  Biso   1.000  C
  H495     1.0000 0.44600  0.30160  0.09410  Biso   1.000  H
  C1156    1.0000 0.31581  0.26729  0.08930  Biso   1.000  C
  C1157    1.0000 0.41430  0.31640  0.03140  Biso   1.000  C
  C1158    1.0000 0.43800  0.34410  0.03143  Biso   1.000  C
  H496     1.0000 0.44590  0.35320  0.05250  Biso   1.000  H
  C1159    1.0000 0.41054  0.24896  0.31526  Biso   1.000  C
  C1160    1.0000 0.40879  0.24000  0.35315  Biso   1.000  C
  C1161    1.0000 0.37790  0.24060  0.37209  Biso   1.000  C
  H497     1.0000 0.35790  0.25030  0.36240  Biso   1.000  H
  C1162    1.0000 0.37687  0.22680  0.40558  Biso   1.000  C
  C1163    1.0000 0.40674  0.21230  0.42013  Biso   1.000  C
  H498     1.0000 0.40610  0.20310  0.44250  Biso   1.000  H
  C1164    1.0000 0.43763  0.21170  0.40120  Biso   1.000  C
  C1165    1.0000 0.43866  0.22550  0.36770  Biso   1.000  C
  H499     1.0000 0.45930  0.22500  0.35500  Biso   1.000  H
  C1166    1.0000 0.34190  0.22540  0.42253  Biso   1.000  C
  C1167    1.0000 0.46877  0.19710  0.41830  Biso   1.000  C
  C1168    1.0000 0.46847  0.17060  0.44310  Biso   1.000  C
  H500     1.0000 0.44740  0.16180  0.45130  Biso   1.000  H
  C1169    1.0000 0.40770  0.27706  0.12300  Biso   1.000  C
  C1170    1.0000 0.37210  0.27085  0.12080  Biso   1.000  C
  H501     1.0000 0.35970  0.26410  0.14060  Biso   1.000  H
  C1171    1.0000 0.35490  0.27475  0.08920  Biso   1.000  C
  C1172    1.0000 0.37340  0.28490  0.05970  Biso   1.000  C
  H502     1.0000 0.36190  0.28750  0.03850  Biso   1.000  H
  C1173    1.0000 0.40900  0.29110  0.06180  Biso   1.000  C
  C1174    1.0000 0.42620  0.28717  0.09350  Biso   1.000  C
  H503     1.0000 0.45000  0.29130  0.09500  Biso   1.000  H
  C1175    1.0000 0.42930  0.30180  0.03139  Biso   1.000  C
  C1176    1.0000 0.45800  0.32390  0.03143  Biso   1.000  C
  H504     1.0000 0.46760  0.33130  0.05250  Biso   1.000  H
  Sm43     1.0000 0.08890  0.75667  0.25693  Biso   1.000  Sm
  O379     1.0000 0.03846  0.78070  0.34240  Biso   1.000  O
  O380     1.0000 0.08729  0.76220  0.31849  Biso   1.000  O
  O381     1.0000 0.19982  0.76102  0.38257  Biso   1.000  O
  O382     1.0000 0.19990  0.76720  0.43899  Biso   1.000  O
  O383     1.0000 0.06107  0.74880  0.20050  Biso   1.000  O
  O384     1.0000 0.11683  0.75650  0.20025  Biso   1.000  O
  O385     1.0000 0.18207  0.74478  0.08739  Biso   1.000  O
  O386     1.0000 0.16060  0.70380  0.05370  Biso   1.000  O
  O387     1.0000 0.02831  0.76985  0.26763  Biso   1.000  O
  C1177    1.0000 0.07071  0.77366  0.34390  Biso   1.000  C
  C1178    1.0000 0.09190  0.77990  0.37640  Biso   1.000  C
  C1179    1.0000 0.12670  0.77000  0.37640  Biso   1.000  C
  H505     1.0000 0.13650  0.75990  0.35660  Biso   1.000  H
  C1180    1.0000 0.14710  0.77530  0.40590  Biso   1.000  C
  C1181    1.0000 0.13250  0.79040  0.43540  Biso   1.000  C
  H506     1.0000 0.14610  0.79400  0.45520  Biso   1.000  H
  C1182    1.0000 0.09770  0.80030  0.43540  Biso   1.000  C
  C1183    1.0000 0.07730  0.79500  0.40590  Biso   1.000  C
  H507     1.0000 0.05400  0.80160  0.40590  Biso   1.000  H
  C1184    1.0000 0.18419  0.76729  0.41070  Biso   1.000  C
  C1185    1.0000 0.08570  0.81640  0.46860  Biso   1.000  C
  C1186    1.0000 0.06200  0.84410  0.46857  Biso   1.000  C
  H508     1.0000 0.05410  0.85320  0.44750  Biso   1.000  H
  C1187    1.0000 0.08946  0.74896  0.18474  Biso   1.000  C
  C1188    1.0000 0.09121  0.74000  0.14685  Biso   1.000  C
  C1189    1.0000 0.12210  0.74060  0.12791  Biso   1.000  C
  H509     1.0000 0.14210  0.75030  0.13760  Biso   1.000  H
  C1190    1.0000 0.12313  0.72680  0.09442  Biso   1.000  C
  C1191    1.0000 0.09326  0.71230  0.07987  Biso   1.000  C
  H510     1.0000 0.09390  0.70310  0.05750  Biso   1.000  H
  C1192    1.0000 0.06237  0.71170  0.09880  Biso   1.000  C
  C1193    1.0000 0.06134  0.72550  0.13230  Biso   1.000  C
  H511     1.0000 0.04070  0.72500  0.14500  Biso   1.000  H
  C1194    1.0000 0.15810  0.72540  0.07747  Biso   1.000  C
  C1195    1.0000 0.03123  0.69710  0.08170  Biso   1.000  C
  C1196    1.0000 0.03153  0.67060  0.05690  Biso   1.000  C
  H512     1.0000 0.05260  0.66180  0.04870  Biso   1.000  H
  C1197    1.0000 0.09230  0.77706  0.37700  Biso   1.000  C
  C1198    1.0000 0.12790  0.77085  0.37920  Biso   1.000  C
  H513     1.0000 0.14030  0.76410  0.35940  Biso   1.000  H
  C1199    1.0000 0.14510  0.77475  0.41080  Biso   1.000  C
  C1200    1.0000 0.12660  0.78490  0.44030  Biso   1.000  C
  H514     1.0000 0.13810  0.78750  0.46150  Biso   1.000  H
  C1201    1.0000 0.09100  0.79110  0.43820  Biso   1.000  C
  C1202    1.0000 0.07380  0.78717  0.40650  Biso   1.000  C
  H515     1.0000 0.05000  0.79130  0.40500  Biso   1.000  H
  C1203    1.0000 0.07070  0.80180  0.46861  Biso   1.000  C
  C1204    1.0000 0.04200  0.82390  0.46857  Biso   1.000  C
  H516     1.0000 0.03240  0.83130  0.44750  Biso   1.000  H
  Sm44     1.0000 0.58890  0.25667  0.75693  Biso   1.000  Sm
  O388     1.0000 0.53846  0.28070  0.84240  Biso   1.000  O
  O389     1.0000 0.58729  0.26220  0.81849  Biso   1.000  O
  O390     1.0000 0.69982  0.26102  0.88257  Biso   1.000  O
  O391     1.0000 0.69990  0.26720  0.93899  Biso   1.000  O
  O392     1.0000 0.56107  0.24880  0.70050  Biso   1.000  O
  O393     1.0000 0.61683  0.25650  0.70025  Biso   1.000  O
  O394     1.0000 0.68207  0.24478  0.58739  Biso   1.000  O
  O395     1.0000 0.66060  0.20380  0.55370  Biso   1.000  O
  O396     1.0000 0.52831  0.26985  0.76763  Biso   1.000  O
  C1205    1.0000 0.57071  0.27366  0.84390  Biso   1.000  C
  C1206    1.0000 0.59190  0.27990  0.87640  Biso   1.000  C
  C1207    1.0000 0.62670  0.27000  0.87640  Biso   1.000  C
  H517     1.0000 0.63650  0.25990  0.85660  Biso   1.000  H
  C1208    1.0000 0.64710  0.27530  0.90590  Biso   1.000  C
  C1209    1.0000 0.63250  0.29040  0.93540  Biso   1.000  C
  H518     1.0000 0.64610  0.29400  0.95520  Biso   1.000  H
  C1210    1.0000 0.59770  0.30030  0.93540  Biso   1.000  C
  C1211    1.0000 0.57730  0.29500  0.90590  Biso   1.000  C
  H519     1.0000 0.55400  0.30160  0.90590  Biso   1.000  H
  C1212    1.0000 0.68419  0.26729  0.91070  Biso   1.000  C
  C1213    1.0000 0.58570  0.31640  0.96860  Biso   1.000  C
  C1214    1.0000 0.56200  0.34410  0.96857  Biso   1.000  C
  H520     1.0000 0.55410  0.35320  0.94750  Biso   1.000  H
  C1215    1.0000 0.58946  0.24896  0.68474  Biso   1.000  C
  C1216    1.0000 0.59121  0.24000  0.64685  Biso   1.000  C
  C1217    1.0000 0.62210  0.24060  0.62791  Biso   1.000  C
  H521     1.0000 0.64210  0.25030  0.63760  Biso   1.000  H
  C1218    1.0000 0.62313  0.22680  0.59442  Biso   1.000  C
  C1219    1.0000 0.59326  0.21230  0.57987  Biso   1.000  C
  H522     1.0000 0.59390  0.20310  0.55750  Biso   1.000  H
  C1220    1.0000 0.56237  0.21170  0.59880  Biso   1.000  C
  C1221    1.0000 0.56134  0.22550  0.63230  Biso   1.000  C
  H523     1.0000 0.54070  0.22500  0.64500  Biso   1.000  H
  C1222    1.0000 0.65810  0.22540  0.57747  Biso   1.000  C
  C1223    1.0000 0.53123  0.19710  0.58170  Biso   1.000  C
  C1224    1.0000 0.53153  0.17060  0.55690  Biso   1.000  C
  H524     1.0000 0.55260  0.16180  0.54870  Biso   1.000  H
  C1225    1.0000 0.59230  0.27706  0.87700  Biso   1.000  C
  C1226    1.0000 0.62790  0.27085  0.87920  Biso   1.000  C
  H525     1.0000 0.64030  0.26410  0.85940  Biso   1.000  H
  C1227    1.0000 0.64510  0.27475  0.91080  Biso   1.000  C
  C1228    1.0000 0.62660  0.28490  0.94030  Biso   1.000  C
  H526     1.0000 0.63810  0.28750  0.96150  Biso   1.000  H
  C1229    1.0000 0.59100  0.29110  0.93820  Biso   1.000  C
  C1230    1.0000 0.57380  0.28717  0.90650  Biso   1.000  C
  H527     1.0000 0.55000  0.29130  0.90500  Biso   1.000  H
  C1231    1.0000 0.57070  0.30180  0.96861  Biso   1.000  C
  C1232    1.0000 0.54200  0.32390  0.96857  Biso   1.000  C
  H528     1.0000 0.53240  0.33130  0.94750  Biso   1.000  H
  Sm45     1.0000 0.91110  0.24333  0.25693  Biso   1.000  Sm
  O397     1.0000 0.96154  0.21930  0.34240  Biso   1.000  O
  O398     1.0000 0.91271  0.23780  0.31849  Biso   1.000  O
  O399     1.0000 0.80018  0.23898  0.38257  Biso   1.000  O
  O400     1.0000 0.80010  0.23280  0.43899  Biso   1.000  O
  O401     1.0000 0.93893  0.25120  0.20050  Biso   1.000  O
  O402     1.0000 0.88317  0.24350  0.20025  Biso   1.000  O
  O403     1.0000 0.81793  0.25522  0.08739  Biso   1.000  O
  O404     1.0000 0.83940  0.29620  0.05370  Biso   1.000  O
  O405     1.0000 0.97169  0.23015  0.26763  Biso   1.000  O
  C1233    1.0000 0.92929  0.22634  0.34390  Biso   1.000  C
  C1234    1.0000 0.90810  0.22010  0.37640  Biso   1.000  C
  C1235    1.0000 0.87330  0.23000  0.37640  Biso   1.000  C
  H529     1.0000 0.86350  0.24010  0.35660  Biso   1.000  H
  C1236    1.0000 0.85290  0.22470  0.40590  Biso   1.000  C
  C1237    1.0000 0.86750  0.20960  0.43540  Biso   1.000  C
  H530     1.0000 0.85390  0.20600  0.45520  Biso   1.000  H
  C1238    1.0000 0.90230  0.19970  0.43540  Biso   1.000  C
  C1239    1.0000 0.92270  0.20500  0.40590  Biso   1.000  C
  H531     1.0000 0.94600  0.19840  0.40590  Biso   1.000  H
  C1240    1.0000 0.81581  0.23271  0.41070  Biso   1.000  C
  C1241    1.0000 0.91430  0.18360  0.46860  Biso   1.000  C
  C1242    1.0000 0.93800  0.15590  0.46857  Biso   1.000  C
  H532     1.0000 0.94590  0.14680  0.44750  Biso   1.000  H
  C1243    1.0000 0.91054  0.25104  0.18474  Biso   1.000  C
  C1244    1.0000 0.90879  0.26000  0.14685  Biso   1.000  C
  C1245    1.0000 0.87790  0.25940  0.12791  Biso   1.000  C
  H533     1.0000 0.85790  0.24970  0.13760  Biso   1.000  H
  C1246    1.0000 0.87687  0.27320  0.09442  Biso   1.000  C
  C1247    1.0000 0.90674  0.28770  0.07987  Biso   1.000  C
  H534     1.0000 0.90610  0.29690  0.05750  Biso   1.000  H
  C1248    1.0000 0.93763  0.28830  0.09880  Biso   1.000  C
  C1249    1.0000 0.93866  0.27450  0.13230  Biso   1.000  C
  H535     1.0000 0.95930  0.27500  0.14500  Biso   1.000  H
  C1250    1.0000 0.84190  0.27460  0.07747  Biso   1.000  C
  C1251    1.0000 0.96877  0.30290  0.08170  Biso   1.000  C
  C1252    1.0000 0.96847  0.32940  0.05690  Biso   1.000  C
  H536     1.0000 0.94740  0.33820  0.04870  Biso   1.000  H
  C1253    1.0000 0.90770  0.22294  0.37700  Biso   1.000  C
  C1254    1.0000 0.87210  0.22915  0.37920  Biso   1.000  C
  H537     1.0000 0.85970  0.23590  0.35940  Biso   1.000  H
  C1255    1.0000 0.85490  0.22525  0.41080  Biso   1.000  C
  C1256    1.0000 0.87340  0.21510  0.44030  Biso   1.000  C
  H538     1.0000 0.86190  0.21250  0.46150  Biso   1.000  H
  C1257    1.0000 0.90900  0.20890  0.43820  Biso   1.000  C
  C1258    1.0000 0.92620  0.21283  0.40650  Biso   1.000  C
  H539     1.0000 0.95000  0.20870  0.40500  Biso   1.000  H
  C1259    1.0000 0.92930  0.19820  0.46861  Biso   1.000  C
  C1260    1.0000 0.95800  0.17610  0.46857  Biso   1.000  C
  H540     1.0000 0.96760  0.16870  0.44750  Biso   1.000  H
  Sm46     1.0000 0.41110  0.74333  0.75693  Biso   1.000  Sm
  O406     1.0000 0.46154  0.71930  0.84240  Biso   1.000  O
  O407     1.0000 0.41271  0.73780  0.81849  Biso   1.000  O
  O408     1.0000 0.30018  0.73898  0.88257  Biso   1.000  O
  O409     1.0000 0.30010  0.73280  0.93899  Biso   1.000  O
  O410     1.0000 0.43893  0.75120  0.70050  Biso   1.000  O
  O411     1.0000 0.38317  0.74350  0.70025  Biso   1.000  O
  O412     1.0000 0.31793  0.75522  0.58739  Biso   1.000  O
  O413     1.0000 0.33940  0.79620  0.55370  Biso   1.000  O
  O414     1.0000 0.47169  0.73015  0.76763  Biso   1.000  O
  C1261    1.0000 0.42929  0.72634  0.84390  Biso   1.000  C
  C1262    1.0000 0.40810  0.72010  0.87640  Biso   1.000  C
  C1263    1.0000 0.37330  0.73000  0.87640  Biso   1.000  C
  H541     1.0000 0.36350  0.74010  0.85660  Biso   1.000  H
  C1264    1.0000 0.35290  0.72470  0.90590  Biso   1.000  C
  C1265    1.0000 0.36750  0.70960  0.93540  Biso   1.000  C
  H542     1.0000 0.35390  0.70600  0.95520  Biso   1.000  H
  C1266    1.0000 0.40230  0.69970  0.93540  Biso   1.000  C
  C1267    1.0000 0.42270  0.70500  0.90590  Biso   1.000  C
  H543     1.0000 0.44600  0.69840  0.90590  Biso   1.000  H
  C1268    1.0000 0.31581  0.73271  0.91070  Biso   1.000  C
  C1269    1.0000 0.41430  0.68360  0.96860  Biso   1.000  C
  C1270    1.0000 0.43800  0.65590  0.96857  Biso   1.000  C
  H544     1.0000 0.44590  0.64680  0.94750  Biso   1.000  H
  C1271    1.0000 0.41054  0.75104  0.68474  Biso   1.000  C
  C1272    1.0000 0.40879  0.76000  0.64685  Biso   1.000  C
  C1273    1.0000 0.37790  0.75940  0.62791  Biso   1.000  C
  H545     1.0000 0.35790  0.74970  0.63760  Biso   1.000  H
  C1274    1.0000 0.37687  0.77320  0.59442  Biso   1.000  C
  C1275    1.0000 0.40674  0.78770  0.57987  Biso   1.000  C
  H546     1.0000 0.40610  0.79690  0.55750  Biso   1.000  H
  C1276    1.0000 0.43763  0.78830  0.59880  Biso   1.000  C
  C1277    1.0000 0.43866  0.77450  0.63230  Biso   1.000  C
  H547     1.0000 0.45930  0.77500  0.64500  Biso   1.000  H
  C1278    1.0000 0.34190  0.77460  0.57747  Biso   1.000  C
  C1279    1.0000 0.46877  0.80290  0.58170  Biso   1.000  C
  C1280    1.0000 0.46847  0.82940  0.55690  Biso   1.000  C
  H548     1.0000 0.44740  0.83820  0.54870  Biso   1.000  H
  C1281    1.0000 0.40770  0.72294  0.87700  Biso   1.000  C
  C1282    1.0000 0.37210  0.72915  0.87920  Biso   1.000  C
  H549     1.0000 0.35970  0.73590  0.85940  Biso   1.000  H
  C1283    1.0000 0.35490  0.72525  0.91080  Biso   1.000  C
  C1284    1.0000 0.37340  0.71510  0.94030  Biso   1.000  C
  H550     1.0000 0.36190  0.71250  0.96150  Biso   1.000  H
  C1285    1.0000 0.40900  0.70890  0.93820  Biso   1.000  C
  C1286    1.0000 0.42620  0.71283  0.90650  Biso   1.000  C
  H551     1.0000 0.45000  0.70870  0.90500  Biso   1.000  H
  C1287    1.0000 0.42930  0.69820  0.96861  Biso   1.000  C
  C1288    1.0000 0.45800  0.67610  0.96857  Biso   1.000  C
  H552     1.0000 0.46760  0.66870  0.94750  Biso   1.000  H
  Sm47     1.0000 0.08890  0.24333  0.74307  Biso   1.000  Sm
  O415     1.0000 0.03846  0.21930  0.65760  Biso   1.000  O
  O416     1.0000 0.08729  0.23780  0.68151  Biso   1.000  O
  O417     1.0000 0.19982  0.23898  0.61743  Biso   1.000  O
  O418     1.0000 0.19990  0.23280  0.56101  Biso   1.000  O
  O419     1.0000 0.06107  0.25120  0.79950  Biso   1.000  O
  O420     1.0000 0.11683  0.24350  0.79975  Biso   1.000  O
  O421     1.0000 0.18207  0.25522  0.91261  Biso   1.000  O
  O422     1.0000 0.16060  0.29620  0.94630  Biso   1.000  O
  O423     1.0000 0.02831  0.23015  0.73237  Biso   1.000  O
  C1289    1.0000 0.07071  0.22634  0.65610  Biso   1.000  C
  C1290    1.0000 0.09190  0.22010  0.62360  Biso   1.000  C
  C1291    1.0000 0.12670  0.23000  0.62360  Biso   1.000  C
  H553     1.0000 0.13650  0.24010  0.64340  Biso   1.000  H
  C1292    1.0000 0.14710  0.22470  0.59410  Biso   1.000  C
  C1293    1.0000 0.13250  0.20960  0.56460  Biso   1.000  C
  H554     1.0000 0.14610  0.20600  0.54480  Biso   1.000  H
  C1294    1.0000 0.09770  0.19970  0.56460  Biso   1.000  C
  C1295    1.0000 0.07730  0.20500  0.59410  Biso   1.000  C
  H555     1.0000 0.05400  0.19840  0.59410  Biso   1.000  H
  C1296    1.0000 0.18419  0.23271  0.58930  Biso   1.000  C
  C1297    1.0000 0.08570  0.18360  0.53140  Biso   1.000  C
  C1298    1.0000 0.06200  0.15590  0.53143  Biso   1.000  C
  H556     1.0000 0.05410  0.14680  0.55250  Biso   1.000  H
  C1299    1.0000 0.08946  0.25104  0.81526  Biso   1.000  C
  C1300    1.0000 0.09121  0.26000  0.85315  Biso   1.000  C
  C1301    1.0000 0.12210  0.25940  0.87209  Biso   1.000  C
  H557     1.0000 0.14210  0.24970  0.86240  Biso   1.000  H
  C1302    1.0000 0.12313  0.27320  0.90558  Biso   1.000  C
  C1303    1.0000 0.09326  0.28770  0.92013  Biso   1.000  C
  H558     1.0000 0.09390  0.29690  0.94250  Biso   1.000  H
  C1304    1.0000 0.06237  0.28830  0.90120  Biso   1.000  C
  C1305    1.0000 0.06134  0.27450  0.86770  Biso   1.000  C
  H559     1.0000 0.04070  0.27500  0.85500  Biso   1.000  H
  C1306    1.0000 0.15810  0.27460  0.92253  Biso   1.000  C
  C1307    1.0000 0.03123  0.30290  0.91830  Biso   1.000  C
  C1308    1.0000 0.03153  0.32940  0.94310  Biso   1.000  C
  H560     1.0000 0.05260  0.33820  0.95130  Biso   1.000  H
  C1309    1.0000 0.09230  0.22294  0.62300  Biso   1.000  C
  C1310    1.0000 0.12790  0.22915  0.62080  Biso   1.000  C
  H561     1.0000 0.14030  0.23590  0.64060  Biso   1.000  H
  C1311    1.0000 0.14510  0.22525  0.58920  Biso   1.000  C
  C1312    1.0000 0.12660  0.21510  0.55970  Biso   1.000  C
  H562     1.0000 0.13810  0.21250  0.53850  Biso   1.000  H
  C1313    1.0000 0.09100  0.20890  0.56180  Biso   1.000  C
  C1314    1.0000 0.07380  0.21283  0.59350  Biso   1.000  C
  H563     1.0000 0.05000  0.20870  0.59500  Biso   1.000  H
  C1315    1.0000 0.07070  0.19820  0.53139  Biso   1.000  C
  C1316    1.0000 0.04200  0.17610  0.53143  Biso   1.000  C
  H564     1.0000 0.03240  0.16870  0.55250  Biso   1.000  H
  Sm48     1.0000 0.58890  0.74333  0.24307  Biso   1.000  Sm
  O424     1.0000 0.53846  0.71930  0.15760  Biso   1.000  O
  O425     1.0000 0.58729  0.73780  0.18151  Biso   1.000  O
  O426     1.0000 0.69982  0.73898  0.11743  Biso   1.000  O
  O427     1.0000 0.69990  0.73280  0.06101  Biso   1.000  O
  O428     1.0000 0.56107  0.75120  0.29950  Biso   1.000  O
  O429     1.0000 0.61683  0.74350  0.29975  Biso   1.000  O
  O430     1.0000 0.68207  0.75522  0.41261  Biso   1.000  O
  O431     1.0000 0.66060  0.79620  0.44630  Biso   1.000  O
  O432     1.0000 0.52831  0.73015  0.23237  Biso   1.000  O
  C1317    1.0000 0.57071  0.72634  0.15610  Biso   1.000  C
  C1318    1.0000 0.59190  0.72010  0.12360  Biso   1.000  C
  C1319    1.0000 0.62670  0.73000  0.12360  Biso   1.000  C
  H565     1.0000 0.63650  0.74010  0.14340  Biso   1.000  H
  C1320    1.0000 0.64710  0.72470  0.09410  Biso   1.000  C
  C1321    1.0000 0.63250  0.70960  0.06460  Biso   1.000  C
  H566     1.0000 0.64610  0.70600  0.04480  Biso   1.000  H
  C1322    1.0000 0.59770  0.69970  0.06460  Biso   1.000  C
  C1323    1.0000 0.57730  0.70500  0.09410  Biso   1.000  C
  H567     1.0000 0.55400  0.69840  0.09410  Biso   1.000  H
  C1324    1.0000 0.68419  0.73271  0.08930  Biso   1.000  C
  C1325    1.0000 0.58570  0.68360  0.03140  Biso   1.000  C
  C1326    1.0000 0.56200  0.65590  0.03143  Biso   1.000  C
  H568     1.0000 0.55410  0.64680  0.05250  Biso   1.000  H
  C1327    1.0000 0.58946  0.75104  0.31526  Biso   1.000  C
  C1328    1.0000 0.59121  0.76000  0.35315  Biso   1.000  C
  C1329    1.0000 0.62210  0.75940  0.37209  Biso   1.000  C
  H569     1.0000 0.64210  0.74970  0.36240  Biso   1.000  H
  C1330    1.0000 0.62313  0.77320  0.40558  Biso   1.000  C
  C1331    1.0000 0.59326  0.78770  0.42013  Biso   1.000  C
  H570     1.0000 0.59390  0.79690  0.44250  Biso   1.000  H
  C1332    1.0000 0.56237  0.78830  0.40120  Biso   1.000  C
  C1333    1.0000 0.56134  0.77450  0.36770  Biso   1.000  C
  H571     1.0000 0.54070  0.77500  0.35500  Biso   1.000  H
  C1334    1.0000 0.65810  0.77460  0.42253  Biso   1.000  C
  C1335    1.0000 0.53123  0.80290  0.41830  Biso   1.000  C
  C1336    1.0000 0.53153  0.82940  0.44310  Biso   1.000  C
  H572     1.0000 0.55260  0.83820  0.45130  Biso   1.000  H
  C1337    1.0000 0.59230  0.72294  0.12300  Biso   1.000  C
  C1338    1.0000 0.62790  0.72915  0.12080  Biso   1.000  C
  H573     1.0000 0.64030  0.73590  0.14060  Biso   1.000  H
  C1339    1.0000 0.64510  0.72525  0.08920  Biso   1.000  C
  C1340    1.0000 0.62660  0.71510  0.05970  Biso   1.000  C
  H574     1.0000 0.63810  0.71250  0.03850  Biso   1.000  H
  C1341    1.0000 0.59100  0.70890  0.06180  Biso   1.000  C
  C1342    1.0000 0.57380  0.71283  0.09350  Biso   1.000  C
  H575     1.0000 0.55000  0.70870  0.09500  Biso   1.000  H
  C1343    1.0000 0.57070  0.69820  0.03139  Biso   1.000  C
  C1344    1.0000 0.54200  0.67610  0.03143  Biso   1.000  C
  H576     1.0000 0.53240  0.66870  0.05250  Biso   1.000  H
  Sm49     1.0000 0.30942  0.00000  0.18572  Biso   1.000  Sm
  O433     1.0000 0.32370  0.00000  0.11910  Biso   1.000  O
  O434     1.0000 0.36860  0.00000  0.15330  Biso   1.000  O
  N1       1.0000 0.09430  0.00000  0.28940  Biso   1.000  N
  C1345    1.0000 0.04450  0.00000  0.34260  Biso   1.000  C
  H577     1.0000 0.02800  0.00000  0.36030  Biso   1.000  H
  C1346    1.0000 0.25690  0.00000  0.24190  Biso   1.000  C
  H578     1.0000 0.24050  0.00000  0.25970  Biso   1.000  H
  C1347    1.0000 0.35570  0.00000  0.12330  Biso   1.000  C
  H579     1.0000 0.37040  0.00000  0.10400  Biso   1.000  H
  Sm50     1.0000 0.80942  0.50000  0.68572  Biso   1.000  Sm
  O435     1.0000 0.82370  0.50000  0.61910  Biso   1.000  O
  O436     1.0000 0.86860  0.50000  0.65330  Biso   1.000  O
  N2       1.0000 0.59430  0.50000  0.78940  Biso   1.000  N
  C1348    1.0000 0.54450  0.50000  0.84260  Biso   1.000  C
  H580     1.0000 0.52800  0.50000  0.86030  Biso   1.000  H
  C1349    1.0000 0.75690  0.50000  0.74190  Biso   1.000  C
  H581     1.0000 0.74050  0.50000  0.75970  Biso   1.000  H
  C1350    1.0000 0.85570  0.50000  0.62330  Biso   1.000  C
  H582     1.0000 0.87040  0.50000  0.60400  Biso   1.000  H
  Sm51     1.0000 0.69058  0.00000  0.18572  Biso   1.000  Sm
  O437     1.0000 0.67630  0.00000  0.11910  Biso   1.000  O
  O438     1.0000 0.63140  0.00000  0.15330  Biso   1.000  O
  N3       1.0000 0.90570  0.00000  0.28940  Biso   1.000  N
  C1351    1.0000 0.95550  0.00000  0.34260  Biso   1.000  C
  H583     1.0000 0.97200  0.00000  0.36030  Biso   1.000  H
  C1352    1.0000 0.74310  0.00000  0.24190  Biso   1.000  C
  H584     1.0000 0.75950  0.00000  0.25970  Biso   1.000  H
  C1353    1.0000 0.64430  0.00000  0.12330  Biso   1.000  C
  H585     1.0000 0.62960  0.00000  0.10400  Biso   1.000  H
  Sm52     1.0000 0.19058  0.50000  0.68572  Biso   1.000  Sm
  O439     1.0000 0.17630  0.50000  0.61910  Biso   1.000  O
  O440     1.0000 0.13140  0.50000  0.65330  Biso   1.000  O
  N4       1.0000 0.40570  0.50000  0.78940  Biso   1.000  N
  C1354    1.0000 0.45550  0.50000  0.84260  Biso   1.000  C
  H586     1.0000 0.47200  0.50000  0.86030  Biso   1.000  H
  C1355    1.0000 0.24310  0.50000  0.74190  Biso   1.000  C
  H587     1.0000 0.25950  0.50000  0.75970  Biso   1.000  H
  C1356    1.0000 0.14430  0.50000  0.62330  Biso   1.000  C
  H588     1.0000 0.12960  0.50000  0.60400  Biso   1.000  H
  Sm53     1.0000 0.69058  0.00000  0.81428  Biso   1.000  Sm
  O441     1.0000 0.67630  0.00000  0.88090  Biso   1.000  O
  O442     1.0000 0.63140  0.00000  0.84670  Biso   1.000  O
  N5       1.0000 0.90570  0.00000  0.71060  Biso   1.000  N
  C1357    1.0000 0.95550  0.00000  0.65740  Biso   1.000  C
  H589     1.0000 0.97200  0.00000  0.63970  Biso   1.000  H
  C1358    1.0000 0.74310  0.00000  0.75810  Biso   1.000  C
  H590     1.0000 0.75950  0.00000  0.74030  Biso   1.000  H
  C1359    1.0000 0.64430  0.00000  0.87670  Biso   1.000  C
  H591     1.0000 0.62960  0.00000  0.89600  Biso   1.000  H
  Sm54     1.0000 0.19058  0.50000  0.31428  Biso   1.000  Sm
  O443     1.0000 0.17630  0.50000  0.38090  Biso   1.000  O
  O444     1.0000 0.13140  0.50000  0.34670  Biso   1.000  O
  N6       1.0000 0.40570  0.50000  0.21060  Biso   1.000  N
  C1360    1.0000 0.45550  0.50000  0.15740  Biso   1.000  C
  H592     1.0000 0.47200  0.50000  0.13970  Biso   1.000  H
  C1361    1.0000 0.24310  0.50000  0.25810  Biso   1.000  C
  H593     1.0000 0.25950  0.50000  0.24030  Biso   1.000  H
  C1362    1.0000 0.14430  0.50000  0.37670  Biso   1.000  C
  H594     1.0000 0.12960  0.50000  0.39600  Biso   1.000  H
  Sm55     1.0000 0.30942  0.00000  0.81428  Biso   1.000  Sm
  O445     1.0000 0.32370  0.00000  0.88090  Biso   1.000  O
  O446     1.0000 0.36860  0.00000  0.84670  Biso   1.000  O
  N7       1.0000 0.09430  0.00000  0.71060  Biso   1.000  N
  C1363    1.0000 0.04450  0.00000  0.65740  Biso   1.000  C
  H595     1.0000 0.02800  0.00000  0.63970  Biso   1.000  H
  C1364    1.0000 0.25690  0.00000  0.75810  Biso   1.000  C
  H596     1.0000 0.24050  0.00000  0.74030  Biso   1.000  H
  C1365    1.0000 0.35570  0.00000  0.87670  Biso   1.000  C
  H597     1.0000 0.37040  0.00000  0.89600  Biso   1.000  H
  Sm56     1.0000 0.80942  0.50000  0.31428  Biso   1.000  Sm
  O447     1.0000 0.82370  0.50000  0.38090  Biso   1.000  O
  O448     1.0000 0.86860  0.50000  0.34670  Biso   1.000  O
  N8       1.0000 0.59430  0.50000  0.21060  Biso   1.000  N
  C1366    1.0000 0.54450  0.50000  0.15740  Biso   1.000  C
  H598     1.0000 0.52800  0.50000  0.13970  Biso   1.000  H
  C1367    1.0000 0.75690  0.50000  0.25810  Biso   1.000  C
  H599     1.0000 0.74050  0.50000  0.24030  Biso   1.000  H
  C1368    1.0000 0.85570  0.50000  0.37670  Biso   1.000  C
  H600     1.0000 0.87040  0.50000  0.39600  Biso   1.000  H
  Sm57     1.0000 0.18572  0.30942  0.00000  Biso   1.000  Sm
  O449     1.0000 0.11910  0.32370  0.00000  Biso   1.000  O
  O450     1.0000 0.15330  0.36860  0.00000  Biso   1.000  O
  N9       1.0000 0.28940  0.09430  0.00000  Biso   1.000  N
  C1369    1.0000 0.34260  0.04450  0.00000  Biso   1.000  C
  H601     1.0000 0.36030  0.02800  0.00000  Biso   1.000  H
  C1370    1.0000 0.24190  0.25690  0.00000  Biso   1.000  C
  H602     1.0000 0.25970  0.24050  0.00000  Biso   1.000  H
  C1371    1.0000 0.12330  0.35570  0.00000  Biso   1.000  C
  H603     1.0000 0.10400  0.37040  0.00000  Biso   1.000  H
  Sm58     1.0000 0.68572  0.80942  0.50000  Biso   1.000  Sm
  O451     1.0000 0.61910  0.82370  0.50000  Biso   1.000  O
  O452     1.0000 0.65330  0.86860  0.50000  Biso   1.000  O
  N10      1.0000 0.78940  0.59430  0.50000  Biso   1.000  N
  C1372    1.0000 0.84260  0.54450  0.50000  Biso   1.000  C
  H604     1.0000 0.86030  0.52800  0.50000  Biso   1.000  H
  C1373    1.0000 0.74190  0.75690  0.50000  Biso   1.000  C
  H605     1.0000 0.75970  0.74050  0.50000  Biso   1.000  H
  C1374    1.0000 0.62330  0.85570  0.50000  Biso   1.000  C
  H606     1.0000 0.60400  0.87040  0.50000  Biso   1.000  H
  Sm59     1.0000 0.18572  0.69058  0.00000  Biso   1.000  Sm
  O453     1.0000 0.11910  0.67630  0.00000  Biso   1.000  O
  O454     1.0000 0.15330  0.63140  0.00000  Biso   1.000  O
  N11      1.0000 0.28940  0.90570  0.00000  Biso   1.000  N
  C1375    1.0000 0.34260  0.95550  0.00000  Biso   1.000  C
  H607     1.0000 0.36030  0.97200  0.00000  Biso   1.000  H
  C1376    1.0000 0.24190  0.74310  0.00000  Biso   1.000  C
  H608     1.0000 0.25970  0.75950  0.00000  Biso   1.000  H
  C1377    1.0000 0.12330  0.64430  0.00000  Biso   1.000  C
  H609     1.0000 0.10400  0.62960  0.00000  Biso   1.000  H
  Sm60     1.0000 0.68572  0.19058  0.50000  Biso   1.000  Sm
  O455     1.0000 0.61910  0.17630  0.50000  Biso   1.000  O
  O456     1.0000 0.65330  0.13140  0.50000  Biso   1.000  O
  N12      1.0000 0.78940  0.40570  0.50000  Biso   1.000  N
  C1378    1.0000 0.84260  0.45550  0.50000  Biso   1.000  C
  H610     1.0000 0.86030  0.47200  0.50000  Biso   1.000  H
  C1379    1.0000 0.74190  0.24310  0.50000  Biso   1.000  C
  H611     1.0000 0.75970  0.25950  0.50000  Biso   1.000  H
  C1380    1.0000 0.62330  0.14430  0.50000  Biso   1.000  C
  H612     1.0000 0.60400  0.12960  0.50000  Biso   1.000  H
  Sm61     1.0000 0.81428  0.69058  0.00000  Biso   1.000  Sm
  O457     1.0000 0.88090  0.67630  0.00000  Biso   1.000  O
  O458     1.0000 0.84670  0.63140  0.00000  Biso   1.000  O
  N13      1.0000 0.71060  0.90570  0.00000  Biso   1.000  N
  C1381    1.0000 0.65740  0.95550  0.00000  Biso   1.000  C
  H613     1.0000 0.63970  0.97200  0.00000  Biso   1.000  H
  C1382    1.0000 0.75810  0.74310  0.00000  Biso   1.000  C
  H614     1.0000 0.74030  0.75950  0.00000  Biso   1.000  H
  C1383    1.0000 0.87670  0.64430  0.00000  Biso   1.000  C
  H615     1.0000 0.89600  0.62960  0.00000  Biso   1.000  H
  Sm62     1.0000 0.31428  0.19058  0.50000  Biso   1.000  Sm
  O459     1.0000 0.38090  0.17630  0.50000  Biso   1.000  O
  O460     1.0000 0.34670  0.13140  0.50000  Biso   1.000  O
  N14      1.0000 0.21060  0.40570  0.50000  Biso   1.000  N
  C1384    1.0000 0.15740  0.45550  0.50000  Biso   1.000  C
  H616     1.0000 0.13970  0.47200  0.50000  Biso   1.000  H
  C1385    1.0000 0.25810  0.24310  0.50000  Biso   1.000  C
  H617     1.0000 0.24030  0.25950  0.50000  Biso   1.000  H
  C1386    1.0000 0.37670  0.14430  0.50000  Biso   1.000  C
  H618     1.0000 0.39600  0.12960  0.50000  Biso   1.000  H
  Sm63     1.0000 0.81428  0.30942  0.00000  Biso   1.000  Sm
  O461     1.0000 0.88090  0.32370  0.00000  Biso   1.000  O
  O462     1.0000 0.84670  0.36860  0.00000  Biso   1.000  O
  N15      1.0000 0.71060  0.09430  0.00000  Biso   1.000  N
  C1387    1.0000 0.65740  0.04450  0.00000  Biso   1.000  C
  H619     1.0000 0.63970  0.02800  0.00000  Biso   1.000  H
  C1388    1.0000 0.75810  0.25690  0.00000  Biso   1.000  C
  H620     1.0000 0.74030  0.24050  0.00000  Biso   1.000  H
  C1389    1.0000 0.87670  0.35570  0.00000  Biso   1.000  C
  H621     1.0000 0.89600  0.37040  0.00000  Biso   1.000  H
  Sm64     1.0000 0.31428  0.80942  0.50000  Biso   1.000  Sm
  O463     1.0000 0.38090  0.82370  0.50000  Biso   1.000  O
  O464     1.0000 0.34670  0.86860  0.50000  Biso   1.000  O
  N16      1.0000 0.21060  0.59430  0.50000  Biso   1.000  N
  C1390    1.0000 0.15740  0.54450  0.50000  Biso   1.000  C
  H622     1.0000 0.13970  0.52800  0.50000  Biso   1.000  H
  C1391    1.0000 0.25810  0.75690  0.50000  Biso   1.000  C
  H623     1.0000 0.24030  0.74050  0.50000  Biso   1.000  H
  C1392    1.0000 0.37670  0.85570  0.50000  Biso   1.000  C
  H624     1.0000 0.39600  0.87040  0.50000  Biso   1.000  H
  Sm65     1.0000 0.00000  0.18572  0.30942  Biso   1.000  Sm
  O465     1.0000 0.00000  0.11910  0.32370  Biso   1.000  O
  O466     1.0000 0.00000  0.15330  0.36860  Biso   1.000  O
  N17      1.0000 0.00000  0.28940  0.09430  Biso   1.000  N
  C1393    1.0000 0.00000  0.34260  0.04450  Biso   1.000  C
  H625     1.0000 0.00000  0.36030  0.02800  Biso   1.000  H
  C1394    1.0000 0.00000  0.24190  0.25690  Biso   1.000  C
  H626     1.0000 0.00000  0.25970  0.24050  Biso   1.000  H
  C1395    1.0000 0.00000  0.12330  0.35570  Biso   1.000  C
  H627     1.0000 0.00000  0.10400  0.37040  Biso   1.000  H
  Sm66     1.0000 0.50000  0.68572  0.80942  Biso   1.000  Sm
  O467     1.0000 0.50000  0.61910  0.82370  Biso   1.000  O
  O468     1.0000 0.50000  0.65330  0.86860  Biso   1.000  O
  N18      1.0000 0.50000  0.78940  0.59430  Biso   1.000  N
  C1396    1.0000 0.50000  0.84260  0.54450  Biso   1.000  C
  H628     1.0000 0.50000  0.86030  0.52800  Biso   1.000  H
  C1397    1.0000 0.50000  0.74190  0.75690  Biso   1.000  C
  H629     1.0000 0.50000  0.75970  0.74050  Biso   1.000  H
  C1398    1.0000 0.50000  0.62330  0.85570  Biso   1.000  C
  H630     1.0000 0.50000  0.60400  0.87040  Biso   1.000  H
  Sm67     1.0000 0.00000  0.18572  0.69058  Biso   1.000  Sm
  O469     1.0000 0.00000  0.11910  0.67630  Biso   1.000  O
  O470     1.0000 0.00000  0.15330  0.63140  Biso   1.000  O
  N19      1.0000 0.00000  0.28940  0.90570  Biso   1.000  N
  C1399    1.0000 0.00000  0.34260  0.95550  Biso   1.000  C
  H631     1.0000 0.00000  0.36030  0.97200  Biso   1.000  H
  C1400    1.0000 0.00000  0.24190  0.74310  Biso   1.000  C
  H632     1.0000 0.00000  0.25970  0.75950  Biso   1.000  H
  C1401    1.0000 0.00000  0.12330  0.64430  Biso   1.000  C
  H633     1.0000 0.00000  0.10400  0.62960  Biso   1.000  H
  Sm68     1.0000 0.50000  0.68572  0.19058  Biso   1.000  Sm
  O471     1.0000 0.50000  0.61910  0.17630  Biso   1.000  O
  O472     1.0000 0.50000  0.65330  0.13140  Biso   1.000  O
  N20      1.0000 0.50000  0.78940  0.40570  Biso   1.000  N
  C1402    1.0000 0.50000  0.84260  0.45550  Biso   1.000  C
  H634     1.0000 0.50000  0.86030  0.47200  Biso   1.000  H
  C1403    1.0000 0.50000  0.74190  0.24310  Biso   1.000  C
  H635     1.0000 0.50000  0.75970  0.25950  Biso   1.000  H
  C1404    1.0000 0.50000  0.62330  0.14430  Biso   1.000  C
  H636     1.0000 0.50000  0.60400  0.12960  Biso   1.000  H
  Sm69     1.0000 0.00000  0.81428  0.69058  Biso   1.000  Sm
  O473     1.0000 0.00000  0.88090  0.67630  Biso   1.000  O
  O474     1.0000 0.00000  0.84670  0.63140  Biso   1.000  O
  N21      1.0000 0.00000  0.71060  0.90570  Biso   1.000  N
  C1405    1.0000 0.00000  0.65740  0.95550  Biso   1.000  C
  H637     1.0000 0.00000  0.63970  0.97200  Biso   1.000  H
  C1406    1.0000 0.00000  0.75810  0.74310  Biso   1.000  C
  H638     1.0000 0.00000  0.74030  0.75950  Biso   1.000  H
  C1407    1.0000 0.00000  0.87670  0.64430  Biso   1.000  C
  H639     1.0000 0.00000  0.89600  0.62960  Biso   1.000  H
  Sm70     1.0000 0.50000  0.31428  0.19058  Biso   1.000  Sm
  O475     1.0000 0.50000  0.38090  0.17630  Biso   1.000  O
  O476     1.0000 0.50000  0.34670  0.13140  Biso   1.000  O
  N22      1.0000 0.50000  0.21060  0.40570  Biso   1.000  N
  C1408    1.0000 0.50000  0.15740  0.45550  Biso   1.000  C
  H640     1.0000 0.50000  0.13970  0.47200  Biso   1.000  H
  C1409    1.0000 0.50000  0.25810  0.24310  Biso   1.000  C
  H641     1.0000 0.50000  0.24030  0.25950  Biso   1.000  H
  C1410    1.0000 0.50000  0.37670  0.14430  Biso   1.000  C
  H642     1.0000 0.50000  0.39600  0.12960  Biso   1.000  H
  Sm71     1.0000 0.00000  0.81428  0.30942  Biso   1.000  Sm
  O477     1.0000 0.00000  0.88090  0.32370  Biso   1.000  O
  O478     1.0000 0.00000  0.84670  0.36860  Biso   1.000  O
  N23      1.0000 0.00000  0.71060  0.09430  Biso   1.000  N
  C1411    1.0000 0.00000  0.65740  0.04450  Biso   1.000  C
  H643     1.0000 0.00000  0.63970  0.02800  Biso   1.000  H
  C1412    1.0000 0.00000  0.75810  0.25690  Biso   1.000  C
  H644     1.0000 0.00000  0.74030  0.24050  Biso   1.000  H
  C1413    1.0000 0.00000  0.87670  0.35570  Biso   1.000  C
  H645     1.0000 0.00000  0.89600  0.37040  Biso   1.000  H
  Sm72     1.0000 0.50000  0.31428  0.80942  Biso   1.000  Sm
  O479     1.0000 0.50000  0.38090  0.82370  Biso   1.000  O
  O480     1.0000 0.50000  0.34670  0.86860  Biso   1.000  O
  N24      1.0000 0.50000  0.21060  0.59430  Biso   1.000  N
  C1414    1.0000 0.50000  0.15740  0.54450  Biso   1.000  C
  H646     1.0000 0.50000  0.13970  0.52800  Biso   1.000  H
  C1415    1.0000 0.50000  0.25810  0.75690  Biso   1.000  C
  H647     1.0000 0.50000  0.24030  0.74050  Biso   1.000  H
  C1416    1.0000 0.50000  0.37670  0.85570  Biso   1.000  C
  H648     1.0000 0.50000  0.39600  0.87040  Biso   1.000  H
  N25      1.0000 0.50000  0.09730  0.19710  Biso   1.000  N
  C1417    1.0000 0.50000  0.05010  0.14210  Biso   1.000  C
  H649     1.0000 0.50000  0.03440  0.12360  Biso   1.000  H
  N26      1.0000 0.50000  0.08500  0.20930  Biso   1.000  N
  C1418    1.0000 0.50000  0.02760  0.16490  Biso   1.000  C
  H650     1.0000 0.50000  0.00840  0.15010  Biso   1.000  H
  N27      1.0000 0.00000  0.59730  0.69710  Biso   1.000  N
  C1419    1.0000 0.00000  0.55010  0.64210  Biso   1.000  C
  H651     1.0000 0.00000  0.53440  0.62360  Biso   1.000  H
  N28      1.0000 0.00000  0.58500  0.70930  Biso   1.000  N
  C1420    1.0000 0.00000  0.52760  0.66490  Biso   1.000  C
  H652     1.0000 0.00000  0.50840  0.65010  Biso   1.000  H
  N29      1.0000 0.50000  0.90270  0.19710  Biso   1.000  N
  C1421    1.0000 0.50000  0.94990  0.14210  Biso   1.000  C
  H653     1.0000 0.50000  0.96560  0.12360  Biso   1.000  H
  N30      1.0000 0.50000  0.91500  0.20930  Biso   1.000  N
  C1422    1.0000 0.50000  0.97240  0.16490  Biso   1.000  C
  H654     1.0000 0.50000  0.99160  0.15010  Biso   1.000  H
  N31      1.0000 0.00000  0.40270  0.69710  Biso   1.000  N
  C1423    1.0000 0.00000  0.44990  0.64210  Biso   1.000  C
  H655     1.0000 0.00000  0.46560  0.62360  Biso   1.000  H
  N32      1.0000 0.00000  0.41500  0.70930  Biso   1.000  N
  C1424    1.0000 0.00000  0.47240  0.66490  Biso   1.000  C
  H656     1.0000 0.00000  0.49160  0.65010  Biso   1.000  H
  N33      1.0000 0.50000  0.09730  0.80290  Biso   1.000  N
  C1425    1.0000 0.50000  0.05010  0.85790  Biso   1.000  C
  H657     1.0000 0.50000  0.03440  0.87640  Biso   1.000  H
  N34      1.0000 0.50000  0.08500  0.79070  Biso   1.000  N
  C1426    1.0000 0.50000  0.02760  0.83510  Biso   1.000  C
  H658     1.0000 0.50000  0.00840  0.84990  Biso   1.000  H
  N35      1.0000 0.00000  0.59730  0.30290  Biso   1.000  N
  C1427    1.0000 0.00000  0.55010  0.35790  Biso   1.000  C
  H659     1.0000 0.00000  0.53440  0.37640  Biso   1.000  H
  N36      1.0000 0.00000  0.58500  0.29070  Biso   1.000  N
  C1428    1.0000 0.00000  0.52760  0.33510  Biso   1.000  C
  H660     1.0000 0.00000  0.50840  0.34990  Biso   1.000  H
  N37      1.0000 0.50000  0.90270  0.80290  Biso   1.000  N
  C1429    1.0000 0.50000  0.94990  0.85790  Biso   1.000  C
  H661     1.0000 0.50000  0.96560  0.87640  Biso   1.000  H
  N38      1.0000 0.50000  0.91500  0.79070  Biso   1.000  N
  C1430    1.0000 0.50000  0.97240  0.83510  Biso   1.000  C
  H662     1.0000 0.50000  0.99160  0.84990  Biso   1.000  H
  N39      1.0000 0.00000  0.40270  0.30290  Biso   1.000  N
  C1431    1.0000 0.00000  0.44990  0.35790  Biso   1.000  C
  H663     1.0000 0.00000  0.46560  0.37640  Biso   1.000  H
  N40      1.0000 0.00000  0.41500  0.29070  Biso   1.000  N
  C1432    1.0000 0.00000  0.47240  0.33510  Biso   1.000  C
  H664     1.0000 0.00000  0.49160  0.34990  Biso   1.000  H
  N41      1.0000 0.19710  0.50000  0.09730  Biso   1.000  N
  C1433    1.0000 0.14210  0.50000  0.05010  Biso   1.000  C
  H665     1.0000 0.12360  0.50000  0.03440  Biso   1.000  H
  N42      1.0000 0.20930  0.50000  0.08500  Biso   1.000  N
  C1434    1.0000 0.16490  0.50000  0.02760  Biso   1.000  C
  H666     1.0000 0.15010  0.50000  0.00840  Biso   1.000  H
  N43      1.0000 0.69710  0.00000  0.59730  Biso   1.000  N
  C1435    1.0000 0.64210  0.00000  0.55010  Biso   1.000  C
  H667     1.0000 0.62360  0.00000  0.53440  Biso   1.000  H
  N44      1.0000 0.70930  0.00000  0.58500  Biso   1.000  N
  C1436    1.0000 0.66490  0.00000  0.52760  Biso   1.000  C
  H668     1.0000 0.65010  0.00000  0.50840  Biso   1.000  H
  N45      1.0000 0.19710  0.50000  0.90270  Biso   1.000  N
  C1437    1.0000 0.14210  0.50000  0.94990  Biso   1.000  C
  H669     1.0000 0.12360  0.50000  0.96560  Biso   1.000  H
  N46      1.0000 0.20930  0.50000  0.91500  Biso   1.000  N
  C1438    1.0000 0.16490  0.50000  0.97240  Biso   1.000  C
  H670     1.0000 0.15010  0.50000  0.99160  Biso   1.000  H
  N47      1.0000 0.69710  0.00000  0.40270  Biso   1.000  N
  C1439    1.0000 0.64210  0.00000  0.44990  Biso   1.000  C
  H671     1.0000 0.62360  0.00000  0.46560  Biso   1.000  H
  N48      1.0000 0.70930  0.00000  0.41500  Biso   1.000  N
  C1440    1.0000 0.66490  0.00000  0.47240  Biso   1.000  C
  H672     1.0000 0.65010  0.00000  0.49160  Biso   1.000  H
  N49      1.0000 0.80290  0.50000  0.09730  Biso   1.000  N
  C1441    1.0000 0.85790  0.50000  0.05010  Biso   1.000  C
  H673     1.0000 0.87640  0.50000  0.03440  Biso   1.000  H
  N50      1.0000 0.79070  0.50000  0.08500  Biso   1.000  N
  C1442    1.0000 0.83510  0.50000  0.02760  Biso   1.000  C
  H674     1.0000 0.84990  0.50000  0.00840  Biso   1.000  H
  N51      1.0000 0.30290  0.00000  0.59730  Biso   1.000  N
  C1443    1.0000 0.35790  0.00000  0.55010  Biso   1.000  C
  H675     1.0000 0.37640  0.00000  0.53440  Biso   1.000  H
  N52      1.0000 0.29070  0.00000  0.58500  Biso   1.000  N
  C1444    1.0000 0.33510  0.00000  0.52760  Biso   1.000  C
  H676     1.0000 0.34990  0.00000  0.50840  Biso   1.000  H
  N53      1.0000 0.80290  0.50000  0.90270  Biso   1.000  N
  C1445    1.0000 0.85790  0.50000  0.94990  Biso   1.000  C
  H677     1.0000 0.87640  0.50000  0.96560  Biso   1.000  H
  N54      1.0000 0.79070  0.50000  0.91500  Biso   1.000  N
  C1446    1.0000 0.83510  0.50000  0.97240  Biso   1.000  C
  H678     1.0000 0.84990  0.50000  0.99160  Biso   1.000  H
  N55      1.0000 0.30290  0.00000  0.40270  Biso   1.000  N
  C1447    1.0000 0.35790  0.00000  0.44990  Biso   1.000  C
  H679     1.0000 0.37640  0.00000  0.46560  Biso   1.000  H
  N56      1.0000 0.29070  0.00000  0.41500  Biso   1.000  N
  C1448    1.0000 0.33510  0.00000  0.47240  Biso   1.000  C
  H680     1.0000 0.34990  0.00000  0.49160  Biso   1.000  H
  N57      1.0000 0.09730  0.19710  0.50000  Biso   1.000  N
  C1449    1.0000 0.05010  0.14210  0.50000  Biso   1.000  C
  H681     1.0000 0.03440  0.12360  0.50000  Biso   1.000  H
  N58      1.0000 0.08500  0.20930  0.50000  Biso   1.000  N
  C1450    1.0000 0.02760  0.16490  0.50000  Biso   1.000  C
  H682     1.0000 0.00840  0.15010  0.50000  Biso   1.000  H
  N59      1.0000 0.59730  0.69710  0.00000  Biso   1.000  N
  C1451    1.0000 0.55010  0.64210  0.00000  Biso   1.000  C
  H683     1.0000 0.53440  0.62360  0.00000  Biso   1.000  H
  N60      1.0000 0.58500  0.70930  0.00000  Biso   1.000  N
  C1452    1.0000 0.52760  0.66490  0.00000  Biso   1.000  C
  H684     1.0000 0.50840  0.65010  0.00000  Biso   1.000  H
  N61      1.0000 0.90270  0.19710  0.50000  Biso   1.000  N
  C1453    1.0000 0.94990  0.14210  0.50000  Biso   1.000  C
  H685     1.0000 0.96560  0.12360  0.50000  Biso   1.000  H
  N62      1.0000 0.91500  0.20930  0.50000  Biso   1.000  N
  C1454    1.0000 0.97240  0.16490  0.50000  Biso   1.000  C
  H686     1.0000 0.99160  0.15010  0.50000  Biso   1.000  H
  N63      1.0000 0.40270  0.69710  0.00000  Biso   1.000  N
  C1455    1.0000 0.44990  0.64210  0.00000  Biso   1.000  C
  H687     1.0000 0.46560  0.62360  0.00000  Biso   1.000  H
  N64      1.0000 0.41500  0.70930  0.00000  Biso   1.000  N
  C1456    1.0000 0.47240  0.66490  0.00000  Biso   1.000  C
  H688     1.0000 0.49160  0.65010  0.00000  Biso   1.000  H
  N65      1.0000 0.09730  0.80290  0.50000  Biso   1.000  N
  C1457    1.0000 0.05010  0.85790  0.50000  Biso   1.000  C
  H689     1.0000 0.03440  0.87640  0.50000  Biso   1.000  H
  N66      1.0000 0.08500  0.79070  0.50000  Biso   1.000  N
  C1458    1.0000 0.02760  0.83510  0.50000  Biso   1.000  C
  H690     1.0000 0.00840  0.84990  0.50000  Biso   1.000  H
  N67      1.0000 0.59730  0.30290  0.00000  Biso   1.000  N
  C1459    1.0000 0.55010  0.35790  0.00000  Biso   1.000  C
  H691     1.0000 0.53440  0.37640  0.00000  Biso   1.000  H
  N68      1.0000 0.58500  0.29070  0.00000  Biso   1.000  N
  C1460    1.0000 0.52760  0.33510  0.00000  Biso   1.000  C
  H692     1.0000 0.50840  0.34990  0.00000  Biso   1.000  H
  N69      1.0000 0.90270  0.80290  0.50000  Biso   1.000  N
  C1461    1.0000 0.94990  0.85790  0.50000  Biso   1.000  C
  H693     1.0000 0.96560  0.87640  0.50000  Biso   1.000  H
  N70      1.0000 0.91500  0.79070  0.50000  Biso   1.000  N
  C1462    1.0000 0.97240  0.83510  0.50000  Biso   1.000  C
  H694     1.0000 0.99160  0.84990  0.50000  Biso   1.000  H
  N71      1.0000 0.40270  0.30290  0.00000  Biso   1.000  N
  C1463    1.0000 0.44990  0.35790  0.00000  Biso   1.000  C
  H695     1.0000 0.46560  0.37640  0.00000  Biso   1.000  H
  N72      1.0000 0.41500  0.29070  0.00000  Biso   1.000  N
  C1464    1.0000 0.47240  0.33510  0.00000  Biso   1.000  C
  H696     1.0000 0.49160  0.34990  0.00000  Biso   1.000  H
