data_image0
_cell_length_a       35.934
_cell_length_b       35.934
_cell_length_c       35.934
_cell_angle_alpha    90
_cell_angle_beta     90
_cell_angle_gamma    90

_symmetry_space_group_name_H-M    "P 1"
_symmetry_int_tables_number       1

loop_
  _symmetry_equiv_pos_as_xyz
  'x, y, z'

loop_
  _atom_site_label
  _atom_site_occupancy
  _atom_site_fract_x
  _atom_site_fract_y
  _atom_site_fract_z
  _atom_site_thermal_displace_type
  _atom_site_B_iso_or_equiv
  _atom_site_type_symbol
  O1       1.0000 0.30226  0.29288  0.21259  Biso   1.000  O
  O2       1.0000 0.32664  0.24805  0.24854  Biso   1.000  O
  C1       1.0000 0.32856  0.27876  0.23172  Biso   1.000  C
  C2       1.0000 0.36394  0.29979  0.23388  Biso   1.000  C
  C3       1.0000 0.39411  0.28566  0.25262  Biso   1.000  C
  H1       1.0000 0.39230  0.26240  0.26390  Biso   1.000  H
  C4       1.0000 0.36697  0.33450  0.21663  Biso   1.000  C
  H2       1.0000 0.34680  0.34440  0.20390  Biso   1.000  H
  C5       1.0000 0.42707  0.30531  0.25503  Biso   1.000  C
  H3       1.0000 0.44700  0.29550  0.26830  Biso   1.000  H
  C6       1.0000 0.40001  0.35408  0.21856  Biso   1.000  C
  H4       1.0000 0.40180  0.37710  0.20700  Biso   1.000  H
  C7       1.0000 0.43067  0.33999  0.23752  Biso   1.000  C
  C8       1.0000 0.46612  0.36106  0.23975  Biso   1.000  C
  C9       1.0000 0.46655  0.39955  0.24043  Biso   1.000  C
  H5       1.0000 0.44400  0.41230  0.24120  Biso   1.000  H
  C10      1.0000 0.52590  0.47930  0.22280  Biso   1.000  C
  H6       1.0000 0.54610  0.46600  0.21020  Biso   1.000  H
  C11      1.0000 0.52480  0.47965  0.25960  Biso   1.000  C
  H7       1.0000 0.54430  0.46650  0.27350  Biso   1.000  H
  O3       1.0000 0.69774  0.70712  0.21259  Biso   1.000  O
  O4       1.0000 0.67336  0.75195  0.24854  Biso   1.000  O
  C12      1.0000 0.67144  0.72124  0.23172  Biso   1.000  C
  C13      1.0000 0.63606  0.70021  0.23388  Biso   1.000  C
  C14      1.0000 0.60589  0.71434  0.25262  Biso   1.000  C
  H8       1.0000 0.60770  0.73760  0.26390  Biso   1.000  H
  C15      1.0000 0.63303  0.66550  0.21663  Biso   1.000  C
  H9       1.0000 0.65320  0.65560  0.20390  Biso   1.000  H
  C16      1.0000 0.57293  0.69469  0.25503  Biso   1.000  C
  H10      1.0000 0.55300  0.70450  0.26830  Biso   1.000  H
  C17      1.0000 0.59999  0.64592  0.21856  Biso   1.000  C
  H11      1.0000 0.59820  0.62290  0.20700  Biso   1.000  H
  C18      1.0000 0.56933  0.66001  0.23752  Biso   1.000  C
  C19      1.0000 0.53388  0.63894  0.23975  Biso   1.000  C
  C20      1.0000 0.53345  0.60045  0.24043  Biso   1.000  C
  H12      1.0000 0.55600  0.58770  0.24120  Biso   1.000  H
  C21      1.0000 0.47410  0.52070  0.22280  Biso   1.000  C
  H13      1.0000 0.45390  0.53400  0.21020  Biso   1.000  H
  C22      1.0000 0.47520  0.52035  0.25960  Biso   1.000  C
  H14      1.0000 0.45570  0.53350  0.27350  Biso   1.000  H
  O5       1.0000 0.69774  0.29288  0.78741  Biso   1.000  O
  O6       1.0000 0.67336  0.24805  0.75146  Biso   1.000  O
  C23      1.0000 0.67144  0.27876  0.76828  Biso   1.000  C
  C24      1.0000 0.63606  0.29979  0.76612  Biso   1.000  C
  C25      1.0000 0.60589  0.28566  0.74738  Biso   1.000  C
  H15      1.0000 0.60770  0.26240  0.73610  Biso   1.000  H
  C26      1.0000 0.63303  0.33450  0.78337  Biso   1.000  C
  H16      1.0000 0.65320  0.34440  0.79610  Biso   1.000  H
  C27      1.0000 0.57293  0.30531  0.74497  Biso   1.000  C
  H17      1.0000 0.55300  0.29550  0.73170  Biso   1.000  H
  C28      1.0000 0.59999  0.35408  0.78144  Biso   1.000  C
  H18      1.0000 0.59820  0.37710  0.79300  Biso   1.000  H
  C29      1.0000 0.56933  0.33999  0.76248  Biso   1.000  C
  C30      1.0000 0.53388  0.36106  0.76025  Biso   1.000  C
  C31      1.0000 0.53345  0.39955  0.75957  Biso   1.000  C
  H19      1.0000 0.55600  0.41230  0.75880  Biso   1.000  H
  C32      1.0000 0.47410  0.47930  0.77720  Biso   1.000  C
  H20      1.0000 0.45390  0.46600  0.78980  Biso   1.000  H
  C33      1.0000 0.47520  0.47965  0.74040  Biso   1.000  C
  H21      1.0000 0.45570  0.46650  0.72650  Biso   1.000  H
  O7       1.0000 0.30226  0.70712  0.78741  Biso   1.000  O
  O8       1.0000 0.32664  0.75195  0.75146  Biso   1.000  O
  C34      1.0000 0.32856  0.72124  0.76828  Biso   1.000  C
  C35      1.0000 0.36394  0.70021  0.76612  Biso   1.000  C
  C36      1.0000 0.39411  0.71434  0.74738  Biso   1.000  C
  H22      1.0000 0.39230  0.73760  0.73610  Biso   1.000  H
  C37      1.0000 0.36697  0.66550  0.78337  Biso   1.000  C
  H23      1.0000 0.34680  0.65560  0.79610  Biso   1.000  H
  C38      1.0000 0.42707  0.69469  0.74497  Biso   1.000  C
  H24      1.0000 0.44700  0.70450  0.73170  Biso   1.000  H
  C39      1.0000 0.40001  0.64592  0.78144  Biso   1.000  C
  H25      1.0000 0.40180  0.62290  0.79300  Biso   1.000  H
  C40      1.0000 0.43067  0.66001  0.76248  Biso   1.000  C
  C41      1.0000 0.46612  0.63894  0.76025  Biso   1.000  C
  C42      1.0000 0.46655  0.60045  0.75957  Biso   1.000  C
  H26      1.0000 0.44400  0.58770  0.75880  Biso   1.000  H
  C43      1.0000 0.52590  0.52070  0.77720  Biso   1.000  C
  H27      1.0000 0.54610  0.53400  0.78980  Biso   1.000  H
  C44      1.0000 0.52480  0.52035  0.74040  Biso   1.000  C
  H28      1.0000 0.54430  0.53350  0.72650  Biso   1.000  H
  O9       1.0000 0.21259  0.30226  0.29288  Biso   1.000  O
  O10      1.0000 0.24854  0.32664  0.24805  Biso   1.000  O
  C45      1.0000 0.23172  0.32856  0.27876  Biso   1.000  C
  C46      1.0000 0.23388  0.36394  0.29979  Biso   1.000  C
  C47      1.0000 0.25262  0.39411  0.28566  Biso   1.000  C
  H29      1.0000 0.26390  0.39230  0.26240  Biso   1.000  H
  C48      1.0000 0.21663  0.36697  0.33450  Biso   1.000  C
  H30      1.0000 0.20390  0.34680  0.34440  Biso   1.000  H
  C49      1.0000 0.25503  0.42707  0.30531  Biso   1.000  C
  H31      1.0000 0.26830  0.44700  0.29550  Biso   1.000  H
  C50      1.0000 0.21856  0.40001  0.35408  Biso   1.000  C
  H32      1.0000 0.20700  0.40180  0.37710  Biso   1.000  H
  C51      1.0000 0.23752  0.43067  0.33999  Biso   1.000  C
  C52      1.0000 0.23975  0.46612  0.36106  Biso   1.000  C
  C53      1.0000 0.24043  0.46655  0.39955  Biso   1.000  C
  H33      1.0000 0.24120  0.44400  0.41230  Biso   1.000  H
  C54      1.0000 0.22280  0.52590  0.47930  Biso   1.000  C
  H34      1.0000 0.21020  0.54610  0.46600  Biso   1.000  H
  C55      1.0000 0.25960  0.52480  0.47965  Biso   1.000  C
  H35      1.0000 0.27350  0.54430  0.46650  Biso   1.000  H
  O11      1.0000 0.21259  0.69774  0.70712  Biso   1.000  O
  O12      1.0000 0.24854  0.67336  0.75195  Biso   1.000  O
  C56      1.0000 0.23172  0.67144  0.72124  Biso   1.000  C
  C57      1.0000 0.23388  0.63606  0.70021  Biso   1.000  C
  C58      1.0000 0.25262  0.60589  0.71434  Biso   1.000  C
  H36      1.0000 0.26390  0.60770  0.73760  Biso   1.000  H
  C59      1.0000 0.21663  0.63303  0.66550  Biso   1.000  C
  H37      1.0000 0.20390  0.65320  0.65560  Biso   1.000  H
  C60      1.0000 0.25503  0.57293  0.69469  Biso   1.000  C
  H38      1.0000 0.26830  0.55300  0.70450  Biso   1.000  H
  C61      1.0000 0.21856  0.59999  0.64592  Biso   1.000  C
  H39      1.0000 0.20700  0.59820  0.62290  Biso   1.000  H
  C62      1.0000 0.23752  0.56933  0.66001  Biso   1.000  C
  C63      1.0000 0.23975  0.53388  0.63894  Biso   1.000  C
  C64      1.0000 0.24043  0.53345  0.60045  Biso   1.000  C
  H40      1.0000 0.24120  0.55600  0.58770  Biso   1.000  H
  C65      1.0000 0.22280  0.47410  0.52070  Biso   1.000  C
  H41      1.0000 0.21020  0.45390  0.53400  Biso   1.000  H
  C66      1.0000 0.25960  0.47520  0.52035  Biso   1.000  C
  H42      1.0000 0.27350  0.45570  0.53350  Biso   1.000  H
  O13      1.0000 0.78741  0.69774  0.29288  Biso   1.000  O
  O14      1.0000 0.75146  0.67336  0.24805  Biso   1.000  O
  C67      1.0000 0.76828  0.67144  0.27876  Biso   1.000  C
  C68      1.0000 0.76612  0.63606  0.29979  Biso   1.000  C
  C69      1.0000 0.74738  0.60589  0.28566  Biso   1.000  C
  H43      1.0000 0.73610  0.60770  0.26240  Biso   1.000  H
  C70      1.0000 0.78337  0.63303  0.33450  Biso   1.000  C
  H44      1.0000 0.79610  0.65320  0.34440  Biso   1.000  H
  C71      1.0000 0.74497  0.57293  0.30531  Biso   1.000  C
  H45      1.0000 0.73170  0.55300  0.29550  Biso   1.000  H
  C72      1.0000 0.78144  0.59999  0.35408  Biso   1.000  C
  H46      1.0000 0.79300  0.59820  0.37710  Biso   1.000  H
  C73      1.0000 0.76248  0.56933  0.33999  Biso   1.000  C
  C74      1.0000 0.76025  0.53388  0.36106  Biso   1.000  C
  C75      1.0000 0.75957  0.53345  0.39955  Biso   1.000  C
  H47      1.0000 0.75880  0.55600  0.41230  Biso   1.000  H
  C76      1.0000 0.77720  0.47410  0.47930  Biso   1.000  C
  H48      1.0000 0.78980  0.45390  0.46600  Biso   1.000  H
  C77      1.0000 0.74040  0.47520  0.47965  Biso   1.000  C
  H49      1.0000 0.72650  0.45570  0.46650  Biso   1.000  H
  O15      1.0000 0.78741  0.30226  0.70712  Biso   1.000  O
  O16      1.0000 0.75146  0.32664  0.75195  Biso   1.000  O
  C78      1.0000 0.76828  0.32856  0.72124  Biso   1.000  C
  C79      1.0000 0.76612  0.36394  0.70021  Biso   1.000  C
  C80      1.0000 0.74738  0.39411  0.71434  Biso   1.000  C
  H50      1.0000 0.73610  0.39230  0.73760  Biso   1.000  H
  C81      1.0000 0.78337  0.36697  0.66550  Biso   1.000  C
  H51      1.0000 0.79610  0.34680  0.65560  Biso   1.000  H
  C82      1.0000 0.74497  0.42707  0.69469  Biso   1.000  C
  H52      1.0000 0.73170  0.44700  0.70450  Biso   1.000  H
  C83      1.0000 0.78144  0.40001  0.64592  Biso   1.000  C
  H53      1.0000 0.79300  0.40180  0.62290  Biso   1.000  H
  C84      1.0000 0.76248  0.43067  0.66001  Biso   1.000  C
  C85      1.0000 0.76025  0.46612  0.63894  Biso   1.000  C
  C86      1.0000 0.75957  0.46655  0.60045  Biso   1.000  C
  H54      1.0000 0.75880  0.44400  0.58770  Biso   1.000  H
  C87      1.0000 0.77720  0.52590  0.52070  Biso   1.000  C
  H55      1.0000 0.78980  0.54610  0.53400  Biso   1.000  H
  C88      1.0000 0.74040  0.52480  0.52035  Biso   1.000  C
  H56      1.0000 0.72650  0.54430  0.53350  Biso   1.000  H
  O17      1.0000 0.29288  0.21259  0.30226  Biso   1.000  O
  O18      1.0000 0.24805  0.24854  0.32664  Biso   1.000  O
  C89      1.0000 0.27876  0.23172  0.32856  Biso   1.000  C
  C90      1.0000 0.29979  0.23388  0.36394  Biso   1.000  C
  C91      1.0000 0.28566  0.25262  0.39411  Biso   1.000  C
  H57      1.0000 0.26240  0.26390  0.39230  Biso   1.000  H
  C92      1.0000 0.33450  0.21663  0.36697  Biso   1.000  C
  H58      1.0000 0.34440  0.20390  0.34680  Biso   1.000  H
  C93      1.0000 0.30531  0.25503  0.42707  Biso   1.000  C
  H59      1.0000 0.29550  0.26830  0.44700  Biso   1.000  H
  C94      1.0000 0.35408  0.21856  0.40001  Biso   1.000  C
  H60      1.0000 0.37710  0.20700  0.40180  Biso   1.000  H
  C95      1.0000 0.33999  0.23752  0.43067  Biso   1.000  C
  C96      1.0000 0.36106  0.23975  0.46612  Biso   1.000  C
  C97      1.0000 0.39955  0.24043  0.46655  Biso   1.000  C
  H61      1.0000 0.41230  0.24120  0.44400  Biso   1.000  H
  C98      1.0000 0.47930  0.22280  0.52590  Biso   1.000  C
  H62      1.0000 0.46600  0.21020  0.54610  Biso   1.000  H
  C99      1.0000 0.47965  0.25960  0.52480  Biso   1.000  C
  H63      1.0000 0.46650  0.27350  0.54430  Biso   1.000  H
  O19      1.0000 0.70712  0.21259  0.69774  Biso   1.000  O
  O20      1.0000 0.75195  0.24854  0.67336  Biso   1.000  O
  C100     1.0000 0.72124  0.23172  0.67144  Biso   1.000  C
  C101     1.0000 0.70021  0.23388  0.63606  Biso   1.000  C
  C102     1.0000 0.71434  0.25262  0.60589  Biso   1.000  C
  H64      1.0000 0.73760  0.26390  0.60770  Biso   1.000  H
  C103     1.0000 0.66550  0.21663  0.63303  Biso   1.000  C
  H65      1.0000 0.65560  0.20390  0.65320  Biso   1.000  H
  C104     1.0000 0.69469  0.25503  0.57293  Biso   1.000  C
  H66      1.0000 0.70450  0.26830  0.55300  Biso   1.000  H
  C105     1.0000 0.64592  0.21856  0.59999  Biso   1.000  C
  H67      1.0000 0.62290  0.20700  0.59820  Biso   1.000  H
  C106     1.0000 0.66001  0.23752  0.56933  Biso   1.000  C
  C107     1.0000 0.63894  0.23975  0.53388  Biso   1.000  C
  C108     1.0000 0.60045  0.24043  0.53345  Biso   1.000  C
  H68      1.0000 0.58770  0.24120  0.55600  Biso   1.000  H
  C109     1.0000 0.52070  0.22280  0.47410  Biso   1.000  C
  H69      1.0000 0.53400  0.21020  0.45390  Biso   1.000  H
  C110     1.0000 0.52035  0.25960  0.47520  Biso   1.000  C
  H70      1.0000 0.53350  0.27350  0.45570  Biso   1.000  H
  O21      1.0000 0.29288  0.78741  0.69774  Biso   1.000  O
  O22      1.0000 0.24805  0.75146  0.67336  Biso   1.000  O
  C111     1.0000 0.27876  0.76828  0.67144  Biso   1.000  C
  C112     1.0000 0.29979  0.76612  0.63606  Biso   1.000  C
  C113     1.0000 0.28566  0.74738  0.60589  Biso   1.000  C
  H71      1.0000 0.26240  0.73610  0.60770  Biso   1.000  H
  C114     1.0000 0.33450  0.78337  0.63303  Biso   1.000  C
  H72      1.0000 0.34440  0.79610  0.65320  Biso   1.000  H
  C115     1.0000 0.30531  0.74497  0.57293  Biso   1.000  C
  H73      1.0000 0.29550  0.73170  0.55300  Biso   1.000  H
  C116     1.0000 0.35408  0.78144  0.59999  Biso   1.000  C
  H74      1.0000 0.37710  0.79300  0.59820  Biso   1.000  H
  C117     1.0000 0.33999  0.76248  0.56933  Biso   1.000  C
  C118     1.0000 0.36106  0.76025  0.53388  Biso   1.000  C
  C119     1.0000 0.39955  0.75957  0.53345  Biso   1.000  C
  H75      1.0000 0.41230  0.75880  0.55600  Biso   1.000  H
  C120     1.0000 0.47930  0.77720  0.47410  Biso   1.000  C
  H76      1.0000 0.46600  0.78980  0.45390  Biso   1.000  H
  C121     1.0000 0.47965  0.74040  0.47520  Biso   1.000  C
  H77      1.0000 0.46650  0.72650  0.45570  Biso   1.000  H
  O23      1.0000 0.70712  0.78741  0.30226  Biso   1.000  O
  O24      1.0000 0.75195  0.75146  0.32664  Biso   1.000  O
  C122     1.0000 0.72124  0.76828  0.32856  Biso   1.000  C
  C123     1.0000 0.70021  0.76612  0.36394  Biso   1.000  C
  C124     1.0000 0.71434  0.74738  0.39411  Biso   1.000  C
  H78      1.0000 0.73760  0.73610  0.39230  Biso   1.000  H
  C125     1.0000 0.66550  0.78337  0.36697  Biso   1.000  C
  H79      1.0000 0.65560  0.79610  0.34680  Biso   1.000  H
  C126     1.0000 0.69469  0.74497  0.42707  Biso   1.000  C
  H80      1.0000 0.70450  0.73170  0.44700  Biso   1.000  H
  C127     1.0000 0.64592  0.78144  0.40001  Biso   1.000  C
  H81      1.0000 0.62290  0.79300  0.40180  Biso   1.000  H
  C128     1.0000 0.66001  0.76248  0.43067  Biso   1.000  C
  C129     1.0000 0.63894  0.76025  0.46612  Biso   1.000  C
  C130     1.0000 0.60045  0.75957  0.46655  Biso   1.000  C
  H82      1.0000 0.58770  0.75880  0.44400  Biso   1.000  H
  C131     1.0000 0.52070  0.77720  0.52590  Biso   1.000  C
  H83      1.0000 0.53400  0.78980  0.54610  Biso   1.000  H
  C132     1.0000 0.52035  0.74040  0.52480  Biso   1.000  C
  H84      1.0000 0.53350  0.72650  0.54430  Biso   1.000  H
  O25      1.0000 0.79288  0.80226  0.28741  Biso   1.000  O
  O26      1.0000 0.74805  0.82664  0.25146  Biso   1.000  O
  C133     1.0000 0.77876  0.82856  0.26828  Biso   1.000  C
  C134     1.0000 0.79979  0.86394  0.26612  Biso   1.000  C
  C135     1.0000 0.78566  0.89411  0.24738  Biso   1.000  C
  H85      1.0000 0.76240  0.89230  0.23610  Biso   1.000  H
  C136     1.0000 0.83450  0.86697  0.28337  Biso   1.000  C
  H86      1.0000 0.84440  0.84680  0.29610  Biso   1.000  H
  C137     1.0000 0.80531  0.92707  0.24497  Biso   1.000  C
  H87      1.0000 0.79550  0.94700  0.23170  Biso   1.000  H
  C138     1.0000 0.85408  0.90001  0.28144  Biso   1.000  C
  H88      1.0000 0.87710  0.90180  0.29300  Biso   1.000  H
  C139     1.0000 0.83999  0.93067  0.26248  Biso   1.000  C
  C140     1.0000 0.86106  0.96612  0.26025  Biso   1.000  C
  C141     1.0000 0.89955  0.96655  0.25957  Biso   1.000  C
  H89      1.0000 0.91230  0.94400  0.25880  Biso   1.000  H
  C142     1.0000 0.97930  0.02590  0.27720  Biso   1.000  C
  H90      1.0000 0.96600  0.04610  0.28980  Biso   1.000  H
  C143     1.0000 0.97965  0.02480  0.24040  Biso   1.000  C
  H91      1.0000 0.96650  0.04430  0.22650  Biso   1.000  H
  O27      1.0000 0.20712  0.19774  0.28741  Biso   1.000  O
  O28      1.0000 0.25195  0.17336  0.25146  Biso   1.000  O
  C144     1.0000 0.22124  0.17144  0.26828  Biso   1.000  C
  C145     1.0000 0.20021  0.13606  0.26612  Biso   1.000  C
  C146     1.0000 0.21434  0.10589  0.24738  Biso   1.000  C
  H92      1.0000 0.23760  0.10770  0.23610  Biso   1.000  H
  C147     1.0000 0.16550  0.13303  0.28337  Biso   1.000  C
  H93      1.0000 0.15560  0.15320  0.29610  Biso   1.000  H
  C148     1.0000 0.19469  0.07293  0.24497  Biso   1.000  C
  H94      1.0000 0.20450  0.05300  0.23170  Biso   1.000  H
  C149     1.0000 0.14592  0.09999  0.28144  Biso   1.000  C
  H95      1.0000 0.12290  0.09820  0.29300  Biso   1.000  H
  C150     1.0000 0.16001  0.06933  0.26248  Biso   1.000  C
  C151     1.0000 0.13894  0.03388  0.26025  Biso   1.000  C
  C152     1.0000 0.10045  0.03345  0.25957  Biso   1.000  C
  H96      1.0000 0.08770  0.05600  0.25880  Biso   1.000  H
  C153     1.0000 0.02070  0.97410  0.27720  Biso   1.000  C
  H97      1.0000 0.03400  0.95390  0.28980  Biso   1.000  H
  C154     1.0000 0.02035  0.97520  0.24040  Biso   1.000  C
  H98      1.0000 0.03350  0.95570  0.22650  Biso   1.000  H
  O29      1.0000 0.79288  0.19774  0.71259  Biso   1.000  O
  O30      1.0000 0.74805  0.17336  0.74854  Biso   1.000  O
  C155     1.0000 0.77876  0.17144  0.73172  Biso   1.000  C
  C156     1.0000 0.79979  0.13606  0.73388  Biso   1.000  C
  C157     1.0000 0.78566  0.10589  0.75262  Biso   1.000  C
  H99      1.0000 0.76240  0.10770  0.76390  Biso   1.000  H
  C158     1.0000 0.83450  0.13303  0.71663  Biso   1.000  C
  H100     1.0000 0.84440  0.15320  0.70390  Biso   1.000  H
  C159     1.0000 0.80531  0.07293  0.75503  Biso   1.000  C
  H101     1.0000 0.79550  0.05300  0.76830  Biso   1.000  H
  C160     1.0000 0.85408  0.09999  0.71856  Biso   1.000  C
  H102     1.0000 0.87710  0.09820  0.70700  Biso   1.000  H
  C161     1.0000 0.83999  0.06933  0.73752  Biso   1.000  C
  C162     1.0000 0.86106  0.03388  0.73975  Biso   1.000  C
  C163     1.0000 0.89955  0.03345  0.74043  Biso   1.000  C
  H103     1.0000 0.91230  0.05600  0.74120  Biso   1.000  H
  C164     1.0000 0.97930  0.97410  0.72280  Biso   1.000  C
  H104     1.0000 0.96600  0.95390  0.71020  Biso   1.000  H
  C165     1.0000 0.97965  0.97520  0.75960  Biso   1.000  C
  H105     1.0000 0.96650  0.95570  0.77350  Biso   1.000  H
  O31      1.0000 0.20712  0.80226  0.71259  Biso   1.000  O
  O32      1.0000 0.25195  0.82664  0.74854  Biso   1.000  O
  C166     1.0000 0.22124  0.82856  0.73172  Biso   1.000  C
  C167     1.0000 0.20021  0.86394  0.73388  Biso   1.000  C
  C168     1.0000 0.21434  0.89411  0.75262  Biso   1.000  C
  H106     1.0000 0.23760  0.89230  0.76390  Biso   1.000  H
  C169     1.0000 0.16550  0.86697  0.71663  Biso   1.000  C
  H107     1.0000 0.15560  0.84680  0.70390  Biso   1.000  H
  C170     1.0000 0.19469  0.92707  0.75503  Biso   1.000  C
  H108     1.0000 0.20450  0.94700  0.76830  Biso   1.000  H
  C171     1.0000 0.14592  0.90001  0.71856  Biso   1.000  C
  H109     1.0000 0.12290  0.90180  0.70700  Biso   1.000  H
  C172     1.0000 0.16001  0.93067  0.73752  Biso   1.000  C
  C173     1.0000 0.13894  0.96612  0.73975  Biso   1.000  C
  C174     1.0000 0.10045  0.96655  0.74043  Biso   1.000  C
  H110     1.0000 0.08770  0.94400  0.74120  Biso   1.000  H
  C175     1.0000 0.02070  0.02590  0.72280  Biso   1.000  C
  H111     1.0000 0.03400  0.04610  0.71020  Biso   1.000  H
  C176     1.0000 0.02035  0.02480  0.75960  Biso   1.000  C
  H112     1.0000 0.03350  0.04430  0.77350  Biso   1.000  H
  O33      1.0000 0.80226  0.71259  0.20712  Biso   1.000  O
  O34      1.0000 0.82664  0.74854  0.25195  Biso   1.000  O
  C177     1.0000 0.82856  0.73172  0.22124  Biso   1.000  C
  C178     1.0000 0.86394  0.73388  0.20021  Biso   1.000  C
  C179     1.0000 0.89411  0.75262  0.21434  Biso   1.000  C
  H113     1.0000 0.89230  0.76390  0.23760  Biso   1.000  H
  C180     1.0000 0.86697  0.71663  0.16550  Biso   1.000  C
  H114     1.0000 0.84680  0.70390  0.15560  Biso   1.000  H
  C181     1.0000 0.92707  0.75503  0.19469  Biso   1.000  C
  H115     1.0000 0.94700  0.76830  0.20450  Biso   1.000  H
  C182     1.0000 0.90001  0.71856  0.14592  Biso   1.000  C
  H116     1.0000 0.90180  0.70700  0.12290  Biso   1.000  H
  C183     1.0000 0.93067  0.73752  0.16001  Biso   1.000  C
  C184     1.0000 0.96612  0.73975  0.13894  Biso   1.000  C
  C185     1.0000 0.96655  0.74043  0.10045  Biso   1.000  C
  H117     1.0000 0.94400  0.74120  0.08770  Biso   1.000  H
  C186     1.0000 0.02590  0.72280  0.02070  Biso   1.000  C
  H118     1.0000 0.04610  0.71020  0.03400  Biso   1.000  H
  C187     1.0000 0.02480  0.75960  0.02035  Biso   1.000  C
  H119     1.0000 0.04430  0.77350  0.03350  Biso   1.000  H
  O35      1.0000 0.19774  0.71259  0.79288  Biso   1.000  O
  O36      1.0000 0.17336  0.74854  0.74805  Biso   1.000  O
  C188     1.0000 0.17144  0.73172  0.77876  Biso   1.000  C
  C189     1.0000 0.13606  0.73388  0.79979  Biso   1.000  C
  C190     1.0000 0.10589  0.75262  0.78566  Biso   1.000  C
  H120     1.0000 0.10770  0.76390  0.76240  Biso   1.000  H
  C191     1.0000 0.13303  0.71663  0.83450  Biso   1.000  C
  H121     1.0000 0.15320  0.70390  0.84440  Biso   1.000  H
  C192     1.0000 0.07293  0.75503  0.80531  Biso   1.000  C
  H122     1.0000 0.05300  0.76830  0.79550  Biso   1.000  H
  C193     1.0000 0.09999  0.71856  0.85408  Biso   1.000  C
  H123     1.0000 0.09820  0.70700  0.87710  Biso   1.000  H
  C194     1.0000 0.06933  0.73752  0.83999  Biso   1.000  C
  C195     1.0000 0.03388  0.73975  0.86106  Biso   1.000  C
  C196     1.0000 0.03345  0.74043  0.89955  Biso   1.000  C
  H124     1.0000 0.05600  0.74120  0.91230  Biso   1.000  H
  C197     1.0000 0.97410  0.72280  0.97930  Biso   1.000  C
  H125     1.0000 0.95390  0.71020  0.96600  Biso   1.000  H
  C198     1.0000 0.97520  0.75960  0.97965  Biso   1.000  C
  H126     1.0000 0.95570  0.77350  0.96650  Biso   1.000  H
  O37      1.0000 0.19774  0.28741  0.20712  Biso   1.000  O
  O38      1.0000 0.17336  0.25146  0.25195  Biso   1.000  O
  C199     1.0000 0.17144  0.26828  0.22124  Biso   1.000  C
  C200     1.0000 0.13606  0.26612  0.20021  Biso   1.000  C
  C201     1.0000 0.10589  0.24738  0.21434  Biso   1.000  C
  H127     1.0000 0.10770  0.23610  0.23760  Biso   1.000  H
  C202     1.0000 0.13303  0.28337  0.16550  Biso   1.000  C
  H128     1.0000 0.15320  0.29610  0.15560  Biso   1.000  H
  C203     1.0000 0.07293  0.24497  0.19469  Biso   1.000  C
  H129     1.0000 0.05300  0.23170  0.20450  Biso   1.000  H
  C204     1.0000 0.09999  0.28144  0.14592  Biso   1.000  C
  H130     1.0000 0.09820  0.29300  0.12290  Biso   1.000  H
  C205     1.0000 0.06933  0.26248  0.16001  Biso   1.000  C
  C206     1.0000 0.03388  0.26025  0.13894  Biso   1.000  C
  C207     1.0000 0.03345  0.25957  0.10045  Biso   1.000  C
  H131     1.0000 0.05600  0.25880  0.08770  Biso   1.000  H
  C208     1.0000 0.97410  0.27720  0.02070  Biso   1.000  C
  H132     1.0000 0.95390  0.28980  0.03400  Biso   1.000  H
  C209     1.0000 0.97520  0.24040  0.02035  Biso   1.000  C
  H133     1.0000 0.95570  0.22650  0.03350  Biso   1.000  H
  O39      1.0000 0.80226  0.28741  0.79288  Biso   1.000  O
  O40      1.0000 0.82664  0.25146  0.74805  Biso   1.000  O
  C210     1.0000 0.82856  0.26828  0.77876  Biso   1.000  C
  C211     1.0000 0.86394  0.26612  0.79979  Biso   1.000  C
  C212     1.0000 0.89411  0.24738  0.78566  Biso   1.000  C
  H134     1.0000 0.89230  0.23610  0.76240  Biso   1.000  H
  C213     1.0000 0.86697  0.28337  0.83450  Biso   1.000  C
  H135     1.0000 0.84680  0.29610  0.84440  Biso   1.000  H
  C214     1.0000 0.92707  0.24497  0.80531  Biso   1.000  C
  H136     1.0000 0.94700  0.23170  0.79550  Biso   1.000  H
  C215     1.0000 0.90001  0.28144  0.85408  Biso   1.000  C
  H137     1.0000 0.90180  0.29300  0.87710  Biso   1.000  H
  C216     1.0000 0.93067  0.26248  0.83999  Biso   1.000  C
  C217     1.0000 0.96612  0.26025  0.86106  Biso   1.000  C
  C218     1.0000 0.96655  0.25957  0.89955  Biso   1.000  C
  H138     1.0000 0.94400  0.25880  0.91230  Biso   1.000  H
  C219     1.0000 0.02590  0.27720  0.97930  Biso   1.000  C
  H139     1.0000 0.04610  0.28980  0.96600  Biso   1.000  H
  C220     1.0000 0.02480  0.24040  0.97965  Biso   1.000  C
  H140     1.0000 0.04430  0.22650  0.96650  Biso   1.000  H
  O41      1.0000 0.71259  0.79288  0.19774  Biso   1.000  O
  O42      1.0000 0.74854  0.74805  0.17336  Biso   1.000  O
  C221     1.0000 0.73172  0.77876  0.17144  Biso   1.000  C
  C222     1.0000 0.73388  0.79979  0.13606  Biso   1.000  C
  C223     1.0000 0.75262  0.78566  0.10589  Biso   1.000  C
  H141     1.0000 0.76390  0.76240  0.10770  Biso   1.000  H
  C224     1.0000 0.71663  0.83450  0.13303  Biso   1.000  C
  H142     1.0000 0.70390  0.84440  0.15320  Biso   1.000  H
  C225     1.0000 0.75503  0.80531  0.07293  Biso   1.000  C
  H143     1.0000 0.76830  0.79550  0.05300  Biso   1.000  H
  C226     1.0000 0.71856  0.85408  0.09999  Biso   1.000  C
  H144     1.0000 0.70700  0.87710  0.09820  Biso   1.000  H
  C227     1.0000 0.73752  0.83999  0.06933  Biso   1.000  C
  C228     1.0000 0.73975  0.86106  0.03388  Biso   1.000  C
  C229     1.0000 0.74043  0.89955  0.03345  Biso   1.000  C
  H145     1.0000 0.74120  0.91230  0.05600  Biso   1.000  H
  C230     1.0000 0.72280  0.97930  0.97410  Biso   1.000  C
  H146     1.0000 0.71020  0.96600  0.95390  Biso   1.000  H
  C231     1.0000 0.75960  0.97965  0.97520  Biso   1.000  C
  H147     1.0000 0.77350  0.96650  0.95570  Biso   1.000  H
  O43      1.0000 0.71259  0.20712  0.80226  Biso   1.000  O
  O44      1.0000 0.74854  0.25195  0.82664  Biso   1.000  O
  C232     1.0000 0.73172  0.22124  0.82856  Biso   1.000  C
  C233     1.0000 0.73388  0.20021  0.86394  Biso   1.000  C
  C234     1.0000 0.75262  0.21434  0.89411  Biso   1.000  C
  H148     1.0000 0.76390  0.23760  0.89230  Biso   1.000  H
  C235     1.0000 0.71663  0.16550  0.86697  Biso   1.000  C
  H149     1.0000 0.70390  0.15560  0.84680  Biso   1.000  H
  C236     1.0000 0.75503  0.19469  0.92707  Biso   1.000  C
  H150     1.0000 0.76830  0.20450  0.94700  Biso   1.000  H
  C237     1.0000 0.71856  0.14592  0.90001  Biso   1.000  C
  H151     1.0000 0.70700  0.12290  0.90180  Biso   1.000  H
  C238     1.0000 0.73752  0.16001  0.93067  Biso   1.000  C
  C239     1.0000 0.73975  0.13894  0.96612  Biso   1.000  C
  C240     1.0000 0.74043  0.10045  0.96655  Biso   1.000  C
  H152     1.0000 0.74120  0.08770  0.94400  Biso   1.000  H
  C241     1.0000 0.72280  0.02070  0.02590  Biso   1.000  C
  H153     1.0000 0.71020  0.03400  0.04610  Biso   1.000  H
  C242     1.0000 0.75960  0.02035  0.02480  Biso   1.000  C
  H154     1.0000 0.77350  0.03350  0.04430  Biso   1.000  H
  O45      1.0000 0.28741  0.79288  0.80226  Biso   1.000  O
  O46      1.0000 0.25146  0.74805  0.82664  Biso   1.000  O
  C243     1.0000 0.26828  0.77876  0.82856  Biso   1.000  C
  C244     1.0000 0.26612  0.79979  0.86394  Biso   1.000  C
  C245     1.0000 0.24738  0.78566  0.89411  Biso   1.000  C
  H155     1.0000 0.23610  0.76240  0.89230  Biso   1.000  H
  C246     1.0000 0.28337  0.83450  0.86697  Biso   1.000  C
  H156     1.0000 0.29610  0.84440  0.84680  Biso   1.000  H
  C247     1.0000 0.24497  0.80531  0.92707  Biso   1.000  C
  H157     1.0000 0.23170  0.79550  0.94700  Biso   1.000  H
  C248     1.0000 0.28144  0.85408  0.90001  Biso   1.000  C
  H158     1.0000 0.29300  0.87710  0.90180  Biso   1.000  H
  C249     1.0000 0.26248  0.83999  0.93067  Biso   1.000  C
  C250     1.0000 0.26025  0.86106  0.96612  Biso   1.000  C
  C251     1.0000 0.25957  0.89955  0.96655  Biso   1.000  C
  H159     1.0000 0.25880  0.91230  0.94400  Biso   1.000  H
  C252     1.0000 0.27720  0.97930  0.02590  Biso   1.000  C
  H160     1.0000 0.28980  0.96600  0.04610  Biso   1.000  H
  C253     1.0000 0.24040  0.97965  0.02480  Biso   1.000  C
  H161     1.0000 0.22650  0.96650  0.04430  Biso   1.000  H
  O47      1.0000 0.28741  0.20712  0.19774  Biso   1.000  O
  O48      1.0000 0.25146  0.25195  0.17336  Biso   1.000  O
  C254     1.0000 0.26828  0.22124  0.17144  Biso   1.000  C
  C255     1.0000 0.26612  0.20021  0.13606  Biso   1.000  C
  C256     1.0000 0.24738  0.21434  0.10589  Biso   1.000  C
  H162     1.0000 0.23610  0.23760  0.10770  Biso   1.000  H
  C257     1.0000 0.28337  0.16550  0.13303  Biso   1.000  C
  H163     1.0000 0.29610  0.15560  0.15320  Biso   1.000  H
  C258     1.0000 0.24497  0.19469  0.07293  Biso   1.000  C
  H164     1.0000 0.23170  0.20450  0.05300  Biso   1.000  H
  C259     1.0000 0.28144  0.14592  0.09999  Biso   1.000  C
  H165     1.0000 0.29300  0.12290  0.09820  Biso   1.000  H
  C260     1.0000 0.26248  0.16001  0.06933  Biso   1.000  C
  C261     1.0000 0.26025  0.13894  0.03388  Biso   1.000  C
  C262     1.0000 0.25957  0.10045  0.03345  Biso   1.000  C
  H166     1.0000 0.25880  0.08770  0.05600  Biso   1.000  H
  C263     1.0000 0.27720  0.02070  0.97410  Biso   1.000  C
  H167     1.0000 0.28980  0.03400  0.95390  Biso   1.000  H
  C264     1.0000 0.24040  0.02035  0.97520  Biso   1.000  C
  H168     1.0000 0.22650  0.03350  0.95570  Biso   1.000  H
  O49      1.0000 0.69774  0.70712  0.78741  Biso   1.000  O
  O50      1.0000 0.67336  0.75195  0.75146  Biso   1.000  O
  C265     1.0000 0.67144  0.72124  0.76828  Biso   1.000  C
  C266     1.0000 0.63606  0.70021  0.76612  Biso   1.000  C
  C267     1.0000 0.60589  0.71434  0.74738  Biso   1.000  C
  H169     1.0000 0.60770  0.73760  0.73610  Biso   1.000  H
  C268     1.0000 0.63303  0.66550  0.78337  Biso   1.000  C
  H170     1.0000 0.65320  0.65560  0.79610  Biso   1.000  H
  C269     1.0000 0.57293  0.69469  0.74497  Biso   1.000  C
  H171     1.0000 0.55300  0.70450  0.73170  Biso   1.000  H
  C270     1.0000 0.59999  0.64592  0.78144  Biso   1.000  C
  H172     1.0000 0.59820  0.62290  0.79300  Biso   1.000  H
  C271     1.0000 0.56933  0.66001  0.76248  Biso   1.000  C
  C272     1.0000 0.53388  0.63894  0.76025  Biso   1.000  C
  C273     1.0000 0.53345  0.60045  0.75957  Biso   1.000  C
  H173     1.0000 0.55600  0.58770  0.75880  Biso   1.000  H
  C274     1.0000 0.47410  0.52070  0.77720  Biso   1.000  C
  H174     1.0000 0.45390  0.53400  0.78980  Biso   1.000  H
  C275     1.0000 0.47520  0.52035  0.74040  Biso   1.000  C
  H175     1.0000 0.45570  0.53350  0.72650  Biso   1.000  H
  O51      1.0000 0.30226  0.29288  0.78741  Biso   1.000  O
  O52      1.0000 0.32664  0.24805  0.75146  Biso   1.000  O
  C276     1.0000 0.32856  0.27876  0.76828  Biso   1.000  C
  C277     1.0000 0.36394  0.29979  0.76612  Biso   1.000  C
  C278     1.0000 0.39411  0.28566  0.74738  Biso   1.000  C
  H176     1.0000 0.39230  0.26240  0.73610  Biso   1.000  H
  C279     1.0000 0.36697  0.33450  0.78337  Biso   1.000  C
  H177     1.0000 0.34680  0.34440  0.79610  Biso   1.000  H
  C280     1.0000 0.42707  0.30531  0.74497  Biso   1.000  C
  H178     1.0000 0.44700  0.29550  0.73170  Biso   1.000  H
  C281     1.0000 0.40001  0.35408  0.78144  Biso   1.000  C
  H179     1.0000 0.40180  0.37710  0.79300  Biso   1.000  H
  C282     1.0000 0.43067  0.33999  0.76248  Biso   1.000  C
  C283     1.0000 0.46612  0.36106  0.76025  Biso   1.000  C
  C284     1.0000 0.46655  0.39955  0.75957  Biso   1.000  C
  H180     1.0000 0.44400  0.41230  0.75880  Biso   1.000  H
  C285     1.0000 0.52590  0.47930  0.77720  Biso   1.000  C
  H181     1.0000 0.54610  0.46600  0.78980  Biso   1.000  H
  C286     1.0000 0.52480  0.47965  0.74040  Biso   1.000  C
  H182     1.0000 0.54430  0.46650  0.72650  Biso   1.000  H
  O53      1.0000 0.30226  0.70712  0.21259  Biso   1.000  O
  O54      1.0000 0.32664  0.75195  0.24854  Biso   1.000  O
  C287     1.0000 0.32856  0.72124  0.23172  Biso   1.000  C
  C288     1.0000 0.36394  0.70021  0.23388  Biso   1.000  C
  C289     1.0000 0.39411  0.71434  0.25262  Biso   1.000  C
  H183     1.0000 0.39230  0.73760  0.26390  Biso   1.000  H
  C290     1.0000 0.36697  0.66550  0.21663  Biso   1.000  C
  H184     1.0000 0.34680  0.65560  0.20390  Biso   1.000  H
  C291     1.0000 0.42707  0.69469  0.25503  Biso   1.000  C
  H185     1.0000 0.44700  0.70450  0.26830  Biso   1.000  H
  C292     1.0000 0.40001  0.64592  0.21856  Biso   1.000  C
  H186     1.0000 0.40180  0.62290  0.20700  Biso   1.000  H
  C293     1.0000 0.43067  0.66001  0.23752  Biso   1.000  C
  C294     1.0000 0.46612  0.63894  0.23975  Biso   1.000  C
  C295     1.0000 0.46655  0.60045  0.24043  Biso   1.000  C
  H187     1.0000 0.44400  0.58770  0.24120  Biso   1.000  H
  C296     1.0000 0.52590  0.52070  0.22280  Biso   1.000  C
  H188     1.0000 0.54610  0.53400  0.21020  Biso   1.000  H
  C297     1.0000 0.52480  0.52035  0.25960  Biso   1.000  C
  H189     1.0000 0.54430  0.53350  0.27350  Biso   1.000  H
  O55      1.0000 0.69774  0.29288  0.21259  Biso   1.000  O
  O56      1.0000 0.67336  0.24805  0.24854  Biso   1.000  O
  C298     1.0000 0.67144  0.27876  0.23172  Biso   1.000  C
  C299     1.0000 0.63606  0.29979  0.23388  Biso   1.000  C
  C300     1.0000 0.60589  0.28566  0.25262  Biso   1.000  C
  H190     1.0000 0.60770  0.26240  0.26390  Biso   1.000  H
  C301     1.0000 0.63303  0.33450  0.21663  Biso   1.000  C
  H191     1.0000 0.65320  0.34440  0.20390  Biso   1.000  H
  C302     1.0000 0.57293  0.30531  0.25503  Biso   1.000  C
  H192     1.0000 0.55300  0.29550  0.26830  Biso   1.000  H
  C303     1.0000 0.59999  0.35408  0.21856  Biso   1.000  C
  H193     1.0000 0.59820  0.37710  0.20700  Biso   1.000  H
  C304     1.0000 0.56933  0.33999  0.23752  Biso   1.000  C
  C305     1.0000 0.53388  0.36106  0.23975  Biso   1.000  C
  C306     1.0000 0.53345  0.39955  0.24043  Biso   1.000  C
  H194     1.0000 0.55600  0.41230  0.24120  Biso   1.000  H
  C307     1.0000 0.47410  0.47930  0.22280  Biso   1.000  C
  H195     1.0000 0.45390  0.46600  0.21020  Biso   1.000  H
  C308     1.0000 0.47520  0.47965  0.25960  Biso   1.000  C
  H196     1.0000 0.45570  0.46650  0.27350  Biso   1.000  H
  O57      1.0000 0.78741  0.69774  0.70712  Biso   1.000  O
  O58      1.0000 0.75146  0.67336  0.75195  Biso   1.000  O
  C309     1.0000 0.76828  0.67144  0.72124  Biso   1.000  C
  C310     1.0000 0.76612  0.63606  0.70021  Biso   1.000  C
  C311     1.0000 0.74738  0.60589  0.71434  Biso   1.000  C
  H197     1.0000 0.73610  0.60770  0.73760  Biso   1.000  H
  C312     1.0000 0.78337  0.63303  0.66550  Biso   1.000  C
  H198     1.0000 0.79610  0.65320  0.65560  Biso   1.000  H
  C313     1.0000 0.74497  0.57293  0.69469  Biso   1.000  C
  H199     1.0000 0.73170  0.55300  0.70450  Biso   1.000  H
  C314     1.0000 0.78144  0.59999  0.64592  Biso   1.000  C
  H200     1.0000 0.79300  0.59820  0.62290  Biso   1.000  H
  C315     1.0000 0.76248  0.56933  0.66001  Biso   1.000  C
  C316     1.0000 0.76025  0.53388  0.63894  Biso   1.000  C
  C317     1.0000 0.75957  0.53345  0.60045  Biso   1.000  C
  H201     1.0000 0.75880  0.55600  0.58770  Biso   1.000  H
  C318     1.0000 0.77720  0.47410  0.52070  Biso   1.000  C
  H202     1.0000 0.78980  0.45390  0.53400  Biso   1.000  H
  C319     1.0000 0.74040  0.47520  0.52035  Biso   1.000  C
  H203     1.0000 0.72650  0.45570  0.53350  Biso   1.000  H
  O59      1.0000 0.78741  0.30226  0.29288  Biso   1.000  O
  O60      1.0000 0.75146  0.32664  0.24805  Biso   1.000  O
  C320     1.0000 0.76828  0.32856  0.27876  Biso   1.000  C
  C321     1.0000 0.76612  0.36394  0.29979  Biso   1.000  C
  C322     1.0000 0.74738  0.39411  0.28566  Biso   1.000  C
  H204     1.0000 0.73610  0.39230  0.26240  Biso   1.000  H
  C323     1.0000 0.78337  0.36697  0.33450  Biso   1.000  C
  H205     1.0000 0.79610  0.34680  0.34440  Biso   1.000  H
  C324     1.0000 0.74497  0.42707  0.30531  Biso   1.000  C
  H206     1.0000 0.73170  0.44700  0.29550  Biso   1.000  H
  C325     1.0000 0.78144  0.40001  0.35408  Biso   1.000  C
  H207     1.0000 0.79300  0.40180  0.37710  Biso   1.000  H
  C326     1.0000 0.76248  0.43067  0.33999  Biso   1.000  C
  C327     1.0000 0.76025  0.46612  0.36106  Biso   1.000  C
  C328     1.0000 0.75957  0.46655  0.39955  Biso   1.000  C
  H208     1.0000 0.75880  0.44400  0.41230  Biso   1.000  H
  C329     1.0000 0.77720  0.52590  0.47930  Biso   1.000  C
  H209     1.0000 0.78980  0.54610  0.46600  Biso   1.000  H
  C330     1.0000 0.74040  0.52480  0.47965  Biso   1.000  C
  H210     1.0000 0.72650  0.54430  0.46650  Biso   1.000  H
  O61      1.0000 0.21259  0.30226  0.70712  Biso   1.000  O
  O62      1.0000 0.24854  0.32664  0.75195  Biso   1.000  O
  C331     1.0000 0.23172  0.32856  0.72124  Biso   1.000  C
  C332     1.0000 0.23388  0.36394  0.70021  Biso   1.000  C
  C333     1.0000 0.25262  0.39411  0.71434  Biso   1.000  C
  H211     1.0000 0.26390  0.39230  0.73760  Biso   1.000  H
  C334     1.0000 0.21663  0.36697  0.66550  Biso   1.000  C
  H212     1.0000 0.20390  0.34680  0.65560  Biso   1.000  H
  C335     1.0000 0.25503  0.42707  0.69469  Biso   1.000  C
  H213     1.0000 0.26830  0.44700  0.70450  Biso   1.000  H
  C336     1.0000 0.21856  0.40001  0.64592  Biso   1.000  C
  H214     1.0000 0.20700  0.40180  0.62290  Biso   1.000  H
  C337     1.0000 0.23752  0.43067  0.66001  Biso   1.000  C
  C338     1.0000 0.23975  0.46612  0.63894  Biso   1.000  C
  C339     1.0000 0.24043  0.46655  0.60045  Biso   1.000  C
  H215     1.0000 0.24120  0.44400  0.58770  Biso   1.000  H
  C340     1.0000 0.22280  0.52590  0.52070  Biso   1.000  C
  H216     1.0000 0.21020  0.54610  0.53400  Biso   1.000  H
  C341     1.0000 0.25960  0.52480  0.52035  Biso   1.000  C
  H217     1.0000 0.27350  0.54430  0.53350  Biso   1.000  H
  O63      1.0000 0.21259  0.69774  0.29288  Biso   1.000  O
  O64      1.0000 0.24854  0.67336  0.24805  Biso   1.000  O
  C342     1.0000 0.23172  0.67144  0.27876  Biso   1.000  C
  C343     1.0000 0.23388  0.63606  0.29979  Biso   1.000  C
  C344     1.0000 0.25262  0.60589  0.28566  Biso   1.000  C
  H218     1.0000 0.26390  0.60770  0.26240  Biso   1.000  H
  C345     1.0000 0.21663  0.63303  0.33450  Biso   1.000  C
  H219     1.0000 0.20390  0.65320  0.34440  Biso   1.000  H
  C346     1.0000 0.25503  0.57293  0.30531  Biso   1.000  C
  H220     1.0000 0.26830  0.55300  0.29550  Biso   1.000  H
  C347     1.0000 0.21856  0.59999  0.35408  Biso   1.000  C
  H221     1.0000 0.20700  0.59820  0.37710  Biso   1.000  H
  C348     1.0000 0.23752  0.56933  0.33999  Biso   1.000  C
  C349     1.0000 0.23975  0.53388  0.36106  Biso   1.000  C
  C350     1.0000 0.24043  0.53345  0.39955  Biso   1.000  C
  H222     1.0000 0.24120  0.55600  0.41230  Biso   1.000  H
  C351     1.0000 0.22280  0.47410  0.47930  Biso   1.000  C
  H223     1.0000 0.21020  0.45390  0.46600  Biso   1.000  H
  C352     1.0000 0.25960  0.47520  0.47965  Biso   1.000  C
  H224     1.0000 0.27350  0.45570  0.46650  Biso   1.000  H
  O65      1.0000 0.70712  0.78741  0.69774  Biso   1.000  O
  O66      1.0000 0.75195  0.75146  0.67336  Biso   1.000  O
  C353     1.0000 0.72124  0.76828  0.67144  Biso   1.000  C
  C354     1.0000 0.70021  0.76612  0.63606  Biso   1.000  C
  C355     1.0000 0.71434  0.74738  0.60589  Biso   1.000  C
  H225     1.0000 0.73760  0.73610  0.60770  Biso   1.000  H
  C356     1.0000 0.66550  0.78337  0.63303  Biso   1.000  C
  H226     1.0000 0.65560  0.79610  0.65320  Biso   1.000  H
  C357     1.0000 0.69469  0.74497  0.57293  Biso   1.000  C
  H227     1.0000 0.70450  0.73170  0.55300  Biso   1.000  H
  C358     1.0000 0.64592  0.78144  0.59999  Biso   1.000  C
  H228     1.0000 0.62290  0.79300  0.59820  Biso   1.000  H
  C359     1.0000 0.66001  0.76248  0.56933  Biso   1.000  C
  C360     1.0000 0.63894  0.76025  0.53388  Biso   1.000  C
  C361     1.0000 0.60045  0.75957  0.53345  Biso   1.000  C
  H229     1.0000 0.58770  0.75880  0.55600  Biso   1.000  H
  C362     1.0000 0.52070  0.77720  0.47410  Biso   1.000  C
  H230     1.0000 0.53400  0.78980  0.45390  Biso   1.000  H
  C363     1.0000 0.52035  0.74040  0.47520  Biso   1.000  C
  H231     1.0000 0.53350  0.72650  0.45570  Biso   1.000  H
  O67      1.0000 0.29288  0.78741  0.30226  Biso   1.000  O
  O68      1.0000 0.24805  0.75146  0.32664  Biso   1.000  O
  C364     1.0000 0.27876  0.76828  0.32856  Biso   1.000  C
  C365     1.0000 0.29979  0.76612  0.36394  Biso   1.000  C
  C366     1.0000 0.28566  0.74738  0.39411  Biso   1.000  C
  H232     1.0000 0.26240  0.73610  0.39230  Biso   1.000  H
  C367     1.0000 0.33450  0.78337  0.36697  Biso   1.000  C
  H233     1.0000 0.34440  0.79610  0.34680  Biso   1.000  H
  C368     1.0000 0.30531  0.74497  0.42707  Biso   1.000  C
  H234     1.0000 0.29550  0.73170  0.44700  Biso   1.000  H
  C369     1.0000 0.35408  0.78144  0.40001  Biso   1.000  C
  H235     1.0000 0.37710  0.79300  0.40180  Biso   1.000  H
  C370     1.0000 0.33999  0.76248  0.43067  Biso   1.000  C
  C371     1.0000 0.36106  0.76025  0.46612  Biso   1.000  C
  C372     1.0000 0.39955  0.75957  0.46655  Biso   1.000  C
  H236     1.0000 0.41230  0.75880  0.44400  Biso   1.000  H
  C373     1.0000 0.47930  0.77720  0.52590  Biso   1.000  C
  H237     1.0000 0.46600  0.78980  0.54610  Biso   1.000  H
  C374     1.0000 0.47965  0.74040  0.52480  Biso   1.000  C
  H238     1.0000 0.46650  0.72650  0.54430  Biso   1.000  H
  O69      1.0000 0.70712  0.21259  0.30226  Biso   1.000  O
  O70      1.0000 0.75195  0.24854  0.32664  Biso   1.000  O
  C375     1.0000 0.72124  0.23172  0.32856  Biso   1.000  C
  C376     1.0000 0.70021  0.23388  0.36394  Biso   1.000  C
  C377     1.0000 0.71434  0.25262  0.39411  Biso   1.000  C
  H239     1.0000 0.73760  0.26390  0.39230  Biso   1.000  H
  C378     1.0000 0.66550  0.21663  0.36697  Biso   1.000  C
  H240     1.0000 0.65560  0.20390  0.34680  Biso   1.000  H
  C379     1.0000 0.69469  0.25503  0.42707  Biso   1.000  C
  H241     1.0000 0.70450  0.26830  0.44700  Biso   1.000  H
  C380     1.0000 0.64592  0.21856  0.40001  Biso   1.000  C
  H242     1.0000 0.62290  0.20700  0.40180  Biso   1.000  H
  C381     1.0000 0.66001  0.23752  0.43067  Biso   1.000  C
  C382     1.0000 0.63894  0.23975  0.46612  Biso   1.000  C
  C383     1.0000 0.60045  0.24043  0.46655  Biso   1.000  C
  H243     1.0000 0.58770  0.24120  0.44400  Biso   1.000  H
  C384     1.0000 0.52070  0.22280  0.52590  Biso   1.000  C
  H244     1.0000 0.53400  0.21020  0.54610  Biso   1.000  H
  C385     1.0000 0.52035  0.25960  0.52480  Biso   1.000  C
  H245     1.0000 0.53350  0.27350  0.54430  Biso   1.000  H
  O71      1.0000 0.29288  0.21259  0.69774  Biso   1.000  O
  O72      1.0000 0.24805  0.24854  0.67336  Biso   1.000  O
  C386     1.0000 0.27876  0.23172  0.67144  Biso   1.000  C
  C387     1.0000 0.29979  0.23388  0.63606  Biso   1.000  C
  C388     1.0000 0.28566  0.25262  0.60589  Biso   1.000  C
  H246     1.0000 0.26240  0.26390  0.60770  Biso   1.000  H
  C389     1.0000 0.33450  0.21663  0.63303  Biso   1.000  C
  H247     1.0000 0.34440  0.20390  0.65320  Biso   1.000  H
  C390     1.0000 0.30531  0.25503  0.57293  Biso   1.000  C
  H248     1.0000 0.29550  0.26830  0.55300  Biso   1.000  H
  C391     1.0000 0.35408  0.21856  0.59999  Biso   1.000  C
  H249     1.0000 0.37710  0.20700  0.59820  Biso   1.000  H
  C392     1.0000 0.33999  0.23752  0.56933  Biso   1.000  C
  C393     1.0000 0.36106  0.23975  0.53388  Biso   1.000  C
  C394     1.0000 0.39955  0.24043  0.53345  Biso   1.000  C
  H250     1.0000 0.41230  0.24120  0.55600  Biso   1.000  H
  C395     1.0000 0.47930  0.22280  0.47410  Biso   1.000  C
  H251     1.0000 0.46600  0.21020  0.45390  Biso   1.000  H
  C396     1.0000 0.47965  0.25960  0.47520  Biso   1.000  C
  H252     1.0000 0.46650  0.27350  0.45570  Biso   1.000  H
  O73      1.0000 0.20712  0.19774  0.71259  Biso   1.000  O
  O74      1.0000 0.25195  0.17336  0.74854  Biso   1.000  O
  C397     1.0000 0.22124  0.17144  0.73172  Biso   1.000  C
  C398     1.0000 0.20021  0.13606  0.73388  Biso   1.000  C
  C399     1.0000 0.21434  0.10589  0.75262  Biso   1.000  C
  H253     1.0000 0.23760  0.10770  0.76390  Biso   1.000  H
  C400     1.0000 0.16550  0.13303  0.71663  Biso   1.000  C
  H254     1.0000 0.15560  0.15320  0.70390  Biso   1.000  H
  C401     1.0000 0.19469  0.07293  0.75503  Biso   1.000  C
  H255     1.0000 0.20450  0.05300  0.76830  Biso   1.000  H
  C402     1.0000 0.14592  0.09999  0.71856  Biso   1.000  C
  H256     1.0000 0.12290  0.09820  0.70700  Biso   1.000  H
  C403     1.0000 0.16001  0.06933  0.73752  Biso   1.000  C
  C404     1.0000 0.13894  0.03388  0.73975  Biso   1.000  C
  C405     1.0000 0.10045  0.03345  0.74043  Biso   1.000  C
  H257     1.0000 0.08770  0.05600  0.74120  Biso   1.000  H
  C406     1.0000 0.02070  0.97410  0.72280  Biso   1.000  C
  H258     1.0000 0.03400  0.95390  0.71020  Biso   1.000  H
  C407     1.0000 0.02035  0.97520  0.75960  Biso   1.000  C
  H259     1.0000 0.03350  0.95570  0.77350  Biso   1.000  H
  O75      1.0000 0.79288  0.80226  0.71259  Biso   1.000  O
  O76      1.0000 0.74805  0.82664  0.74854  Biso   1.000  O
  C408     1.0000 0.77876  0.82856  0.73172  Biso   1.000  C
  C409     1.0000 0.79979  0.86394  0.73388  Biso   1.000  C
  C410     1.0000 0.78566  0.89411  0.75262  Biso   1.000  C
  H260     1.0000 0.76240  0.89230  0.76390  Biso   1.000  H
  C411     1.0000 0.83450  0.86697  0.71663  Biso   1.000  C
  H261     1.0000 0.84440  0.84680  0.70390  Biso   1.000  H
  C412     1.0000 0.80531  0.92707  0.75503  Biso   1.000  C
  H262     1.0000 0.79550  0.94700  0.76830  Biso   1.000  H
  C413     1.0000 0.85408  0.90001  0.71856  Biso   1.000  C
  H263     1.0000 0.87710  0.90180  0.70700  Biso   1.000  H
  C414     1.0000 0.83999  0.93067  0.73752  Biso   1.000  C
  C415     1.0000 0.86106  0.96612  0.73975  Biso   1.000  C
  C416     1.0000 0.89955  0.96655  0.74043  Biso   1.000  C
  H264     1.0000 0.91230  0.94400  0.74120  Biso   1.000  H
  C417     1.0000 0.97930  0.02590  0.72280  Biso   1.000  C
  H265     1.0000 0.96600  0.04610  0.71020  Biso   1.000  H
  C418     1.0000 0.97965  0.02480  0.75960  Biso   1.000  C
  H266     1.0000 0.96650  0.04430  0.77350  Biso   1.000  H
  O77      1.0000 0.20712  0.80226  0.28741  Biso   1.000  O
  O78      1.0000 0.25195  0.82664  0.25146  Biso   1.000  O
  C419     1.0000 0.22124  0.82856  0.26828  Biso   1.000  C
  C420     1.0000 0.20021  0.86394  0.26612  Biso   1.000  C
  C421     1.0000 0.21434  0.89411  0.24738  Biso   1.000  C
  H267     1.0000 0.23760  0.89230  0.23610  Biso   1.000  H
  C422     1.0000 0.16550  0.86697  0.28337  Biso   1.000  C
  H268     1.0000 0.15560  0.84680  0.29610  Biso   1.000  H
  C423     1.0000 0.19469  0.92707  0.24497  Biso   1.000  C
  H269     1.0000 0.20450  0.94700  0.23170  Biso   1.000  H
  C424     1.0000 0.14592  0.90001  0.28144  Biso   1.000  C
  H270     1.0000 0.12290  0.90180  0.29300  Biso   1.000  H
  C425     1.0000 0.16001  0.93067  0.26248  Biso   1.000  C
  C426     1.0000 0.13894  0.96612  0.26025  Biso   1.000  C
  C427     1.0000 0.10045  0.96655  0.25957  Biso   1.000  C
  H271     1.0000 0.08770  0.94400  0.25880  Biso   1.000  H
  C428     1.0000 0.02070  0.02590  0.27720  Biso   1.000  C
  H272     1.0000 0.03400  0.04610  0.28980  Biso   1.000  H
  C429     1.0000 0.02035  0.02480  0.24040  Biso   1.000  C
  H273     1.0000 0.03350  0.04430  0.22650  Biso   1.000  H
  O79      1.0000 0.79288  0.19774  0.28741  Biso   1.000  O
  O80      1.0000 0.74805  0.17336  0.25146  Biso   1.000  O
  C430     1.0000 0.77876  0.17144  0.26828  Biso   1.000  C
  C431     1.0000 0.79979  0.13606  0.26612  Biso   1.000  C
  C432     1.0000 0.78566  0.10589  0.24738  Biso   1.000  C
  H274     1.0000 0.76240  0.10770  0.23610  Biso   1.000  H
  C433     1.0000 0.83450  0.13303  0.28337  Biso   1.000  C
  H275     1.0000 0.84440  0.15320  0.29610  Biso   1.000  H
  C434     1.0000 0.80531  0.07293  0.24497  Biso   1.000  C
  H276     1.0000 0.79550  0.05300  0.23170  Biso   1.000  H
  C435     1.0000 0.85408  0.09999  0.28144  Biso   1.000  C
  H277     1.0000 0.87710  0.09820  0.29300  Biso   1.000  H
  C436     1.0000 0.83999  0.06933  0.26248  Biso   1.000  C
  C437     1.0000 0.86106  0.03388  0.26025  Biso   1.000  C
  C438     1.0000 0.89955  0.03345  0.25957  Biso   1.000  C
  H278     1.0000 0.91230  0.05600  0.25880  Biso   1.000  H
  C439     1.0000 0.97930  0.97410  0.27720  Biso   1.000  C
  H279     1.0000 0.96600  0.95390  0.28980  Biso   1.000  H
  C440     1.0000 0.97965  0.97520  0.24040  Biso   1.000  C
  H280     1.0000 0.96650  0.95570  0.22650  Biso   1.000  H
  O81      1.0000 0.19774  0.28741  0.79288  Biso   1.000  O
  O82      1.0000 0.17336  0.25146  0.74805  Biso   1.000  O
  C441     1.0000 0.17144  0.26828  0.77876  Biso   1.000  C
  C442     1.0000 0.13606  0.26612  0.79979  Biso   1.000  C
  C443     1.0000 0.10589  0.24738  0.78566  Biso   1.000  C
  H281     1.0000 0.10770  0.23610  0.76240  Biso   1.000  H
  C444     1.0000 0.13303  0.28337  0.83450  Biso   1.000  C
  H282     1.0000 0.15320  0.29610  0.84440  Biso   1.000  H
  C445     1.0000 0.07293  0.24497  0.80531  Biso   1.000  C
  H283     1.0000 0.05300  0.23170  0.79550  Biso   1.000  H
  C446     1.0000 0.09999  0.28144  0.85408  Biso   1.000  C
  H284     1.0000 0.09820  0.29300  0.87710  Biso   1.000  H
  C447     1.0000 0.06933  0.26248  0.83999  Biso   1.000  C
  C448     1.0000 0.03388  0.26025  0.86106  Biso   1.000  C
  C449     1.0000 0.03345  0.25957  0.89955  Biso   1.000  C
  H285     1.0000 0.05600  0.25880  0.91230  Biso   1.000  H
  C450     1.0000 0.97410  0.27720  0.97930  Biso   1.000  C
  H286     1.0000 0.95390  0.28980  0.96600  Biso   1.000  H
  C451     1.0000 0.97520  0.24040  0.97965  Biso   1.000  C
  H287     1.0000 0.95570  0.22650  0.96650  Biso   1.000  H
  O83      1.0000 0.80226  0.28741  0.20712  Biso   1.000  O
  O84      1.0000 0.82664  0.25146  0.25195  Biso   1.000  O
  C452     1.0000 0.82856  0.26828  0.22124  Biso   1.000  C
  C453     1.0000 0.86394  0.26612  0.20021  Biso   1.000  C
  C454     1.0000 0.89411  0.24738  0.21434  Biso   1.000  C
  H288     1.0000 0.89230  0.23610  0.23760  Biso   1.000  H
  C455     1.0000 0.86697  0.28337  0.16550  Biso   1.000  C
  H289     1.0000 0.84680  0.29610  0.15560  Biso   1.000  H
  C456     1.0000 0.92707  0.24497  0.19469  Biso   1.000  C
  H290     1.0000 0.94700  0.23170  0.20450  Biso   1.000  H
  C457     1.0000 0.90001  0.28144  0.14592  Biso   1.000  C
  H291     1.0000 0.90180  0.29300  0.12290  Biso   1.000  H
  C458     1.0000 0.93067  0.26248  0.16001  Biso   1.000  C
  C459     1.0000 0.96612  0.26025  0.13894  Biso   1.000  C
  C460     1.0000 0.96655  0.25957  0.10045  Biso   1.000  C
  H292     1.0000 0.94400  0.25880  0.08770  Biso   1.000  H
  C461     1.0000 0.02590  0.27720  0.02070  Biso   1.000  C
  H293     1.0000 0.04610  0.28980  0.03400  Biso   1.000  H
  C462     1.0000 0.02480  0.24040  0.02035  Biso   1.000  C
  H294     1.0000 0.04430  0.22650  0.03350  Biso   1.000  H
  O85      1.0000 0.80226  0.71259  0.79288  Biso   1.000  O
  O86      1.0000 0.82664  0.74854  0.74805  Biso   1.000  O
  C463     1.0000 0.82856  0.73172  0.77876  Biso   1.000  C
  C464     1.0000 0.86394  0.73388  0.79979  Biso   1.000  C
  C465     1.0000 0.89411  0.75262  0.78566  Biso   1.000  C
  H295     1.0000 0.89230  0.76390  0.76240  Biso   1.000  H
  C466     1.0000 0.86697  0.71663  0.83450  Biso   1.000  C
  H296     1.0000 0.84680  0.70390  0.84440  Biso   1.000  H
  C467     1.0000 0.92707  0.75503  0.80531  Biso   1.000  C
  H297     1.0000 0.94700  0.76830  0.79550  Biso   1.000  H
  C468     1.0000 0.90001  0.71856  0.85408  Biso   1.000  C
  H298     1.0000 0.90180  0.70700  0.87710  Biso   1.000  H
  C469     1.0000 0.93067  0.73752  0.83999  Biso   1.000  C
  C470     1.0000 0.96612  0.73975  0.86106  Biso   1.000  C
  C471     1.0000 0.96655  0.74043  0.89955  Biso   1.000  C
  H299     1.0000 0.94400  0.74120  0.91230  Biso   1.000  H
  C472     1.0000 0.02590  0.72280  0.97930  Biso   1.000  C
  H300     1.0000 0.04610  0.71020  0.96600  Biso   1.000  H
  C473     1.0000 0.02480  0.75960  0.97965  Biso   1.000  C
  H301     1.0000 0.04430  0.77350  0.96650  Biso   1.000  H
  O87      1.0000 0.19774  0.71259  0.20712  Biso   1.000  O
  O88      1.0000 0.17336  0.74854  0.25195  Biso   1.000  O
  C474     1.0000 0.17144  0.73172  0.22124  Biso   1.000  C
  C475     1.0000 0.13606  0.73388  0.20021  Biso   1.000  C
  C476     1.0000 0.10589  0.75262  0.21434  Biso   1.000  C
  H302     1.0000 0.10770  0.76390  0.23760  Biso   1.000  H
  C477     1.0000 0.13303  0.71663  0.16550  Biso   1.000  C
  H303     1.0000 0.15320  0.70390  0.15560  Biso   1.000  H
  C478     1.0000 0.07293  0.75503  0.19469  Biso   1.000  C
  H304     1.0000 0.05300  0.76830  0.20450  Biso   1.000  H
  C479     1.0000 0.09999  0.71856  0.14592  Biso   1.000  C
  H305     1.0000 0.09820  0.70700  0.12290  Biso   1.000  H
  C480     1.0000 0.06933  0.73752  0.16001  Biso   1.000  C
  C481     1.0000 0.03388  0.73975  0.13894  Biso   1.000  C
  C482     1.0000 0.03345  0.74043  0.10045  Biso   1.000  C
  H306     1.0000 0.05600  0.74120  0.08770  Biso   1.000  H
  C483     1.0000 0.97410  0.72280  0.02070  Biso   1.000  C
  H307     1.0000 0.95390  0.71020  0.03400  Biso   1.000  H
  C484     1.0000 0.97520  0.75960  0.02035  Biso   1.000  C
  H308     1.0000 0.95570  0.77350  0.03350  Biso   1.000  H
  O89      1.0000 0.28741  0.20712  0.80226  Biso   1.000  O
  O90      1.0000 0.25146  0.25195  0.82664  Biso   1.000  O
  C485     1.0000 0.26828  0.22124  0.82856  Biso   1.000  C
  C486     1.0000 0.26612  0.20021  0.86394  Biso   1.000  C
  C487     1.0000 0.24738  0.21434  0.89411  Biso   1.000  C
  H309     1.0000 0.23610  0.23760  0.89230  Biso   1.000  H
  C488     1.0000 0.28337  0.16550  0.86697  Biso   1.000  C
  H310     1.0000 0.29610  0.15560  0.84680  Biso   1.000  H
  C489     1.0000 0.24497  0.19469  0.92707  Biso   1.000  C
  H311     1.0000 0.23170  0.20450  0.94700  Biso   1.000  H
  C490     1.0000 0.28144  0.14592  0.90001  Biso   1.000  C
  H312     1.0000 0.29300  0.12290  0.90180  Biso   1.000  H
  C491     1.0000 0.26248  0.16001  0.93067  Biso   1.000  C
  C492     1.0000 0.26025  0.13894  0.96612  Biso   1.000  C
  C493     1.0000 0.25957  0.10045  0.96655  Biso   1.000  C
  H313     1.0000 0.25880  0.08770  0.94400  Biso   1.000  H
  C494     1.0000 0.27720  0.02070  0.02590  Biso   1.000  C
  H314     1.0000 0.28980  0.03400  0.04610  Biso   1.000  H
  C495     1.0000 0.24040  0.02035  0.02480  Biso   1.000  C
  H315     1.0000 0.22650  0.03350  0.04430  Biso   1.000  H
  O91      1.0000 0.28741  0.79288  0.19774  Biso   1.000  O
  O92      1.0000 0.25146  0.74805  0.17336  Biso   1.000  O
  C496     1.0000 0.26828  0.77876  0.17144  Biso   1.000  C
  C497     1.0000 0.26612  0.79979  0.13606  Biso   1.000  C
  C498     1.0000 0.24738  0.78566  0.10589  Biso   1.000  C
  H316     1.0000 0.23610  0.76240  0.10770  Biso   1.000  H
  C499     1.0000 0.28337  0.83450  0.13303  Biso   1.000  C
  H317     1.0000 0.29610  0.84440  0.15320  Biso   1.000  H
  C500     1.0000 0.24497  0.80531  0.07293  Biso   1.000  C
  H318     1.0000 0.23170  0.79550  0.05300  Biso   1.000  H
  C501     1.0000 0.28144  0.85408  0.09999  Biso   1.000  C
  H319     1.0000 0.29300  0.87710  0.09820  Biso   1.000  H
  C502     1.0000 0.26248  0.83999  0.06933  Biso   1.000  C
  C503     1.0000 0.26025  0.86106  0.03388  Biso   1.000  C
  C504     1.0000 0.25957  0.89955  0.03345  Biso   1.000  C
  H320     1.0000 0.25880  0.91230  0.05600  Biso   1.000  H
  C505     1.0000 0.27720  0.97930  0.97410  Biso   1.000  C
  H321     1.0000 0.28980  0.96600  0.95390  Biso   1.000  H
  C506     1.0000 0.24040  0.97965  0.97520  Biso   1.000  C
  H322     1.0000 0.22650  0.96650  0.95570  Biso   1.000  H
  O93      1.0000 0.71259  0.20712  0.19774  Biso   1.000  O
  O94      1.0000 0.74854  0.25195  0.17336  Biso   1.000  O
  C507     1.0000 0.73172  0.22124  0.17144  Biso   1.000  C
  C508     1.0000 0.73388  0.20021  0.13606  Biso   1.000  C
  C509     1.0000 0.75262  0.21434  0.10589  Biso   1.000  C
  H323     1.0000 0.76390  0.23760  0.10770  Biso   1.000  H
  C510     1.0000 0.71663  0.16550  0.13303  Biso   1.000  C
  H324     1.0000 0.70390  0.15560  0.15320  Biso   1.000  H
  C511     1.0000 0.75503  0.19469  0.07293  Biso   1.000  C
  H325     1.0000 0.76830  0.20450  0.05300  Biso   1.000  H
  C512     1.0000 0.71856  0.14592  0.09999  Biso   1.000  C
  H326     1.0000 0.70700  0.12290  0.09820  Biso   1.000  H
  C513     1.0000 0.73752  0.16001  0.06933  Biso   1.000  C
  C514     1.0000 0.73975  0.13894  0.03388  Biso   1.000  C
  C515     1.0000 0.74043  0.10045  0.03345  Biso   1.000  C
  H327     1.0000 0.74120  0.08770  0.05600  Biso   1.000  H
  C516     1.0000 0.72280  0.02070  0.97410  Biso   1.000  C
  H328     1.0000 0.71020  0.03400  0.95390  Biso   1.000  H
  C517     1.0000 0.75960  0.02035  0.97520  Biso   1.000  C
  H329     1.0000 0.77350  0.03350  0.95570  Biso   1.000  H
  O95      1.0000 0.71259  0.79288  0.80226  Biso   1.000  O
  O96      1.0000 0.74854  0.74805  0.82664  Biso   1.000  O
  C518     1.0000 0.73172  0.77876  0.82856  Biso   1.000  C
  C519     1.0000 0.73388  0.79979  0.86394  Biso   1.000  C
  C520     1.0000 0.75262  0.78566  0.89411  Biso   1.000  C
  H330     1.0000 0.76390  0.76240  0.89230  Biso   1.000  H
  C521     1.0000 0.71663  0.83450  0.86697  Biso   1.000  C
  H331     1.0000 0.70390  0.84440  0.84680  Biso   1.000  H
  C522     1.0000 0.75503  0.80531  0.92707  Biso   1.000  C
  H332     1.0000 0.76830  0.79550  0.94700  Biso   1.000  H
  C523     1.0000 0.71856  0.85408  0.90001  Biso   1.000  C
  H333     1.0000 0.70700  0.87710  0.90180  Biso   1.000  H
  C524     1.0000 0.73752  0.83999  0.93067  Biso   1.000  C
  C525     1.0000 0.73975  0.86106  0.96612  Biso   1.000  C
  C526     1.0000 0.74043  0.89955  0.96655  Biso   1.000  C
  H334     1.0000 0.74120  0.91230  0.94400  Biso   1.000  H
  C527     1.0000 0.72280  0.97930  0.02590  Biso   1.000  C
  H335     1.0000 0.71020  0.96600  0.04610  Biso   1.000  H
  C528     1.0000 0.75960  0.97965  0.02480  Biso   1.000  C
  H336     1.0000 0.77350  0.96650  0.04430  Biso   1.000  H
  Al1      1.0000 0.25000  0.28607  0.21393  Biso   1.000  Al
  Al2      1.0000 0.75000  0.71393  0.21393  Biso   1.000  Al
  Al3      1.0000 0.75000  0.28607  0.78607  Biso   1.000  Al
  Al4      1.0000 0.25000  0.71393  0.78607  Biso   1.000  Al
  Al5      1.0000 0.21393  0.25000  0.28607  Biso   1.000  Al
  Al6      1.0000 0.21393  0.75000  0.71393  Biso   1.000  Al
  Al7      1.0000 0.78607  0.75000  0.28607  Biso   1.000  Al
  Al8      1.0000 0.78607  0.25000  0.71393  Biso   1.000  Al
  Al9      1.0000 0.28607  0.21393  0.25000  Biso   1.000  Al
  Al10     1.0000 0.71393  0.21393  0.75000  Biso   1.000  Al
  Al11     1.0000 0.28607  0.78607  0.75000  Biso   1.000  Al
  Al12     1.0000 0.71393  0.78607  0.25000  Biso   1.000  Al
  Al13     1.0000 0.75000  0.71393  0.78607  Biso   1.000  Al
  Al14     1.0000 0.25000  0.28607  0.78607  Biso   1.000  Al
  Al15     1.0000 0.25000  0.71393  0.21393  Biso   1.000  Al
  Al16     1.0000 0.75000  0.28607  0.21393  Biso   1.000  Al
  Al17     1.0000 0.78607  0.75000  0.71393  Biso   1.000  Al
  Al18     1.0000 0.78607  0.25000  0.28607  Biso   1.000  Al
  Al19     1.0000 0.21393  0.25000  0.71393  Biso   1.000  Al
  Al20     1.0000 0.21393  0.75000  0.28607  Biso   1.000  Al
  Al21     1.0000 0.71393  0.78607  0.75000  Biso   1.000  Al
  Al22     1.0000 0.28607  0.78607  0.25000  Biso   1.000  Al
  Al23     1.0000 0.71393  0.21393  0.25000  Biso   1.000  Al
  Al24     1.0000 0.28607  0.21393  0.75000  Biso   1.000  Al
  O97      1.0000 0.25000  0.25000  0.25000  Biso   1.000  O
  O98      1.0000 0.75000  0.75000  0.25000  Biso   1.000  O
  O99      1.0000 0.75000  0.25000  0.75000  Biso   1.000  O
  O100     1.0000 0.25000  0.75000  0.75000  Biso   1.000  O
  O101     1.0000 0.75000  0.75000  0.75000  Biso   1.000  O
  O102     1.0000 0.25000  0.25000  0.75000  Biso   1.000  O
  O103     1.0000 0.25000  0.75000  0.25000  Biso   1.000  O
  O104     1.0000 0.75000  0.25000  0.25000  Biso   1.000  O
  C529     1.0000 0.50000  0.34185  0.23890  Biso   1.000  C
  H337     1.0000 0.50000  0.31600  0.23780  Biso   1.000  H
  C530     1.0000 0.50000  0.42007  0.24000  Biso   1.000  C
  C531     1.0000 0.50000  0.45999  0.24110  Biso   1.000  C
  C532     1.0000 0.50000  0.65815  0.23890  Biso   1.000  C
  H338     1.0000 0.50000  0.68400  0.23780  Biso   1.000  H
  C533     1.0000 0.50000  0.57993  0.24000  Biso   1.000  C
  C534     1.0000 0.50000  0.54001  0.24110  Biso   1.000  C
  C535     1.0000 0.50000  0.34185  0.76110  Biso   1.000  C
  H339     1.0000 0.50000  0.31600  0.76220  Biso   1.000  H
  C536     1.0000 0.50000  0.42007  0.76000  Biso   1.000  C
  C537     1.0000 0.50000  0.45999  0.75890  Biso   1.000  C
  C538     1.0000 0.50000  0.65815  0.76110  Biso   1.000  C
  H340     1.0000 0.50000  0.68400  0.76220  Biso   1.000  H
  C539     1.0000 0.50000  0.57993  0.76000  Biso   1.000  C
  C540     1.0000 0.50000  0.54001  0.75890  Biso   1.000  C
  C541     1.0000 0.23890  0.50000  0.34185  Biso   1.000  C
  H341     1.0000 0.23780  0.50000  0.31600  Biso   1.000  H
  C542     1.0000 0.24000  0.50000  0.42007  Biso   1.000  C
  C543     1.0000 0.24110  0.50000  0.45999  Biso   1.000  C
  C544     1.0000 0.23890  0.50000  0.65815  Biso   1.000  C
  H342     1.0000 0.23780  0.50000  0.68400  Biso   1.000  H
  C545     1.0000 0.24000  0.50000  0.57993  Biso   1.000  C
  C546     1.0000 0.24110  0.50000  0.54001  Biso   1.000  C
  C547     1.0000 0.76110  0.50000  0.34185  Biso   1.000  C
  H343     1.0000 0.76220  0.50000  0.31600  Biso   1.000  H
  C548     1.0000 0.76000  0.50000  0.42007  Biso   1.000  C
  C549     1.0000 0.75890  0.50000  0.45999  Biso   1.000  C
  C550     1.0000 0.76110  0.50000  0.65815  Biso   1.000  C
  H344     1.0000 0.76220  0.50000  0.68400  Biso   1.000  H
  C551     1.0000 0.76000  0.50000  0.57993  Biso   1.000  C
  C552     1.0000 0.75890  0.50000  0.54001  Biso   1.000  C
  C553     1.0000 0.34185  0.23890  0.50000  Biso   1.000  C
  H345     1.0000 0.31600  0.23780  0.50000  Biso   1.000  H
  C554     1.0000 0.42007  0.24000  0.50000  Biso   1.000  C
  C555     1.0000 0.45999  0.24110  0.50000  Biso   1.000  C
  C556     1.0000 0.65815  0.23890  0.50000  Biso   1.000  C
  H346     1.0000 0.68400  0.23780  0.50000  Biso   1.000  H
  C557     1.0000 0.57993  0.24000  0.50000  Biso   1.000  C
  C558     1.0000 0.54001  0.24110  0.50000  Biso   1.000  C
  C559     1.0000 0.34185  0.76110  0.50000  Biso   1.000  C
  H347     1.0000 0.31600  0.76220  0.50000  Biso   1.000  H
  C560     1.0000 0.42007  0.76000  0.50000  Biso   1.000  C
  C561     1.0000 0.45999  0.75890  0.50000  Biso   1.000  C
  C562     1.0000 0.65815  0.76110  0.50000  Biso   1.000  C
  H348     1.0000 0.68400  0.76220  0.50000  Biso   1.000  H
  C563     1.0000 0.57993  0.76000  0.50000  Biso   1.000  C
  C564     1.0000 0.54001  0.75890  0.50000  Biso   1.000  C
  C565     1.0000 0.84185  0.00000  0.26110  Biso   1.000  C
  H349     1.0000 0.81600  0.00000  0.26220  Biso   1.000  H
  C566     1.0000 0.92007  0.00000  0.26000  Biso   1.000  C
  C567     1.0000 0.95999  0.00000  0.25890  Biso   1.000  C
  C568     1.0000 0.15815  0.00000  0.26110  Biso   1.000  C
  H350     1.0000 0.18400  0.00000  0.26220  Biso   1.000  H
  C569     1.0000 0.07993  0.00000  0.26000  Biso   1.000  C
  C570     1.0000 0.04001  0.00000  0.25890  Biso   1.000  C
  C571     1.0000 0.84185  0.00000  0.73890  Biso   1.000  C
  H351     1.0000 0.81600  0.00000  0.73780  Biso   1.000  H
  C572     1.0000 0.92007  0.00000  0.74000  Biso   1.000  C
  C573     1.0000 0.95999  0.00000  0.74110  Biso   1.000  C
  C574     1.0000 0.15815  0.00000  0.73890  Biso   1.000  C
  H352     1.0000 0.18400  0.00000  0.73780  Biso   1.000  H
  C575     1.0000 0.07993  0.00000  0.74000  Biso   1.000  C
  C576     1.0000 0.04001  0.00000  0.74110  Biso   1.000  C
  C577     1.0000 0.00000  0.73890  0.15815  Biso   1.000  C
  H353     1.0000 0.00000  0.73780  0.18400  Biso   1.000  H
  C578     1.0000 0.00000  0.74000  0.07993  Biso   1.000  C
  C579     1.0000 0.00000  0.74110  0.04001  Biso   1.000  C
  C580     1.0000 0.00000  0.73890  0.84185  Biso   1.000  C
  H354     1.0000 0.00000  0.73780  0.81600  Biso   1.000  H
  C581     1.0000 0.00000  0.74000  0.92007  Biso   1.000  C
  C582     1.0000 0.00000  0.74110  0.95999  Biso   1.000  C
  C583     1.0000 0.00000  0.26110  0.15815  Biso   1.000  C
  H355     1.0000 0.00000  0.26220  0.18400  Biso   1.000  H
  C584     1.0000 0.00000  0.26000  0.07993  Biso   1.000  C
  C585     1.0000 0.00000  0.25890  0.04001  Biso   1.000  C
  C586     1.0000 0.00000  0.26110  0.84185  Biso   1.000  C
  H356     1.0000 0.00000  0.26220  0.81600  Biso   1.000  H
  C587     1.0000 0.00000  0.26000  0.92007  Biso   1.000  C
  C588     1.0000 0.00000  0.25890  0.95999  Biso   1.000  C
  C589     1.0000 0.73890  0.84185  0.00000  Biso   1.000  C
  H357     1.0000 0.73780  0.81600  0.00000  Biso   1.000  H
  C590     1.0000 0.74000  0.92007  0.00000  Biso   1.000  C
  C591     1.0000 0.74110  0.95999  0.00000  Biso   1.000  C
  C592     1.0000 0.73890  0.15815  0.00000  Biso   1.000  C
  H358     1.0000 0.73780  0.18400  0.00000  Biso   1.000  H
  C593     1.0000 0.74000  0.07993  0.00000  Biso   1.000  C
  C594     1.0000 0.74110  0.04001  0.00000  Biso   1.000  C
  C595     1.0000 0.26110  0.84185  0.00000  Biso   1.000  C
  H359     1.0000 0.26220  0.81600  0.00000  Biso   1.000  H
  C596     1.0000 0.26000  0.92007  0.00000  Biso   1.000  C
  C597     1.0000 0.25890  0.95999  0.00000  Biso   1.000  C
  C598     1.0000 0.26110  0.15815  0.00000  Biso   1.000  C
  H360     1.0000 0.26220  0.18400  0.00000  Biso   1.000  H
  C599     1.0000 0.26000  0.07993  0.00000  Biso   1.000  C
  C600     1.0000 0.25890  0.04001  0.00000  Biso   1.000  C
