data_image0
_cell_length_a       21.5909
_cell_length_b       24.0263
_cell_length_c       31.1146
_cell_angle_alpha    90
_cell_angle_beta     105.794
_cell_angle_gamma    90

_symmetry_space_group_name_H-M    "P 1"
_symmetry_int_tables_number       1

loop_
  _symmetry_equiv_pos_as_xyz
  'x, y, z'

loop_
  _atom_site_label
  _atom_site_occupancy
  _atom_site_fract_x
  _atom_site_fract_y
  _atom_site_fract_z
  _atom_site_thermal_displace_type
  _atom_site_B_iso_or_equiv
  _atom_site_type_symbol
  Eu1      1.0000 0.91378  0.22919  0.19866  Biso   1.000  Eu
  Eu2      1.0000 0.82479  0.69043  0.58727  Biso   1.000  Eu
  C1       1.0000 0.82430  0.30742  0.53066  Biso   1.000  C
  C2       1.0000 0.81670  0.33557  0.48909  Biso   1.000  C
  H1       1.0000 0.80770  0.37400  0.48350  Biso   1.000  H
  C3       1.0000 0.82470  0.29720  0.45935  Biso   1.000  C
  H2       1.0000 0.82320  0.30370  0.42900  Biso   1.000  H
  C4       1.0000 0.83590  0.24463  0.48235  Biso   1.000  C
  C5       1.0000 0.85400  0.19467  0.46511  Biso   1.000  C
  C6       1.0000 0.86050  0.14305  0.48629  Biso   1.000  C
  C7       1.0000 0.87640  0.09158  0.46904  Biso   1.000  C
  H3       1.0000 0.88880  0.08680  0.44220  Biso   1.000  H
  C8       1.0000 0.87070  0.05100  0.49745  Biso   1.000  C
  H4       1.0000 0.87840  0.01250  0.49440  Biso   1.000  H
  C9       1.0000 0.85100  0.07676  0.53335  Biso   1.000  C
  C10      1.0000 0.83570  0.04920  0.56858  Biso   1.000  C
  C11      1.0000 0.81740  0.07494  0.60352  Biso   1.000  C
  C12      1.0000 0.79800  0.04562  0.63812  Biso   1.000  C
  H5       1.0000 0.79260  0.00650  0.64000  Biso   1.000  H
  C13      1.0000 0.78890  0.08416  0.66740  Biso   1.000  C
  H6       1.0000 0.77570  0.07730  0.69370  Biso   1.000  H
  C14      1.0000 0.80293  0.13783  0.65126  Biso   1.000  C
  C15      1.0000 0.80862  0.18802  0.67522  Biso   1.000  C
  C16      1.0000 0.82617  0.23876  0.65964  Biso   1.000  C
  C17      1.0000 0.83900  0.28915  0.68435  Biso   1.000  C
  H7       1.0000 0.84110  0.29360  0.71510  Biso   1.000  H
  C18      1.0000 0.84770  0.32974  0.65630  Biso   1.000  C
  H8       1.0000 0.85850  0.36750  0.66380  Biso   1.000  H
  C19      1.0000 0.83760  0.30486  0.61312  Biso   1.000  C
  C20      1.0000 0.83080  0.33331  0.57280  Biso   1.000  C
  N1       1.0000 0.83239  0.25076  0.52513  Biso   1.000  N
  N2       1.0000 0.84687  0.13319  0.52627  Biso   1.000  N
  N3       1.0000 0.81866  0.13067  0.61138  Biso   1.000  N
  N4       1.0000 0.82911  0.24850  0.61722  Biso   1.000  N
  C21      1.0000 0.87110  0.19846  0.42151  Biso   1.000  C
  C22      1.0000 0.82350  0.20171  0.38138  Biso   1.000  C
  H9       1.0000 0.77940  0.19930  0.38100  Biso   1.000  H
  C23      1.0000 0.84040  0.20847  0.34187  Biso   1.000  C
  H10      1.0000 0.80770  0.21120  0.31450  Biso   1.000  H
  C24      1.0000 0.90440  0.21134  0.34179  Biso   1.000  C
  C25      1.0000 0.95140  0.20530  0.38118  Biso   1.000  C
  H11      1.0000 0.99540  0.20540  0.38140  Biso   1.000  H
  C26      1.0000 0.93400  0.19910  0.42118  Biso   1.000  C
  H12      1.0000 0.96670  0.19530  0.44850  Biso   1.000  H
  C27      1.0000 0.92160  0.22126  0.29960  Biso   1.000  C
  O1       1.0000 0.87734  0.22344  0.26352  Biso   1.000  O
  O2       1.0000 0.98061  0.22695  0.30058  Biso   1.000  O
  C28      1.0000 0.83850  0.98697  0.57052  Biso   1.000  C
  C29      1.0000 0.89320  0.96035  0.59662  Biso   1.000  C
  H13      1.0000 0.93120  0.98110  0.60930  Biso   1.000  H
  C30      1.0000 0.89200  0.90382  0.60401  Biso   1.000  C
  H14      1.0000 0.92900  0.88610  0.62260  Biso   1.000  H
  C31      1.0000 0.83760  0.87256  0.58469  Biso   1.000  C
  C32      1.0000 0.78350  0.89889  0.55687  Biso   1.000  C
  H15      1.0000 0.74640  0.87770  0.54280  Biso   1.000  H
  C33      1.0000 0.78420  0.95531  0.54988  Biso   1.000  C
  H16      1.0000 0.74740  0.97300  0.53090  Biso   1.000  H
  C34      1.0000 0.83470  0.81209  0.59256  Biso   1.000  C
  O3       1.0000 0.78593  0.78516  0.57285  Biso   1.000  O
  O4       1.0000 0.88297  0.78853  0.61986  Biso   1.000  O
  C35      1.0000 0.78970  0.18675  0.71798  Biso   1.000  C
  C36      1.0000 0.72630  0.17523  0.71755  Biso   1.000  C
  H17      1.0000 0.69590  0.16610  0.69010  Biso   1.000  H
  C37      1.0000 0.70690  0.17694  0.75646  Biso   1.000  C
  H18      1.0000 0.66350  0.16920  0.75570  Biso   1.000  H
  C38      1.0000 0.75120  0.19002  0.79656  Biso   1.000  C
  C39      1.0000 0.81500  0.19834  0.79797  Biso   1.000  C
  H19      1.0000 0.84570  0.20480  0.82580  Biso   1.000  H
  C40      1.0000 0.83510  0.19726  0.75854  Biso   1.000  C
  H20      1.0000 0.87890  0.20360  0.75960  Biso   1.000  H
  C41      1.0000 0.72950  0.19682  0.83813  Biso   1.000  C
  O5       1.0000 0.66933  0.20530  0.83369  Biso   1.000  O
  O6       1.0000 0.76844  0.19433  0.87614  Biso   1.000  O
  C42      1.0000 0.83100  0.39537  0.57436  Biso   1.000  C
  C43      1.0000 0.87680  0.42612  0.55984  Biso   1.000  C
  H21      1.0000 0.90750  0.40730  0.54830  Biso   1.000  H
  C44      1.0000 0.87760  0.48342  0.56227  Biso   1.000  C
  H22      1.0000 0.90860  0.50400  0.55230  Biso   1.000  H
  C45      1.0000 0.83260  0.51134  0.57935  Biso   1.000  C
  C46      1.0000 0.78720  0.48084  0.59355  Biso   1.000  C
  H23      1.0000 0.75650  0.49950  0.60510  Biso   1.000  H
  C47      1.0000 0.78660  0.42312  0.59086  Biso   1.000  C
  H24      1.0000 0.75520  0.40260  0.60050  Biso   1.000  H
  C48      1.0000 0.83190  0.57345  0.58190  Biso   1.000  C
  O7       1.0000 0.80670  0.59678  0.60965  Biso   1.000  O
  O8       1.0000 0.85550  0.60282  0.55580  Biso   1.000  O
  Cu1      1.0000 0.83170  0.19023  0.56940  Biso   1.000  Cu
  C49      1.0000 0.99801  0.84578  0.28976  Biso   1.000  C
  C50      1.0000 0.99190  0.87259  0.32941  Biso   1.000  C
  H25      1.0000 0.99250  0.91160  0.33460  Biso   1.000  H
  C51      1.0000 0.98500  0.83232  0.35824  Biso   1.000  C
  H26      1.0000 0.97950  0.83790  0.38720  Biso   1.000  H
  C52      1.0000 0.98750  0.77982  0.33713  Biso   1.000  C
  C53      1.0000 0.97904  0.72818  0.35545  Biso   1.000  C
  C54      1.0000 0.98350  0.67601  0.33582  Biso   1.000  C
  C55      1.0000 0.98050  0.62308  0.35722  Biso   1.000  C
  H27      1.0000 0.97490  0.61730  0.38610  Biso   1.000  H
  C56      1.0000 0.98740  0.58314  0.32792  Biso   1.000  C
  H28      1.0000 0.98790  0.54410  0.33290  Biso   1.000  H
  C57      1.0000 0.99386  0.60993  0.28853  Biso   1.000  C
  N5       1.0000 0.99645  0.78881  0.29539  Biso   1.000  N
  N6       1.0000 0.99138  0.66706  0.29398  Biso   1.000  N
  C58      1.0000 0.05030  0.96544  0.27799  Biso   1.000  C
  H29      1.0000 0.08530  0.94620  0.29740  Biso   1.000  H
  C59      1.0000 0.05000  0.02291  0.27802  Biso   1.000  C
  H30      1.0000 0.08460  0.04250  0.29760  Biso   1.000  H
  O9       1.0000 0.95159  0.13924  0.22502  Biso   1.000  O
  C60      1.0000 0.96340  0.72670  0.39944  Biso   1.000  C
  C61      1.0000 0.90120  0.72360  0.40207  Biso   1.000  C
  H31      1.0000 0.86740  0.72490  0.37510  Biso   1.000  H
  C62      1.0000 0.88550  0.71890  0.44152  Biso   1.000  C
  H32      1.0000 0.84170  0.71710  0.44190  Biso   1.000  H
  C63      1.0000 0.93400  0.71670  0.48085  Biso   1.000  C
  C64      1.0000 0.99560  0.71970  0.47871  Biso   1.000  C
  H33      1.0000 0.02960  0.71760  0.50550  Biso   1.000  H
  C65      1.0000 0.00980  0.72570  0.43860  Biso   1.000  C
  H34      1.0000 0.05350  0.72930  0.43840  Biso   1.000  H
  C66      1.0000 0.92040  0.71030  0.52710  Biso   1.000  C
  O10      1.0000 0.96660  0.69590  0.55900  Biso   1.000  O
  O11      1.0000 0.86710  0.71874  0.52955  Biso   1.000  O
  C67      1.0000 0.05280  0.49174  0.27545  Biso   1.000  C
  H35      1.0000 0.08910  0.51140  0.29300  Biso   1.000  H
  C68      1.0000 0.05280  0.43344  0.27537  Biso   1.000  C
  H36      1.0000 0.08920  0.41380  0.29280  Biso   1.000  H
  O12      1.0000 0.04991  0.31737  0.27255  Biso   1.000  O
  O13      1.0000 0.73100  0.66280  0.53610  Biso   1.000  O
  O14      1.0000 0.72920  0.30510  0.02210  Biso   1.000  O
  Eu3      1.0000 0.41378  0.72919  0.19866  Biso   1.000  Eu
  Eu4      1.0000 0.32479  0.19043  0.58727  Biso   1.000  Eu
  C69      1.0000 0.32430  0.80742  0.53066  Biso   1.000  C
  C70      1.0000 0.31670  0.83557  0.48909  Biso   1.000  C
  H37      1.0000 0.30770  0.87400  0.48350  Biso   1.000  H
  C71      1.0000 0.32470  0.79720  0.45935  Biso   1.000  C
  H38      1.0000 0.32320  0.80370  0.42900  Biso   1.000  H
  C72      1.0000 0.33590  0.74463  0.48235  Biso   1.000  C
  C73      1.0000 0.35400  0.69467  0.46511  Biso   1.000  C
  C74      1.0000 0.36050  0.64305  0.48629  Biso   1.000  C
  C75      1.0000 0.37640  0.59158  0.46904  Biso   1.000  C
  H39      1.0000 0.38880  0.58680  0.44220  Biso   1.000  H
  C76      1.0000 0.37070  0.55100  0.49745  Biso   1.000  C
  H40      1.0000 0.37840  0.51250  0.49440  Biso   1.000  H
  C77      1.0000 0.35100  0.57676  0.53335  Biso   1.000  C
  C78      1.0000 0.33570  0.54920  0.56858  Biso   1.000  C
  C79      1.0000 0.31740  0.57494  0.60352  Biso   1.000  C
  C80      1.0000 0.29800  0.54562  0.63812  Biso   1.000  C
  H41      1.0000 0.29260  0.50650  0.64000  Biso   1.000  H
  C81      1.0000 0.28890  0.58416  0.66740  Biso   1.000  C
  H42      1.0000 0.27570  0.57730  0.69370  Biso   1.000  H
  C82      1.0000 0.30293  0.63783  0.65126  Biso   1.000  C
  C83      1.0000 0.30862  0.68802  0.67522  Biso   1.000  C
  C84      1.0000 0.32617  0.73876  0.65964  Biso   1.000  C
  C85      1.0000 0.33900  0.78915  0.68435  Biso   1.000  C
  H43      1.0000 0.34110  0.79360  0.71510  Biso   1.000  H
  C86      1.0000 0.34770  0.82974  0.65630  Biso   1.000  C
  H44      1.0000 0.35850  0.86750  0.66380  Biso   1.000  H
  C87      1.0000 0.33760  0.80486  0.61312  Biso   1.000  C
  C88      1.0000 0.33080  0.83331  0.57280  Biso   1.000  C
  N7       1.0000 0.33239  0.75076  0.52513  Biso   1.000  N
  N8       1.0000 0.34687  0.63319  0.52627  Biso   1.000  N
  N9       1.0000 0.31866  0.63067  0.61138  Biso   1.000  N
  N10      1.0000 0.32911  0.74850  0.61722  Biso   1.000  N
  C89      1.0000 0.37110  0.69846  0.42151  Biso   1.000  C
  C90      1.0000 0.32350  0.70171  0.38138  Biso   1.000  C
  H45      1.0000 0.27940  0.69930  0.38100  Biso   1.000  H
  C91      1.0000 0.34040  0.70847  0.34187  Biso   1.000  C
  H46      1.0000 0.30770  0.71120  0.31450  Biso   1.000  H
  C92      1.0000 0.40440  0.71134  0.34179  Biso   1.000  C
  C93      1.0000 0.45140  0.70530  0.38118  Biso   1.000  C
  H47      1.0000 0.49540  0.70540  0.38140  Biso   1.000  H
  C94      1.0000 0.43400  0.69910  0.42118  Biso   1.000  C
  H48      1.0000 0.46670  0.69530  0.44850  Biso   1.000  H
  C95      1.0000 0.42160  0.72126  0.29960  Biso   1.000  C
  O15      1.0000 0.37734  0.72344  0.26352  Biso   1.000  O
  O16      1.0000 0.48061  0.72695  0.30058  Biso   1.000  O
  C96      1.0000 0.33850  0.48697  0.57052  Biso   1.000  C
  C97      1.0000 0.39320  0.46035  0.59662  Biso   1.000  C
  H49      1.0000 0.43120  0.48110  0.60930  Biso   1.000  H
  C98      1.0000 0.39200  0.40382  0.60401  Biso   1.000  C
  H50      1.0000 0.42900  0.38610  0.62260  Biso   1.000  H
  C99      1.0000 0.33760  0.37256  0.58469  Biso   1.000  C
  C100     1.0000 0.28350  0.39889  0.55687  Biso   1.000  C
  H51      1.0000 0.24640  0.37770  0.54280  Biso   1.000  H
  C101     1.0000 0.28420  0.45531  0.54988  Biso   1.000  C
  H52      1.0000 0.24740  0.47300  0.53090  Biso   1.000  H
  C102     1.0000 0.33470  0.31209  0.59256  Biso   1.000  C
  O17      1.0000 0.28593  0.28516  0.57285  Biso   1.000  O
  O18      1.0000 0.38297  0.28853  0.61986  Biso   1.000  O
  C103     1.0000 0.28970  0.68675  0.71798  Biso   1.000  C
  C104     1.0000 0.22630  0.67523  0.71755  Biso   1.000  C
  H53      1.0000 0.19590  0.66610  0.69010  Biso   1.000  H
  C105     1.0000 0.20690  0.67694  0.75646  Biso   1.000  C
  H54      1.0000 0.16350  0.66920  0.75570  Biso   1.000  H
  C106     1.0000 0.25120  0.69002  0.79656  Biso   1.000  C
  C107     1.0000 0.31500  0.69834  0.79797  Biso   1.000  C
  H55      1.0000 0.34570  0.70480  0.82580  Biso   1.000  H
  C108     1.0000 0.33510  0.69726  0.75854  Biso   1.000  C
  H56      1.0000 0.37890  0.70360  0.75960  Biso   1.000  H
  C109     1.0000 0.22950  0.69682  0.83813  Biso   1.000  C
  O19      1.0000 0.16933  0.70530  0.83369  Biso   1.000  O
  O20      1.0000 0.26844  0.69433  0.87614  Biso   1.000  O
  C110     1.0000 0.33100  0.89537  0.57436  Biso   1.000  C
  C111     1.0000 0.37680  0.92612  0.55984  Biso   1.000  C
  H57      1.0000 0.40750  0.90730  0.54830  Biso   1.000  H
  C112     1.0000 0.37760  0.98342  0.56227  Biso   1.000  C
  H58      1.0000 0.40860  0.00400  0.55230  Biso   1.000  H
  C113     1.0000 0.33260  0.01134  0.57935  Biso   1.000  C
  C114     1.0000 0.28720  0.98084  0.59355  Biso   1.000  C
  H59      1.0000 0.25650  0.99950  0.60510  Biso   1.000  H
  C115     1.0000 0.28660  0.92312  0.59086  Biso   1.000  C
  H60      1.0000 0.25520  0.90260  0.60050  Biso   1.000  H
  C116     1.0000 0.33190  0.07345  0.58190  Biso   1.000  C
  O21      1.0000 0.30670  0.09678  0.60965  Biso   1.000  O
  O22      1.0000 0.35550  0.10282  0.55580  Biso   1.000  O
  Cu2      1.0000 0.33170  0.69023  0.56940  Biso   1.000  Cu
  C117     1.0000 0.49801  0.34578  0.28976  Biso   1.000  C
  C118     1.0000 0.49190  0.37259  0.32941  Biso   1.000  C
  H61      1.0000 0.49250  0.41160  0.33460  Biso   1.000  H
  C119     1.0000 0.48500  0.33232  0.35824  Biso   1.000  C
  H62      1.0000 0.47950  0.33790  0.38720  Biso   1.000  H
  C120     1.0000 0.48750  0.27982  0.33713  Biso   1.000  C
  C121     1.0000 0.47904  0.22818  0.35545  Biso   1.000  C
  C122     1.0000 0.48350  0.17601  0.33582  Biso   1.000  C
  C123     1.0000 0.48050  0.12308  0.35722  Biso   1.000  C
  H63      1.0000 0.47490  0.11730  0.38610  Biso   1.000  H
  C124     1.0000 0.48740  0.08314  0.32792  Biso   1.000  C
  H64      1.0000 0.48790  0.04410  0.33290  Biso   1.000  H
  C125     1.0000 0.49386  0.10993  0.28853  Biso   1.000  C
  N11      1.0000 0.49645  0.28881  0.29539  Biso   1.000  N
  N12      1.0000 0.49138  0.16706  0.29398  Biso   1.000  N
  C126     1.0000 0.55030  0.46544  0.27799  Biso   1.000  C
  H65      1.0000 0.58530  0.44620  0.29740  Biso   1.000  H
  C127     1.0000 0.55000  0.52291  0.27802  Biso   1.000  C
  H66      1.0000 0.58460  0.54250  0.29760  Biso   1.000  H
  O23      1.0000 0.45159  0.63924  0.22502  Biso   1.000  O
  C128     1.0000 0.46340  0.22670  0.39944  Biso   1.000  C
  C129     1.0000 0.40120  0.22360  0.40207  Biso   1.000  C
  H67      1.0000 0.36740  0.22490  0.37510  Biso   1.000  H
  C130     1.0000 0.38550  0.21890  0.44152  Biso   1.000  C
  H68      1.0000 0.34170  0.21710  0.44190  Biso   1.000  H
  C131     1.0000 0.43400  0.21670  0.48085  Biso   1.000  C
  C132     1.0000 0.49560  0.21970  0.47871  Biso   1.000  C
  H69      1.0000 0.52960  0.21760  0.50550  Biso   1.000  H
  C133     1.0000 0.50980  0.22570  0.43860  Biso   1.000  C
  H70      1.0000 0.55350  0.22930  0.43840  Biso   1.000  H
  C134     1.0000 0.42040  0.21030  0.52710  Biso   1.000  C
  O24      1.0000 0.46660  0.19590  0.55900  Biso   1.000  O
  O25      1.0000 0.36710  0.21874  0.52955  Biso   1.000  O
  C135     1.0000 0.55280  0.99174  0.27545  Biso   1.000  C
  H71      1.0000 0.58910  0.01140  0.29300  Biso   1.000  H
  C136     1.0000 0.55280  0.93344  0.27537  Biso   1.000  C
  H72      1.0000 0.58920  0.91380  0.29280  Biso   1.000  H
  O26      1.0000 0.54991  0.81737  0.27255  Biso   1.000  O
  O27      1.0000 0.23100  0.16280  0.53610  Biso   1.000  O
  O28      1.0000 0.22920  0.80510  0.02210  Biso   1.000  O
  Eu5      1.0000 0.08622  0.22919  0.30134  Biso   1.000  Eu
  Eu6      1.0000 0.17521  0.69043  0.91273  Biso   1.000  Eu
  C137     1.0000 0.17570  0.30742  0.96934  Biso   1.000  C
  C138     1.0000 0.18330  0.33557  0.01091  Biso   1.000  C
  H73      1.0000 0.19230  0.37400  0.01650  Biso   1.000  H
  C139     1.0000 0.17530  0.29720  0.04065  Biso   1.000  C
  H74      1.0000 0.17680  0.30370  0.07100  Biso   1.000  H
  C140     1.0000 0.16410  0.24463  0.01765  Biso   1.000  C
  C141     1.0000 0.14600  0.19467  0.03489  Biso   1.000  C
  C142     1.0000 0.13950  0.14305  0.01371  Biso   1.000  C
  C143     1.0000 0.12360  0.09158  0.03096  Biso   1.000  C
  H75      1.0000 0.11120  0.08680  0.05780  Biso   1.000  H
  C144     1.0000 0.12930  0.05100  0.00255  Biso   1.000  C
  H76      1.0000 0.12160  0.01250  0.00560  Biso   1.000  H
  C145     1.0000 0.14900  0.07676  0.96665  Biso   1.000  C
  C146     1.0000 0.16430  0.04920  0.93142  Biso   1.000  C
  C147     1.0000 0.18260  0.07494  0.89648  Biso   1.000  C
  C148     1.0000 0.20200  0.04562  0.86188  Biso   1.000  C
  H77      1.0000 0.20740  0.00650  0.86000  Biso   1.000  H
  C149     1.0000 0.21110  0.08416  0.83260  Biso   1.000  C
  H78      1.0000 0.22430  0.07730  0.80630  Biso   1.000  H
  C150     1.0000 0.19707  0.13783  0.84874  Biso   1.000  C
  C151     1.0000 0.19138  0.18802  0.82478  Biso   1.000  C
  C152     1.0000 0.17383  0.23876  0.84036  Biso   1.000  C
  C153     1.0000 0.16100  0.28915  0.81565  Biso   1.000  C
  H79      1.0000 0.15890  0.29360  0.78490  Biso   1.000  H
  C154     1.0000 0.15230  0.32974  0.84370  Biso   1.000  C
  H80      1.0000 0.14150  0.36750  0.83620  Biso   1.000  H
  C155     1.0000 0.16240  0.30486  0.88688  Biso   1.000  C
  C156     1.0000 0.16920  0.33331  0.92720  Biso   1.000  C
  N13      1.0000 0.16761  0.25076  0.97487  Biso   1.000  N
  N14      1.0000 0.15313  0.13319  0.97373  Biso   1.000  N
  N15      1.0000 0.18134  0.13067  0.88862  Biso   1.000  N
  N16      1.0000 0.17089  0.24850  0.88278  Biso   1.000  N
  C157     1.0000 0.12890  0.19846  0.07849  Biso   1.000  C
  C158     1.0000 0.17650  0.20171  0.11862  Biso   1.000  C
  H81      1.0000 0.22060  0.19930  0.11900  Biso   1.000  H
  C159     1.0000 0.15960  0.20847  0.15813  Biso   1.000  C
  H82      1.0000 0.19230  0.21120  0.18550  Biso   1.000  H
  C160     1.0000 0.09560  0.21134  0.15821  Biso   1.000  C
  C161     1.0000 0.04860  0.20530  0.11882  Biso   1.000  C
  H83      1.0000 0.00460  0.20540  0.11860  Biso   1.000  H
  C162     1.0000 0.06600  0.19910  0.07882  Biso   1.000  C
  H84      1.0000 0.03330  0.19530  0.05150  Biso   1.000  H
  C163     1.0000 0.07840  0.22126  0.20040  Biso   1.000  C
  O29      1.0000 0.12266  0.22344  0.23648  Biso   1.000  O
  O30      1.0000 0.01939  0.22695  0.19942  Biso   1.000  O
  C164     1.0000 0.16150  0.98697  0.92948  Biso   1.000  C
  C165     1.0000 0.10680  0.96035  0.90338  Biso   1.000  C
  H85      1.0000 0.06880  0.98110  0.89070  Biso   1.000  H
  C166     1.0000 0.10800  0.90382  0.89599  Biso   1.000  C
  H86      1.0000 0.07100  0.88610  0.87740  Biso   1.000  H
  C167     1.0000 0.16240  0.87256  0.91531  Biso   1.000  C
  C168     1.0000 0.21650  0.89889  0.94313  Biso   1.000  C
  H87      1.0000 0.25360  0.87770  0.95720  Biso   1.000  H
  C169     1.0000 0.21580  0.95531  0.95012  Biso   1.000  C
  H88      1.0000 0.25260  0.97300  0.96910  Biso   1.000  H
  C170     1.0000 0.16530  0.81209  0.90744  Biso   1.000  C
  O31      1.0000 0.21407  0.78516  0.92715  Biso   1.000  O
  O32      1.0000 0.11703  0.78853  0.88014  Biso   1.000  O
  C171     1.0000 0.21030  0.18675  0.78202  Biso   1.000  C
  C172     1.0000 0.27370  0.17523  0.78245  Biso   1.000  C
  H89      1.0000 0.30410  0.16610  0.80990  Biso   1.000  H
  C173     1.0000 0.29310  0.17694  0.74354  Biso   1.000  C
  H90      1.0000 0.33650  0.16920  0.74430  Biso   1.000  H
  C174     1.0000 0.24880  0.19002  0.70344  Biso   1.000  C
  C175     1.0000 0.18500  0.19834  0.70203  Biso   1.000  C
  H91      1.0000 0.15430  0.20480  0.67420  Biso   1.000  H
  C176     1.0000 0.16490  0.19726  0.74146  Biso   1.000  C
  H92      1.0000 0.12110  0.20360  0.74040  Biso   1.000  H
  C177     1.0000 0.27050  0.19682  0.66187  Biso   1.000  C
  O33      1.0000 0.33067  0.20530  0.66631  Biso   1.000  O
  O34      1.0000 0.23156  0.19433  0.62386  Biso   1.000  O
  C178     1.0000 0.16900  0.39537  0.92564  Biso   1.000  C
  C179     1.0000 0.12320  0.42612  0.94016  Biso   1.000  C
  H93      1.0000 0.09250  0.40730  0.95170  Biso   1.000  H
  C180     1.0000 0.12240  0.48342  0.93773  Biso   1.000  C
  H94      1.0000 0.09140  0.50400  0.94770  Biso   1.000  H
  C181     1.0000 0.16740  0.51134  0.92065  Biso   1.000  C
  C182     1.0000 0.21280  0.48084  0.90645  Biso   1.000  C
  H95      1.0000 0.24350  0.49950  0.89490  Biso   1.000  H
  C183     1.0000 0.21340  0.42312  0.90914  Biso   1.000  C
  H96      1.0000 0.24480  0.40260  0.89950  Biso   1.000  H
  C184     1.0000 0.16810  0.57345  0.91810  Biso   1.000  C
  O35      1.0000 0.19330  0.59678  0.89035  Biso   1.000  O
  O36      1.0000 0.14450  0.60282  0.94420  Biso   1.000  O
  Cu3      1.0000 0.16830  0.19023  0.93060  Biso   1.000  Cu
  C185     1.0000 0.00199  0.84578  0.21024  Biso   1.000  C
  C186     1.0000 0.00810  0.87259  0.17059  Biso   1.000  C
  H97      1.0000 0.00750  0.91160  0.16540  Biso   1.000  H
  C187     1.0000 0.01500  0.83232  0.14176  Biso   1.000  C
  H98      1.0000 0.02050  0.83790  0.11280  Biso   1.000  H
  C188     1.0000 0.01250  0.77982  0.16287  Biso   1.000  C
  C189     1.0000 0.02096  0.72818  0.14455  Biso   1.000  C
  C190     1.0000 0.01650  0.67601  0.16418  Biso   1.000  C
  C191     1.0000 0.01950  0.62308  0.14278  Biso   1.000  C
  H99      1.0000 0.02510  0.61730  0.11390  Biso   1.000  H
  C192     1.0000 0.01260  0.58314  0.17208  Biso   1.000  C
  H100     1.0000 0.01210  0.54410  0.16710  Biso   1.000  H
  C193     1.0000 0.00614  0.60993  0.21147  Biso   1.000  C
  N17      1.0000 0.00355  0.78881  0.20461  Biso   1.000  N
  N18      1.0000 0.00862  0.66706  0.20602  Biso   1.000  N
  C194     1.0000 0.94970  0.96544  0.22201  Biso   1.000  C
  H101     1.0000 0.91470  0.94620  0.20260  Biso   1.000  H
  C195     1.0000 0.95000  0.02291  0.22198  Biso   1.000  C
  H102     1.0000 0.91540  0.04250  0.20240  Biso   1.000  H
  O37      1.0000 0.04841  0.13924  0.27498  Biso   1.000  O
  C196     1.0000 0.03660  0.72670  0.10056  Biso   1.000  C
  C197     1.0000 0.09880  0.72360  0.09793  Biso   1.000  C
  H103     1.0000 0.13260  0.72490  0.12490  Biso   1.000  H
  C198     1.0000 0.11450  0.71890  0.05848  Biso   1.000  C
  H104     1.0000 0.15830  0.71710  0.05810  Biso   1.000  H
  C199     1.0000 0.06600  0.71670  0.01915  Biso   1.000  C
  C200     1.0000 0.00440  0.71970  0.02129  Biso   1.000  C
  H105     1.0000 0.97040  0.71760  0.99450  Biso   1.000  H
  C201     1.0000 0.99020  0.72570  0.06140  Biso   1.000  C
  H106     1.0000 0.94650  0.72930  0.06160  Biso   1.000  H
  C202     1.0000 0.07960  0.71030  0.97290  Biso   1.000  C
  O38      1.0000 0.03340  0.69590  0.94100  Biso   1.000  O
  O39      1.0000 0.13290  0.71874  0.97045  Biso   1.000  O
  C203     1.0000 0.94720  0.49174  0.22455  Biso   1.000  C
  H107     1.0000 0.91090  0.51140  0.20700  Biso   1.000  H
  C204     1.0000 0.94720  0.43344  0.22463  Biso   1.000  C
  H108     1.0000 0.91080  0.41380  0.20720  Biso   1.000  H
  O40      1.0000 0.95009  0.31737  0.22745  Biso   1.000  O
  O41      1.0000 0.26900  0.66280  0.96390  Biso   1.000  O
  O42      1.0000 0.27080  0.30510  0.47790  Biso   1.000  O
  Eu7      1.0000 0.58622  0.72919  0.30134  Biso   1.000  Eu
  Eu8      1.0000 0.67521  0.19043  0.91273  Biso   1.000  Eu
  C205     1.0000 0.67570  0.80742  0.96934  Biso   1.000  C
  C206     1.0000 0.68330  0.83557  0.01091  Biso   1.000  C
  H109     1.0000 0.69230  0.87400  0.01650  Biso   1.000  H
  C207     1.0000 0.67530  0.79720  0.04065  Biso   1.000  C
  H110     1.0000 0.67680  0.80370  0.07100  Biso   1.000  H
  C208     1.0000 0.66410  0.74463  0.01765  Biso   1.000  C
  C209     1.0000 0.64600  0.69467  0.03489  Biso   1.000  C
  C210     1.0000 0.63950  0.64305  0.01371  Biso   1.000  C
  C211     1.0000 0.62360  0.59158  0.03096  Biso   1.000  C
  H111     1.0000 0.61120  0.58680  0.05780  Biso   1.000  H
  C212     1.0000 0.62930  0.55100  0.00255  Biso   1.000  C
  H112     1.0000 0.62160  0.51250  0.00560  Biso   1.000  H
  C213     1.0000 0.64900  0.57676  0.96665  Biso   1.000  C
  C214     1.0000 0.66430  0.54920  0.93142  Biso   1.000  C
  C215     1.0000 0.68260  0.57494  0.89648  Biso   1.000  C
  C216     1.0000 0.70200  0.54562  0.86188  Biso   1.000  C
  H113     1.0000 0.70740  0.50650  0.86000  Biso   1.000  H
  C217     1.0000 0.71110  0.58416  0.83260  Biso   1.000  C
  H114     1.0000 0.72430  0.57730  0.80630  Biso   1.000  H
  C218     1.0000 0.69707  0.63783  0.84874  Biso   1.000  C
  C219     1.0000 0.69138  0.68802  0.82478  Biso   1.000  C
  C220     1.0000 0.67383  0.73876  0.84036  Biso   1.000  C
  C221     1.0000 0.66100  0.78915  0.81565  Biso   1.000  C
  H115     1.0000 0.65890  0.79360  0.78490  Biso   1.000  H
  C222     1.0000 0.65230  0.82974  0.84370  Biso   1.000  C
  H116     1.0000 0.64150  0.86750  0.83620  Biso   1.000  H
  C223     1.0000 0.66240  0.80486  0.88688  Biso   1.000  C
  C224     1.0000 0.66920  0.83331  0.92720  Biso   1.000  C
  N19      1.0000 0.66761  0.75076  0.97487  Biso   1.000  N
  N20      1.0000 0.65313  0.63319  0.97373  Biso   1.000  N
  N21      1.0000 0.68134  0.63067  0.88862  Biso   1.000  N
  N22      1.0000 0.67089  0.74850  0.88278  Biso   1.000  N
  C225     1.0000 0.62890  0.69846  0.07849  Biso   1.000  C
  C226     1.0000 0.67650  0.70171  0.11862  Biso   1.000  C
  H117     1.0000 0.72060  0.69930  0.11900  Biso   1.000  H
  C227     1.0000 0.65960  0.70847  0.15813  Biso   1.000  C
  H118     1.0000 0.69230  0.71120  0.18550  Biso   1.000  H
  C228     1.0000 0.59560  0.71134  0.15821  Biso   1.000  C
  C229     1.0000 0.54860  0.70530  0.11882  Biso   1.000  C
  H119     1.0000 0.50460  0.70540  0.11860  Biso   1.000  H
  C230     1.0000 0.56600  0.69910  0.07882  Biso   1.000  C
  H120     1.0000 0.53330  0.69530  0.05150  Biso   1.000  H
  C231     1.0000 0.57840  0.72126  0.20040  Biso   1.000  C
  O43      1.0000 0.62266  0.72344  0.23648  Biso   1.000  O
  O44      1.0000 0.51939  0.72695  0.19942  Biso   1.000  O
  C232     1.0000 0.66150  0.48697  0.92948  Biso   1.000  C
  C233     1.0000 0.60680  0.46035  0.90338  Biso   1.000  C
  H121     1.0000 0.56880  0.48110  0.89070  Biso   1.000  H
  C234     1.0000 0.60800  0.40382  0.89599  Biso   1.000  C
  H122     1.0000 0.57100  0.38610  0.87740  Biso   1.000  H
  C235     1.0000 0.66240  0.37256  0.91531  Biso   1.000  C
  C236     1.0000 0.71650  0.39889  0.94313  Biso   1.000  C
  H123     1.0000 0.75360  0.37770  0.95720  Biso   1.000  H
  C237     1.0000 0.71580  0.45531  0.95012  Biso   1.000  C
  H124     1.0000 0.75260  0.47300  0.96910  Biso   1.000  H
  C238     1.0000 0.66530  0.31209  0.90744  Biso   1.000  C
  O45      1.0000 0.71407  0.28516  0.92715  Biso   1.000  O
  O46      1.0000 0.61703  0.28853  0.88014  Biso   1.000  O
  C239     1.0000 0.71030  0.68675  0.78202  Biso   1.000  C
  C240     1.0000 0.77370  0.67523  0.78245  Biso   1.000  C
  H125     1.0000 0.80410  0.66610  0.80990  Biso   1.000  H
  C241     1.0000 0.79310  0.67694  0.74354  Biso   1.000  C
  H126     1.0000 0.83650  0.66920  0.74430  Biso   1.000  H
  C242     1.0000 0.74880  0.69002  0.70344  Biso   1.000  C
  C243     1.0000 0.68500  0.69834  0.70203  Biso   1.000  C
  H127     1.0000 0.65430  0.70480  0.67420  Biso   1.000  H
  C244     1.0000 0.66490  0.69726  0.74146  Biso   1.000  C
  H128     1.0000 0.62110  0.70360  0.74040  Biso   1.000  H
  C245     1.0000 0.77050  0.69682  0.66187  Biso   1.000  C
  O47      1.0000 0.83067  0.70530  0.66631  Biso   1.000  O
  O48      1.0000 0.73156  0.69433  0.62386  Biso   1.000  O
  C246     1.0000 0.66900  0.89537  0.92564  Biso   1.000  C
  C247     1.0000 0.62320  0.92612  0.94016  Biso   1.000  C
  H129     1.0000 0.59250  0.90730  0.95170  Biso   1.000  H
  C248     1.0000 0.62240  0.98342  0.93773  Biso   1.000  C
  H130     1.0000 0.59140  0.00400  0.94770  Biso   1.000  H
  C249     1.0000 0.66740  0.01134  0.92065  Biso   1.000  C
  C250     1.0000 0.71280  0.98084  0.90645  Biso   1.000  C
  H131     1.0000 0.74350  0.99950  0.89490  Biso   1.000  H
  C251     1.0000 0.71340  0.92312  0.90914  Biso   1.000  C
  H132     1.0000 0.74480  0.90260  0.89950  Biso   1.000  H
  C252     1.0000 0.66810  0.07345  0.91810  Biso   1.000  C
  O49      1.0000 0.69330  0.09678  0.89035  Biso   1.000  O
  O50      1.0000 0.64450  0.10282  0.94420  Biso   1.000  O
  Cu4      1.0000 0.66830  0.69023  0.93060  Biso   1.000  Cu
  C253     1.0000 0.50199  0.34578  0.21024  Biso   1.000  C
  C254     1.0000 0.50810  0.37259  0.17059  Biso   1.000  C
  H133     1.0000 0.50750  0.41160  0.16540  Biso   1.000  H
  C255     1.0000 0.51500  0.33232  0.14176  Biso   1.000  C
  H134     1.0000 0.52050  0.33790  0.11280  Biso   1.000  H
  C256     1.0000 0.51250  0.27982  0.16287  Biso   1.000  C
  C257     1.0000 0.52096  0.22818  0.14455  Biso   1.000  C
  C258     1.0000 0.51650  0.17601  0.16418  Biso   1.000  C
  C259     1.0000 0.51950  0.12308  0.14278  Biso   1.000  C
  H135     1.0000 0.52510  0.11730  0.11390  Biso   1.000  H
  C260     1.0000 0.51260  0.08314  0.17208  Biso   1.000  C
  H136     1.0000 0.51210  0.04410  0.16710  Biso   1.000  H
  C261     1.0000 0.50614  0.10993  0.21147  Biso   1.000  C
  N23      1.0000 0.50355  0.28881  0.20461  Biso   1.000  N
  N24      1.0000 0.50862  0.16706  0.20602  Biso   1.000  N
  C262     1.0000 0.44970  0.46544  0.22201  Biso   1.000  C
  H137     1.0000 0.41470  0.44620  0.20260  Biso   1.000  H
  C263     1.0000 0.45000  0.52291  0.22198  Biso   1.000  C
  H138     1.0000 0.41540  0.54250  0.20240  Biso   1.000  H
  O51      1.0000 0.54841  0.63924  0.27498  Biso   1.000  O
  C264     1.0000 0.53660  0.22670  0.10056  Biso   1.000  C
  C265     1.0000 0.59880  0.22360  0.09793  Biso   1.000  C
  H139     1.0000 0.63260  0.22490  0.12490  Biso   1.000  H
  C266     1.0000 0.61450  0.21890  0.05848  Biso   1.000  C
  H140     1.0000 0.65830  0.21710  0.05810  Biso   1.000  H
  C267     1.0000 0.56600  0.21670  0.01915  Biso   1.000  C
  C268     1.0000 0.50440  0.21970  0.02129  Biso   1.000  C
  H141     1.0000 0.47040  0.21760  0.99450  Biso   1.000  H
  C269     1.0000 0.49020  0.22570  0.06140  Biso   1.000  C
  H142     1.0000 0.44650  0.22930  0.06160  Biso   1.000  H
  C270     1.0000 0.57960  0.21030  0.97290  Biso   1.000  C
  O52      1.0000 0.53340  0.19590  0.94100  Biso   1.000  O
  O53      1.0000 0.63290  0.21874  0.97045  Biso   1.000  O
  C271     1.0000 0.44720  0.99174  0.22455  Biso   1.000  C
  H143     1.0000 0.41090  0.01140  0.20700  Biso   1.000  H
  C272     1.0000 0.44720  0.93344  0.22463  Biso   1.000  C
  H144     1.0000 0.41080  0.91380  0.20720  Biso   1.000  H
  O54      1.0000 0.45009  0.81737  0.22745  Biso   1.000  O
  O55      1.0000 0.76900  0.16280  0.96390  Biso   1.000  O
  O56      1.0000 0.77080  0.80510  0.47790  Biso   1.000  O
  Eu9      1.0000 0.08622  0.77081  0.80134  Biso   1.000  Eu
  Eu10     1.0000 0.17521  0.30957  0.41273  Biso   1.000  Eu
  C273     1.0000 0.17570  0.69258  0.46934  Biso   1.000  C
  C274     1.0000 0.18330  0.66443  0.51091  Biso   1.000  C
  H145     1.0000 0.19230  0.62600  0.51650  Biso   1.000  H
  C275     1.0000 0.17530  0.70280  0.54065  Biso   1.000  C
  H146     1.0000 0.17680  0.69630  0.57100  Biso   1.000  H
  C276     1.0000 0.16410  0.75537  0.51765  Biso   1.000  C
  C277     1.0000 0.14600  0.80533  0.53489  Biso   1.000  C
  C278     1.0000 0.13950  0.85695  0.51371  Biso   1.000  C
  C279     1.0000 0.12360  0.90842  0.53096  Biso   1.000  C
  H147     1.0000 0.11120  0.91320  0.55780  Biso   1.000  H
  C280     1.0000 0.12930  0.94900  0.50255  Biso   1.000  C
  H148     1.0000 0.12160  0.98750  0.50560  Biso   1.000  H
  C281     1.0000 0.14900  0.92324  0.46665  Biso   1.000  C
  C282     1.0000 0.16430  0.95080  0.43142  Biso   1.000  C
  C283     1.0000 0.18260  0.92506  0.39648  Biso   1.000  C
  C284     1.0000 0.20200  0.95438  0.36188  Biso   1.000  C
  H149     1.0000 0.20740  0.99350  0.36000  Biso   1.000  H
  C285     1.0000 0.21110  0.91584  0.33260  Biso   1.000  C
  H150     1.0000 0.22430  0.92270  0.30630  Biso   1.000  H
  C286     1.0000 0.19707  0.86217  0.34874  Biso   1.000  C
  C287     1.0000 0.19138  0.81198  0.32478  Biso   1.000  C
  C288     1.0000 0.17383  0.76124  0.34036  Biso   1.000  C
  C289     1.0000 0.16100  0.71085  0.31565  Biso   1.000  C
  H151     1.0000 0.15890  0.70640  0.28490  Biso   1.000  H
  C290     1.0000 0.15230  0.67026  0.34370  Biso   1.000  C
  H152     1.0000 0.14150  0.63250  0.33620  Biso   1.000  H
  C291     1.0000 0.16240  0.69514  0.38688  Biso   1.000  C
  C292     1.0000 0.16920  0.66669  0.42720  Biso   1.000  C
  N25      1.0000 0.16761  0.74924  0.47487  Biso   1.000  N
  N26      1.0000 0.15313  0.86681  0.47373  Biso   1.000  N
  N27      1.0000 0.18134  0.86933  0.38862  Biso   1.000  N
  N28      1.0000 0.17089  0.75150  0.38278  Biso   1.000  N
  C293     1.0000 0.12890  0.80154  0.57849  Biso   1.000  C
  C294     1.0000 0.17650  0.79829  0.61862  Biso   1.000  C
  H153     1.0000 0.22060  0.80070  0.61900  Biso   1.000  H
  C295     1.0000 0.15960  0.79153  0.65813  Biso   1.000  C
  H154     1.0000 0.19230  0.78880  0.68550  Biso   1.000  H
  C296     1.0000 0.09560  0.78866  0.65821  Biso   1.000  C
  C297     1.0000 0.04860  0.79470  0.61882  Biso   1.000  C
  H155     1.0000 0.00460  0.79460  0.61860  Biso   1.000  H
  C298     1.0000 0.06600  0.80090  0.57882  Biso   1.000  C
  H156     1.0000 0.03330  0.80470  0.55150  Biso   1.000  H
  C299     1.0000 0.07840  0.77874  0.70040  Biso   1.000  C
  O57      1.0000 0.12266  0.77656  0.73648  Biso   1.000  O
  O58      1.0000 0.01939  0.77305  0.69942  Biso   1.000  O
  C300     1.0000 0.16150  0.01303  0.42948  Biso   1.000  C
  C301     1.0000 0.10680  0.03965  0.40338  Biso   1.000  C
  H157     1.0000 0.06880  0.01890  0.39070  Biso   1.000  H
  C302     1.0000 0.10800  0.09618  0.39599  Biso   1.000  C
  H158     1.0000 0.07100  0.11390  0.37740  Biso   1.000  H
  C303     1.0000 0.16240  0.12744  0.41531  Biso   1.000  C
  C304     1.0000 0.21650  0.10111  0.44313  Biso   1.000  C
  H159     1.0000 0.25360  0.12230  0.45720  Biso   1.000  H
  C305     1.0000 0.21580  0.04469  0.45012  Biso   1.000  C
  H160     1.0000 0.25260  0.02700  0.46910  Biso   1.000  H
  C306     1.0000 0.16530  0.18791  0.40744  Biso   1.000  C
  O59      1.0000 0.21407  0.21484  0.42715  Biso   1.000  O
  O60      1.0000 0.11703  0.21147  0.38014  Biso   1.000  O
  C307     1.0000 0.21030  0.81325  0.28202  Biso   1.000  C
  C308     1.0000 0.27370  0.82477  0.28245  Biso   1.000  C
  H161     1.0000 0.30410  0.83390  0.30990  Biso   1.000  H
  C309     1.0000 0.29310  0.82306  0.24354  Biso   1.000  C
  H162     1.0000 0.33650  0.83080  0.24430  Biso   1.000  H
  C310     1.0000 0.24880  0.80998  0.20344  Biso   1.000  C
  C311     1.0000 0.18500  0.80166  0.20203  Biso   1.000  C
  H163     1.0000 0.15430  0.79520  0.17420  Biso   1.000  H
  C312     1.0000 0.16490  0.80274  0.24146  Biso   1.000  C
  H164     1.0000 0.12110  0.79640  0.24040  Biso   1.000  H
  C313     1.0000 0.27050  0.80318  0.16187  Biso   1.000  C
  O61      1.0000 0.33067  0.79470  0.16631  Biso   1.000  O
  O62      1.0000 0.23156  0.80567  0.12386  Biso   1.000  O
  C314     1.0000 0.16900  0.60463  0.42564  Biso   1.000  C
  C315     1.0000 0.12320  0.57388  0.44016  Biso   1.000  C
  H165     1.0000 0.09250  0.59270  0.45170  Biso   1.000  H
  C316     1.0000 0.12240  0.51658  0.43773  Biso   1.000  C
  H166     1.0000 0.09140  0.49600  0.44770  Biso   1.000  H
  C317     1.0000 0.16740  0.48866  0.42065  Biso   1.000  C
  C318     1.0000 0.21280  0.51916  0.40645  Biso   1.000  C
  H167     1.0000 0.24350  0.50050  0.39490  Biso   1.000  H
  C319     1.0000 0.21340  0.57688  0.40914  Biso   1.000  C
  H168     1.0000 0.24480  0.59740  0.39950  Biso   1.000  H
  C320     1.0000 0.16810  0.42655  0.41810  Biso   1.000  C
  O63      1.0000 0.19330  0.40322  0.39035  Biso   1.000  O
  O64      1.0000 0.14450  0.39718  0.44420  Biso   1.000  O
  Cu5      1.0000 0.16830  0.80977  0.43060  Biso   1.000  Cu
  C321     1.0000 0.00199  0.15422  0.71024  Biso   1.000  C
  C322     1.0000 0.00810  0.12741  0.67059  Biso   1.000  C
  H169     1.0000 0.00750  0.08840  0.66540  Biso   1.000  H
  C323     1.0000 0.01500  0.16768  0.64176  Biso   1.000  C
  H170     1.0000 0.02050  0.16210  0.61280  Biso   1.000  H
  C324     1.0000 0.01250  0.22018  0.66287  Biso   1.000  C
  C325     1.0000 0.02096  0.27182  0.64455  Biso   1.000  C
  C326     1.0000 0.01650  0.32399  0.66418  Biso   1.000  C
  C327     1.0000 0.01950  0.37692  0.64278  Biso   1.000  C
  H171     1.0000 0.02510  0.38270  0.61390  Biso   1.000  H
  C328     1.0000 0.01260  0.41686  0.67208  Biso   1.000  C
  H172     1.0000 0.01210  0.45590  0.66710  Biso   1.000  H
  C329     1.0000 0.00614  0.39007  0.71147  Biso   1.000  C
  N29      1.0000 0.00355  0.21119  0.70461  Biso   1.000  N
  N30      1.0000 0.00862  0.33294  0.70602  Biso   1.000  N
  C330     1.0000 0.94970  0.03456  0.72201  Biso   1.000  C
  H173     1.0000 0.91470  0.05380  0.70260  Biso   1.000  H
  C331     1.0000 0.95000  0.97709  0.72198  Biso   1.000  C
  H174     1.0000 0.91540  0.95750  0.70240  Biso   1.000  H
  O65      1.0000 0.04841  0.86076  0.77498  Biso   1.000  O
  C332     1.0000 0.03660  0.27330  0.60056  Biso   1.000  C
  C333     1.0000 0.09880  0.27640  0.59793  Biso   1.000  C
  H175     1.0000 0.13260  0.27510  0.62490  Biso   1.000  H
  C334     1.0000 0.11450  0.28110  0.55848  Biso   1.000  C
  H176     1.0000 0.15830  0.28290  0.55810  Biso   1.000  H
  C335     1.0000 0.06600  0.28330  0.51915  Biso   1.000  C
  C336     1.0000 0.00440  0.28030  0.52129  Biso   1.000  C
  H177     1.0000 0.97040  0.28240  0.49450  Biso   1.000  H
  C337     1.0000 0.99020  0.27430  0.56140  Biso   1.000  C
  H178     1.0000 0.94650  0.27070  0.56160  Biso   1.000  H
  C338     1.0000 0.07960  0.28970  0.47290  Biso   1.000  C
  O66      1.0000 0.03340  0.30410  0.44100  Biso   1.000  O
  O67      1.0000 0.13290  0.28126  0.47045  Biso   1.000  O
  C339     1.0000 0.94720  0.50826  0.72455  Biso   1.000  C
  H179     1.0000 0.91090  0.48860  0.70700  Biso   1.000  H
  C340     1.0000 0.94720  0.56656  0.72463  Biso   1.000  C
  H180     1.0000 0.91080  0.58620  0.70720  Biso   1.000  H
  O68      1.0000 0.95009  0.68263  0.72745  Biso   1.000  O
  O69      1.0000 0.26900  0.33720  0.46390  Biso   1.000  O
  O70      1.0000 0.27080  0.69490  0.97790  Biso   1.000  O
  Eu11     1.0000 0.58622  0.27081  0.80134  Biso   1.000  Eu
  Eu12     1.0000 0.67521  0.80957  0.41273  Biso   1.000  Eu
  C341     1.0000 0.67570  0.19258  0.46934  Biso   1.000  C
  C342     1.0000 0.68330  0.16443  0.51091  Biso   1.000  C
  H181     1.0000 0.69230  0.12600  0.51650  Biso   1.000  H
  C343     1.0000 0.67530  0.20280  0.54065  Biso   1.000  C
  H182     1.0000 0.67680  0.19630  0.57100  Biso   1.000  H
  C344     1.0000 0.66410  0.25537  0.51765  Biso   1.000  C
  C345     1.0000 0.64600  0.30533  0.53489  Biso   1.000  C
  C346     1.0000 0.63950  0.35695  0.51371  Biso   1.000  C
  C347     1.0000 0.62360  0.40842  0.53096  Biso   1.000  C
  H183     1.0000 0.61120  0.41320  0.55780  Biso   1.000  H
  C348     1.0000 0.62930  0.44900  0.50255  Biso   1.000  C
  H184     1.0000 0.62160  0.48750  0.50560  Biso   1.000  H
  C349     1.0000 0.64900  0.42324  0.46665  Biso   1.000  C
  C350     1.0000 0.66430  0.45080  0.43142  Biso   1.000  C
  C351     1.0000 0.68260  0.42506  0.39648  Biso   1.000  C
  C352     1.0000 0.70200  0.45438  0.36188  Biso   1.000  C
  H185     1.0000 0.70740  0.49350  0.36000  Biso   1.000  H
  C353     1.0000 0.71110  0.41584  0.33260  Biso   1.000  C
  H186     1.0000 0.72430  0.42270  0.30630  Biso   1.000  H
  C354     1.0000 0.69707  0.36217  0.34874  Biso   1.000  C
  C355     1.0000 0.69138  0.31198  0.32478  Biso   1.000  C
  C356     1.0000 0.67383  0.26124  0.34036  Biso   1.000  C
  C357     1.0000 0.66100  0.21085  0.31565  Biso   1.000  C
  H187     1.0000 0.65890  0.20640  0.28490  Biso   1.000  H
  C358     1.0000 0.65230  0.17026  0.34370  Biso   1.000  C
  H188     1.0000 0.64150  0.13250  0.33620  Biso   1.000  H
  C359     1.0000 0.66240  0.19514  0.38688  Biso   1.000  C
  C360     1.0000 0.66920  0.16669  0.42720  Biso   1.000  C
  N31      1.0000 0.66761  0.24924  0.47487  Biso   1.000  N
  N32      1.0000 0.65313  0.36681  0.47373  Biso   1.000  N
  N33      1.0000 0.68134  0.36933  0.38862  Biso   1.000  N
  N34      1.0000 0.67089  0.25150  0.38278  Biso   1.000  N
  C361     1.0000 0.62890  0.30154  0.57849  Biso   1.000  C
  C362     1.0000 0.67650  0.29829  0.61862  Biso   1.000  C
  H189     1.0000 0.72060  0.30070  0.61900  Biso   1.000  H
  C363     1.0000 0.65960  0.29153  0.65813  Biso   1.000  C
  H190     1.0000 0.69230  0.28880  0.68550  Biso   1.000  H
  C364     1.0000 0.59560  0.28866  0.65821  Biso   1.000  C
  C365     1.0000 0.54860  0.29470  0.61882  Biso   1.000  C
  H191     1.0000 0.50460  0.29460  0.61860  Biso   1.000  H
  C366     1.0000 0.56600  0.30090  0.57882  Biso   1.000  C
  H192     1.0000 0.53330  0.30470  0.55150  Biso   1.000  H
  C367     1.0000 0.57840  0.27874  0.70040  Biso   1.000  C
  O71      1.0000 0.62266  0.27656  0.73648  Biso   1.000  O
  O72      1.0000 0.51939  0.27305  0.69942  Biso   1.000  O
  C368     1.0000 0.66150  0.51303  0.42948  Biso   1.000  C
  C369     1.0000 0.60680  0.53965  0.40338  Biso   1.000  C
  H193     1.0000 0.56880  0.51890  0.39070  Biso   1.000  H
  C370     1.0000 0.60800  0.59618  0.39599  Biso   1.000  C
  H194     1.0000 0.57100  0.61390  0.37740  Biso   1.000  H
  C371     1.0000 0.66240  0.62744  0.41531  Biso   1.000  C
  C372     1.0000 0.71650  0.60111  0.44313  Biso   1.000  C
  H195     1.0000 0.75360  0.62230  0.45720  Biso   1.000  H
  C373     1.0000 0.71580  0.54469  0.45012  Biso   1.000  C
  H196     1.0000 0.75260  0.52700  0.46910  Biso   1.000  H
  C374     1.0000 0.66530  0.68791  0.40744  Biso   1.000  C
  O73      1.0000 0.71407  0.71484  0.42715  Biso   1.000  O
  O74      1.0000 0.61703  0.71147  0.38014  Biso   1.000  O
  C375     1.0000 0.71030  0.31325  0.28202  Biso   1.000  C
  C376     1.0000 0.77370  0.32477  0.28245  Biso   1.000  C
  H197     1.0000 0.80410  0.33390  0.30990  Biso   1.000  H
  C377     1.0000 0.79310  0.32306  0.24354  Biso   1.000  C
  H198     1.0000 0.83650  0.33080  0.24430  Biso   1.000  H
  C378     1.0000 0.74880  0.30998  0.20344  Biso   1.000  C
  C379     1.0000 0.68500  0.30166  0.20203  Biso   1.000  C
  H199     1.0000 0.65430  0.29520  0.17420  Biso   1.000  H
  C380     1.0000 0.66490  0.30274  0.24146  Biso   1.000  C
  H200     1.0000 0.62110  0.29640  0.24040  Biso   1.000  H
  C381     1.0000 0.77050  0.30318  0.16187  Biso   1.000  C
  O75      1.0000 0.83067  0.29470  0.16631  Biso   1.000  O
  O76      1.0000 0.73156  0.30567  0.12386  Biso   1.000  O
  C382     1.0000 0.66900  0.10463  0.42564  Biso   1.000  C
  C383     1.0000 0.62320  0.07388  0.44016  Biso   1.000  C
  H201     1.0000 0.59250  0.09270  0.45170  Biso   1.000  H
  C384     1.0000 0.62240  0.01658  0.43773  Biso   1.000  C
  H202     1.0000 0.59140  0.99600  0.44770  Biso   1.000  H
  C385     1.0000 0.66740  0.98866  0.42065  Biso   1.000  C
  C386     1.0000 0.71280  0.01916  0.40645  Biso   1.000  C
  H203     1.0000 0.74350  0.00050  0.39490  Biso   1.000  H
  C387     1.0000 0.71340  0.07688  0.40914  Biso   1.000  C
  H204     1.0000 0.74480  0.09740  0.39950  Biso   1.000  H
  C388     1.0000 0.66810  0.92655  0.41810  Biso   1.000  C
  O77      1.0000 0.69330  0.90322  0.39035  Biso   1.000  O
  O78      1.0000 0.64450  0.89718  0.44420  Biso   1.000  O
  Cu6      1.0000 0.66830  0.30977  0.43060  Biso   1.000  Cu
  C389     1.0000 0.50199  0.65422  0.71024  Biso   1.000  C
  C390     1.0000 0.50810  0.62741  0.67059  Biso   1.000  C
  H205     1.0000 0.50750  0.58840  0.66540  Biso   1.000  H
  C391     1.0000 0.51500  0.66768  0.64176  Biso   1.000  C
  H206     1.0000 0.52050  0.66210  0.61280  Biso   1.000  H
  C392     1.0000 0.51250  0.72018  0.66287  Biso   1.000  C
  C393     1.0000 0.52096  0.77182  0.64455  Biso   1.000  C
  C394     1.0000 0.51650  0.82399  0.66418  Biso   1.000  C
  C395     1.0000 0.51950  0.87692  0.64278  Biso   1.000  C
  H207     1.0000 0.52510  0.88270  0.61390  Biso   1.000  H
  C396     1.0000 0.51260  0.91686  0.67208  Biso   1.000  C
  H208     1.0000 0.51210  0.95590  0.66710  Biso   1.000  H
  C397     1.0000 0.50614  0.89007  0.71147  Biso   1.000  C
  N35      1.0000 0.50355  0.71119  0.70461  Biso   1.000  N
  N36      1.0000 0.50862  0.83294  0.70602  Biso   1.000  N
  C398     1.0000 0.44970  0.53456  0.72201  Biso   1.000  C
  H209     1.0000 0.41470  0.55380  0.70260  Biso   1.000  H
  C399     1.0000 0.45000  0.47709  0.72198  Biso   1.000  C
  H210     1.0000 0.41540  0.45750  0.70240  Biso   1.000  H
  O79      1.0000 0.54841  0.36076  0.77498  Biso   1.000  O
  C400     1.0000 0.53660  0.77330  0.60056  Biso   1.000  C
  C401     1.0000 0.59880  0.77640  0.59793  Biso   1.000  C
  H211     1.0000 0.63260  0.77510  0.62490  Biso   1.000  H
  C402     1.0000 0.61450  0.78110  0.55848  Biso   1.000  C
  H212     1.0000 0.65830  0.78290  0.55810  Biso   1.000  H
  C403     1.0000 0.56600  0.78330  0.51915  Biso   1.000  C
  C404     1.0000 0.50440  0.78030  0.52129  Biso   1.000  C
  H213     1.0000 0.47040  0.78240  0.49450  Biso   1.000  H
  C405     1.0000 0.49020  0.77430  0.56140  Biso   1.000  C
  H214     1.0000 0.44650  0.77070  0.56160  Biso   1.000  H
  C406     1.0000 0.57960  0.78970  0.47290  Biso   1.000  C
  O80      1.0000 0.53340  0.80410  0.44100  Biso   1.000  O
  O81      1.0000 0.63290  0.78126  0.47045  Biso   1.000  O
  C407     1.0000 0.44720  0.00826  0.72455  Biso   1.000  C
  H215     1.0000 0.41090  0.98860  0.70700  Biso   1.000  H
  C408     1.0000 0.44720  0.06656  0.72463  Biso   1.000  C
  H216     1.0000 0.41080  0.08620  0.70720  Biso   1.000  H
  O82      1.0000 0.45009  0.18263  0.72745  Biso   1.000  O
  O83      1.0000 0.76900  0.83720  0.46390  Biso   1.000  O
  O84      1.0000 0.77080  0.19490  0.97790  Biso   1.000  O
  Eu13     1.0000 0.91378  0.77081  0.69866  Biso   1.000  Eu
  Eu14     1.0000 0.82479  0.30957  0.08727  Biso   1.000  Eu
  C409     1.0000 0.82430  0.69258  0.03066  Biso   1.000  C
  C410     1.0000 0.81670  0.66443  0.98909  Biso   1.000  C
  H217     1.0000 0.80770  0.62600  0.98350  Biso   1.000  H
  C411     1.0000 0.82470  0.70280  0.95935  Biso   1.000  C
  H218     1.0000 0.82320  0.69630  0.92900  Biso   1.000  H
  C412     1.0000 0.83590  0.75537  0.98235  Biso   1.000  C
  C413     1.0000 0.85400  0.80533  0.96511  Biso   1.000  C
  C414     1.0000 0.86050  0.85695  0.98629  Biso   1.000  C
  C415     1.0000 0.87640  0.90842  0.96904  Biso   1.000  C
  H219     1.0000 0.88880  0.91320  0.94220  Biso   1.000  H
  C416     1.0000 0.87070  0.94900  0.99745  Biso   1.000  C
  H220     1.0000 0.87840  0.98750  0.99440  Biso   1.000  H
  C417     1.0000 0.85100  0.92324  0.03335  Biso   1.000  C
  C418     1.0000 0.83570  0.95080  0.06858  Biso   1.000  C
  C419     1.0000 0.81740  0.92506  0.10352  Biso   1.000  C
  C420     1.0000 0.79800  0.95438  0.13812  Biso   1.000  C
  H221     1.0000 0.79260  0.99350  0.14000  Biso   1.000  H
  C421     1.0000 0.78890  0.91584  0.16740  Biso   1.000  C
  H222     1.0000 0.77570  0.92270  0.19370  Biso   1.000  H
  C422     1.0000 0.80293  0.86217  0.15126  Biso   1.000  C
  C423     1.0000 0.80862  0.81198  0.17522  Biso   1.000  C
  C424     1.0000 0.82617  0.76124  0.15964  Biso   1.000  C
  C425     1.0000 0.83900  0.71085  0.18435  Biso   1.000  C
  H223     1.0000 0.84110  0.70640  0.21510  Biso   1.000  H
  C426     1.0000 0.84770  0.67026  0.15630  Biso   1.000  C
  H224     1.0000 0.85850  0.63250  0.16380  Biso   1.000  H
  C427     1.0000 0.83760  0.69514  0.11312  Biso   1.000  C
  C428     1.0000 0.83080  0.66669  0.07280  Biso   1.000  C
  N37      1.0000 0.83239  0.74924  0.02513  Biso   1.000  N
  N38      1.0000 0.84687  0.86681  0.02627  Biso   1.000  N
  N39      1.0000 0.81866  0.86933  0.11138  Biso   1.000  N
  N40      1.0000 0.82911  0.75150  0.11722  Biso   1.000  N
  C429     1.0000 0.87110  0.80154  0.92151  Biso   1.000  C
  C430     1.0000 0.82350  0.79829  0.88138  Biso   1.000  C
  H225     1.0000 0.77940  0.80070  0.88100  Biso   1.000  H
  C431     1.0000 0.84040  0.79153  0.84187  Biso   1.000  C
  H226     1.0000 0.80770  0.78880  0.81450  Biso   1.000  H
  C432     1.0000 0.90440  0.78866  0.84179  Biso   1.000  C
  C433     1.0000 0.95140  0.79470  0.88118  Biso   1.000  C
  H227     1.0000 0.99540  0.79460  0.88140  Biso   1.000  H
  C434     1.0000 0.93400  0.80090  0.92118  Biso   1.000  C
  H228     1.0000 0.96670  0.80470  0.94850  Biso   1.000  H
  C435     1.0000 0.92160  0.77874  0.79960  Biso   1.000  C
  O85      1.0000 0.87734  0.77656  0.76352  Biso   1.000  O
  O86      1.0000 0.98061  0.77305  0.80058  Biso   1.000  O
  C436     1.0000 0.83850  0.01303  0.07052  Biso   1.000  C
  C437     1.0000 0.89320  0.03965  0.09662  Biso   1.000  C
  H229     1.0000 0.93120  0.01890  0.10930  Biso   1.000  H
  C438     1.0000 0.89200  0.09618  0.10401  Biso   1.000  C
  H230     1.0000 0.92900  0.11390  0.12260  Biso   1.000  H
  C439     1.0000 0.83760  0.12744  0.08469  Biso   1.000  C
  C440     1.0000 0.78350  0.10111  0.05687  Biso   1.000  C
  H231     1.0000 0.74640  0.12230  0.04280  Biso   1.000  H
  C441     1.0000 0.78420  0.04469  0.04988  Biso   1.000  C
  H232     1.0000 0.74740  0.02700  0.03090  Biso   1.000  H
  C442     1.0000 0.83470  0.18791  0.09256  Biso   1.000  C
  O87      1.0000 0.78593  0.21484  0.07285  Biso   1.000  O
  O88      1.0000 0.88297  0.21147  0.11986  Biso   1.000  O
  C443     1.0000 0.78970  0.81325  0.21798  Biso   1.000  C
  C444     1.0000 0.72630  0.82477  0.21755  Biso   1.000  C
  H233     1.0000 0.69590  0.83390  0.19010  Biso   1.000  H
  C445     1.0000 0.70690  0.82306  0.25646  Biso   1.000  C
  H234     1.0000 0.66350  0.83080  0.25570  Biso   1.000  H
  C446     1.0000 0.75120  0.80998  0.29656  Biso   1.000  C
  C447     1.0000 0.81500  0.80166  0.29797  Biso   1.000  C
  H235     1.0000 0.84570  0.79520  0.32580  Biso   1.000  H
  C448     1.0000 0.83510  0.80274  0.25854  Biso   1.000  C
  H236     1.0000 0.87890  0.79640  0.25960  Biso   1.000  H
  C449     1.0000 0.72950  0.80318  0.33813  Biso   1.000  C
  O89      1.0000 0.66933  0.79470  0.33369  Biso   1.000  O
  O90      1.0000 0.76844  0.80567  0.37614  Biso   1.000  O
  C450     1.0000 0.83100  0.60463  0.07436  Biso   1.000  C
  C451     1.0000 0.87680  0.57388  0.05984  Biso   1.000  C
  H237     1.0000 0.90750  0.59270  0.04830  Biso   1.000  H
  C452     1.0000 0.87760  0.51658  0.06227  Biso   1.000  C
  H238     1.0000 0.90860  0.49600  0.05230  Biso   1.000  H
  C453     1.0000 0.83260  0.48866  0.07935  Biso   1.000  C
  C454     1.0000 0.78720  0.51916  0.09355  Biso   1.000  C
  H239     1.0000 0.75650  0.50050  0.10510  Biso   1.000  H
  C455     1.0000 0.78660  0.57688  0.09086  Biso   1.000  C
  H240     1.0000 0.75520  0.59740  0.10050  Biso   1.000  H
  C456     1.0000 0.83190  0.42655  0.08190  Biso   1.000  C
  O91      1.0000 0.80670  0.40322  0.10965  Biso   1.000  O
  O92      1.0000 0.85550  0.39718  0.05580  Biso   1.000  O
  Cu7      1.0000 0.83170  0.80977  0.06940  Biso   1.000  Cu
  C457     1.0000 0.99801  0.15422  0.78976  Biso   1.000  C
  C458     1.0000 0.99190  0.12741  0.82941  Biso   1.000  C
  H241     1.0000 0.99250  0.08840  0.83460  Biso   1.000  H
  C459     1.0000 0.98500  0.16768  0.85824  Biso   1.000  C
  H242     1.0000 0.97950  0.16210  0.88720  Biso   1.000  H
  C460     1.0000 0.98750  0.22018  0.83713  Biso   1.000  C
  C461     1.0000 0.97904  0.27182  0.85545  Biso   1.000  C
  C462     1.0000 0.98350  0.32399  0.83582  Biso   1.000  C
  C463     1.0000 0.98050  0.37692  0.85722  Biso   1.000  C
  H243     1.0000 0.97490  0.38270  0.88610  Biso   1.000  H
  C464     1.0000 0.98740  0.41686  0.82792  Biso   1.000  C
  H244     1.0000 0.98790  0.45590  0.83290  Biso   1.000  H
  C465     1.0000 0.99386  0.39007  0.78853  Biso   1.000  C
  N41      1.0000 0.99645  0.21119  0.79539  Biso   1.000  N
  N42      1.0000 0.99138  0.33294  0.79398  Biso   1.000  N
  C466     1.0000 0.05030  0.03456  0.77799  Biso   1.000  C
  H245     1.0000 0.08530  0.05380  0.79740  Biso   1.000  H
  C467     1.0000 0.05000  0.97709  0.77802  Biso   1.000  C
  H246     1.0000 0.08460  0.95750  0.79760  Biso   1.000  H
  O93      1.0000 0.95159  0.86076  0.72502  Biso   1.000  O
  C468     1.0000 0.96340  0.27330  0.89944  Biso   1.000  C
  C469     1.0000 0.90120  0.27640  0.90207  Biso   1.000  C
  H247     1.0000 0.86740  0.27510  0.87510  Biso   1.000  H
  C470     1.0000 0.88550  0.28110  0.94152  Biso   1.000  C
  H248     1.0000 0.84170  0.28290  0.94190  Biso   1.000  H
  C471     1.0000 0.93400  0.28330  0.98085  Biso   1.000  C
  C472     1.0000 0.99560  0.28030  0.97871  Biso   1.000  C
  H249     1.0000 0.02960  0.28240  0.00550  Biso   1.000  H
  C473     1.0000 0.00980  0.27430  0.93860  Biso   1.000  C
  H250     1.0000 0.05350  0.27070  0.93840  Biso   1.000  H
  C474     1.0000 0.92040  0.28970  0.02710  Biso   1.000  C
  O94      1.0000 0.96660  0.30410  0.05900  Biso   1.000  O
  O95      1.0000 0.86710  0.28126  0.02955  Biso   1.000  O
  C475     1.0000 0.05280  0.50826  0.77545  Biso   1.000  C
  H251     1.0000 0.08910  0.48860  0.79300  Biso   1.000  H
  C476     1.0000 0.05280  0.56656  0.77537  Biso   1.000  C
  H252     1.0000 0.08920  0.58620  0.79280  Biso   1.000  H
  O96      1.0000 0.04991  0.68263  0.77255  Biso   1.000  O
  O97      1.0000 0.73100  0.33720  0.03610  Biso   1.000  O
  O98      1.0000 0.72920  0.69490  0.52210  Biso   1.000  O
  Eu15     1.0000 0.41378  0.27081  0.69866  Biso   1.000  Eu
  Eu16     1.0000 0.32479  0.80957  0.08727  Biso   1.000  Eu
  C477     1.0000 0.32430  0.19258  0.03066  Biso   1.000  C
  C478     1.0000 0.31670  0.16443  0.98909  Biso   1.000  C
  H253     1.0000 0.30770  0.12600  0.98350  Biso   1.000  H
  C479     1.0000 0.32470  0.20280  0.95935  Biso   1.000  C
  H254     1.0000 0.32320  0.19630  0.92900  Biso   1.000  H
  C480     1.0000 0.33590  0.25537  0.98235  Biso   1.000  C
  C481     1.0000 0.35400  0.30533  0.96511  Biso   1.000  C
  C482     1.0000 0.36050  0.35695  0.98629  Biso   1.000  C
  C483     1.0000 0.37640  0.40842  0.96904  Biso   1.000  C
  H255     1.0000 0.38880  0.41320  0.94220  Biso   1.000  H
  C484     1.0000 0.37070  0.44900  0.99745  Biso   1.000  C
  H256     1.0000 0.37840  0.48750  0.99440  Biso   1.000  H
  C485     1.0000 0.35100  0.42324  0.03335  Biso   1.000  C
  C486     1.0000 0.33570  0.45080  0.06858  Biso   1.000  C
  C487     1.0000 0.31740  0.42506  0.10352  Biso   1.000  C
  C488     1.0000 0.29800  0.45438  0.13812  Biso   1.000  C
  H257     1.0000 0.29260  0.49350  0.14000  Biso   1.000  H
  C489     1.0000 0.28890  0.41584  0.16740  Biso   1.000  C
  H258     1.0000 0.27570  0.42270  0.19370  Biso   1.000  H
  C490     1.0000 0.30293  0.36217  0.15126  Biso   1.000  C
  C491     1.0000 0.30862  0.31198  0.17522  Biso   1.000  C
  C492     1.0000 0.32617  0.26124  0.15964  Biso   1.000  C
  C493     1.0000 0.33900  0.21085  0.18435  Biso   1.000  C
  H259     1.0000 0.34110  0.20640  0.21510  Biso   1.000  H
  C494     1.0000 0.34770  0.17026  0.15630  Biso   1.000  C
  H260     1.0000 0.35850  0.13250  0.16380  Biso   1.000  H
  C495     1.0000 0.33760  0.19514  0.11312  Biso   1.000  C
  C496     1.0000 0.33080  0.16669  0.07280  Biso   1.000  C
  N43      1.0000 0.33239  0.24924  0.02513  Biso   1.000  N
  N44      1.0000 0.34687  0.36681  0.02627  Biso   1.000  N
  N45      1.0000 0.31866  0.36933  0.11138  Biso   1.000  N
  N46      1.0000 0.32911  0.25150  0.11722  Biso   1.000  N
  C497     1.0000 0.37110  0.30154  0.92151  Biso   1.000  C
  C498     1.0000 0.32350  0.29829  0.88138  Biso   1.000  C
  H261     1.0000 0.27940  0.30070  0.88100  Biso   1.000  H
  C499     1.0000 0.34040  0.29153  0.84187  Biso   1.000  C
  H262     1.0000 0.30770  0.28880  0.81450  Biso   1.000  H
  C500     1.0000 0.40440  0.28866  0.84179  Biso   1.000  C
  C501     1.0000 0.45140  0.29470  0.88118  Biso   1.000  C
  H263     1.0000 0.49540  0.29460  0.88140  Biso   1.000  H
  C502     1.0000 0.43400  0.30090  0.92118  Biso   1.000  C
  H264     1.0000 0.46670  0.30470  0.94850  Biso   1.000  H
  C503     1.0000 0.42160  0.27874  0.79960  Biso   1.000  C
  O99      1.0000 0.37734  0.27656  0.76352  Biso   1.000  O
  O100     1.0000 0.48061  0.27305  0.80058  Biso   1.000  O
  C504     1.0000 0.33850  0.51303  0.07052  Biso   1.000  C
  C505     1.0000 0.39320  0.53965  0.09662  Biso   1.000  C
  H265     1.0000 0.43120  0.51890  0.10930  Biso   1.000  H
  C506     1.0000 0.39200  0.59618  0.10401  Biso   1.000  C
  H266     1.0000 0.42900  0.61390  0.12260  Biso   1.000  H
  C507     1.0000 0.33760  0.62744  0.08469  Biso   1.000  C
  C508     1.0000 0.28350  0.60111  0.05687  Biso   1.000  C
  H267     1.0000 0.24640  0.62230  0.04280  Biso   1.000  H
  C509     1.0000 0.28420  0.54469  0.04988  Biso   1.000  C
  H268     1.0000 0.24740  0.52700  0.03090  Biso   1.000  H
  C510     1.0000 0.33470  0.68791  0.09256  Biso   1.000  C
  O101     1.0000 0.28593  0.71484  0.07285  Biso   1.000  O
  O102     1.0000 0.38297  0.71147  0.11986  Biso   1.000  O
  C511     1.0000 0.28970  0.31325  0.21798  Biso   1.000  C
  C512     1.0000 0.22630  0.32477  0.21755  Biso   1.000  C
  H269     1.0000 0.19590  0.33390  0.19010  Biso   1.000  H
  C513     1.0000 0.20690  0.32306  0.25646  Biso   1.000  C
  H270     1.0000 0.16350  0.33080  0.25570  Biso   1.000  H
  C514     1.0000 0.25120  0.30998  0.29656  Biso   1.000  C
  C515     1.0000 0.31500  0.30166  0.29797  Biso   1.000  C
  H271     1.0000 0.34570  0.29520  0.32580  Biso   1.000  H
  C516     1.0000 0.33510  0.30274  0.25854  Biso   1.000  C
  H272     1.0000 0.37890  0.29640  0.25960  Biso   1.000  H
  C517     1.0000 0.22950  0.30318  0.33813  Biso   1.000  C
  O103     1.0000 0.16933  0.29470  0.33369  Biso   1.000  O
  O104     1.0000 0.26844  0.30567  0.37614  Biso   1.000  O
  C518     1.0000 0.33100  0.10463  0.07436  Biso   1.000  C
  C519     1.0000 0.37680  0.07388  0.05984  Biso   1.000  C
  H273     1.0000 0.40750  0.09270  0.04830  Biso   1.000  H
  C520     1.0000 0.37760  0.01658  0.06227  Biso   1.000  C
  H274     1.0000 0.40860  0.99600  0.05230  Biso   1.000  H
  C521     1.0000 0.33260  0.98866  0.07935  Biso   1.000  C
  C522     1.0000 0.28720  0.01916  0.09355  Biso   1.000  C
  H275     1.0000 0.25650  0.00050  0.10510  Biso   1.000  H
  C523     1.0000 0.28660  0.07688  0.09086  Biso   1.000  C
  H276     1.0000 0.25520  0.09740  0.10050  Biso   1.000  H
  C524     1.0000 0.33190  0.92655  0.08190  Biso   1.000  C
  O105     1.0000 0.30670  0.90322  0.10965  Biso   1.000  O
  O106     1.0000 0.35550  0.89718  0.05580  Biso   1.000  O
  Cu8      1.0000 0.33170  0.30977  0.06940  Biso   1.000  Cu
  C525     1.0000 0.49801  0.65422  0.78976  Biso   1.000  C
  C526     1.0000 0.49190  0.62741  0.82941  Biso   1.000  C
  H277     1.0000 0.49250  0.58840  0.83460  Biso   1.000  H
  C527     1.0000 0.48500  0.66768  0.85824  Biso   1.000  C
  H278     1.0000 0.47950  0.66210  0.88720  Biso   1.000  H
  C528     1.0000 0.48750  0.72018  0.83713  Biso   1.000  C
  C529     1.0000 0.47904  0.77182  0.85545  Biso   1.000  C
  C530     1.0000 0.48350  0.82399  0.83582  Biso   1.000  C
  C531     1.0000 0.48050  0.87692  0.85722  Biso   1.000  C
  H279     1.0000 0.47490  0.88270  0.88610  Biso   1.000  H
  C532     1.0000 0.48740  0.91686  0.82792  Biso   1.000  C
  H280     1.0000 0.48790  0.95590  0.83290  Biso   1.000  H
  C533     1.0000 0.49386  0.89007  0.78853  Biso   1.000  C
  N47      1.0000 0.49645  0.71119  0.79539  Biso   1.000  N
  N48      1.0000 0.49138  0.83294  0.79398  Biso   1.000  N
  C534     1.0000 0.55030  0.53456  0.77799  Biso   1.000  C
  H281     1.0000 0.58530  0.55380  0.79740  Biso   1.000  H
  C535     1.0000 0.55000  0.47709  0.77802  Biso   1.000  C
  H282     1.0000 0.58460  0.45750  0.79760  Biso   1.000  H
  O107     1.0000 0.45159  0.36076  0.72502  Biso   1.000  O
  C536     1.0000 0.46340  0.77330  0.89944  Biso   1.000  C
  C537     1.0000 0.40120  0.77640  0.90207  Biso   1.000  C
  H283     1.0000 0.36740  0.77510  0.87510  Biso   1.000  H
  C538     1.0000 0.38550  0.78110  0.94152  Biso   1.000  C
  H284     1.0000 0.34170  0.78290  0.94190  Biso   1.000  H
  C539     1.0000 0.43400  0.78330  0.98085  Biso   1.000  C
  C540     1.0000 0.49560  0.78030  0.97871  Biso   1.000  C
  H285     1.0000 0.52960  0.78240  0.00550  Biso   1.000  H
  C541     1.0000 0.50980  0.77430  0.93860  Biso   1.000  C
  H286     1.0000 0.55350  0.77070  0.93840  Biso   1.000  H
  C542     1.0000 0.42040  0.78970  0.02710  Biso   1.000  C
  O108     1.0000 0.46660  0.80410  0.05900  Biso   1.000  O
  O109     1.0000 0.36710  0.78126  0.02955  Biso   1.000  O
  C543     1.0000 0.55280  0.00826  0.77545  Biso   1.000  C
  H287     1.0000 0.58910  0.98860  0.79300  Biso   1.000  H
  C544     1.0000 0.55280  0.06656  0.77537  Biso   1.000  C
  H288     1.0000 0.58920  0.08620  0.79280  Biso   1.000  H
  O110     1.0000 0.54991  0.18263  0.77255  Biso   1.000  O
  O111     1.0000 0.23100  0.83720  0.03610  Biso   1.000  O
  O112     1.0000 0.22920  0.19490  0.52210  Biso   1.000  O
  C545     1.0000 0.00000  0.87330  0.25000  Biso   1.000  C
  C546     1.0000 0.00000  0.58340  0.25000  Biso   1.000  C
  C547     1.0000 0.00000  0.93500  0.25000  Biso   1.000  C
  C548     1.0000 0.00000  0.05220  0.25000  Biso   1.000  C
  C549     1.0000 0.00000  0.11530  0.25000  Biso   1.000  C
  C550     1.0000 0.00000  0.52110  0.25000  Biso   1.000  C
  C551     1.0000 0.00000  0.40420  0.25000  Biso   1.000  C
  C552     1.0000 0.00000  0.34210  0.25000  Biso   1.000  C
  C553     1.0000 0.50000  0.37330  0.25000  Biso   1.000  C
  C554     1.0000 0.50000  0.08340  0.25000  Biso   1.000  C
  C555     1.0000 0.50000  0.43500  0.25000  Biso   1.000  C
  C556     1.0000 0.50000  0.55220  0.25000  Biso   1.000  C
  C557     1.0000 0.50000  0.61530  0.25000  Biso   1.000  C
  C558     1.0000 0.50000  0.02110  0.25000  Biso   1.000  C
  C559     1.0000 0.50000  0.90420  0.25000  Biso   1.000  C
  C560     1.0000 0.50000  0.84210  0.25000  Biso   1.000  C
  C561     1.0000 0.00000  0.12670  0.75000  Biso   1.000  C
  C562     1.0000 0.00000  0.41660  0.75000  Biso   1.000  C
  C563     1.0000 0.00000  0.06500  0.75000  Biso   1.000  C
  C564     1.0000 0.00000  0.94780  0.75000  Biso   1.000  C
  C565     1.0000 0.00000  0.88470  0.75000  Biso   1.000  C
  C566     1.0000 0.00000  0.47890  0.75000  Biso   1.000  C
  C567     1.0000 0.00000  0.59580  0.75000  Biso   1.000  C
  C568     1.0000 0.00000  0.65790  0.75000  Biso   1.000  C
  C569     1.0000 0.50000  0.62670  0.75000  Biso   1.000  C
  C570     1.0000 0.50000  0.91660  0.75000  Biso   1.000  C
  C571     1.0000 0.50000  0.56500  0.75000  Biso   1.000  C
  C572     1.0000 0.50000  0.44780  0.75000  Biso   1.000  C
  C573     1.0000 0.50000  0.38470  0.75000  Biso   1.000  C
  C574     1.0000 0.50000  0.97890  0.75000  Biso   1.000  C
  C575     1.0000 0.50000  0.09580  0.75000  Biso   1.000  C
  C576     1.0000 0.50000  0.15790  0.75000  Biso   1.000  C
  Cu9      1.0000 0.50000  0.22680  0.25000  Biso   1.000  Cu
  Cu10     1.0000 0.00000  0.72680  0.25000  Biso   1.000  Cu
  Cu11     1.0000 0.50000  0.77320  0.75000  Biso   1.000  Cu
  Cu12     1.0000 0.00000  0.27320  0.75000  Biso   1.000  Cu
