data_image0
_cell_length_a       15.8642
_cell_length_b       15.8642
_cell_length_c       42.9758
_cell_angle_alpha    90
_cell_angle_beta     90
_cell_angle_gamma    90

_symmetry_space_group_name_H-M    "P 1"
_symmetry_int_tables_number       1

loop_
  _symmetry_equiv_pos_as_xyz
  'x, y, z'

loop_
  _atom_site_label
  _atom_site_occupancy
  _atom_site_fract_x
  _atom_site_fract_y
  _atom_site_fract_z
  _atom_site_thermal_displace_type
  _atom_site_B_iso_or_equiv
  _atom_site_type_symbol
  Cd1      1.0000 0.08234  0.78153  0.78138  Biso   1.000  Cd
  O1       1.0000 0.23170  0.39210  0.69186  Biso   1.000  O
  O2       1.0000 0.22890  0.37200  0.62515  Biso   1.000  O
  H1       1.0000 0.25770  0.37550  0.64150  Biso   1.000  H
  O3       1.0000 0.06840  0.28290  0.62139  Biso   1.000  O
  O4       1.0000 0.06930  0.33140  0.68311  Biso   1.000  O
  H2       1.0000 0.05340  0.30200  0.66800  Biso   1.000  H
  O5       1.0000 0.11830  0.75850  0.73113  Biso   1.000  O
  O6       1.0000 0.22910  0.78680  0.70201  Biso   1.000  O
  O7       1.0000 0.76890  0.52090  0.57791  Biso   1.000  O
  O8       1.0000 0.85740  0.53210  0.53840  Biso   1.000  O
  N1       1.0000 0.05860  0.92150  0.79290  Biso   1.000  N
  N2       1.0000 0.95210  0.80060  0.76140  Biso   1.000  N
  C1       1.0000 0.27180  0.51600  0.62355  Biso   1.000  C
  C2       1.0000 0.31820  0.51030  0.65260  Biso   1.000  C
  H3       1.0000 0.36810  0.54770  0.65190  Biso   1.000  H
  H4       1.0000 0.33790  0.45180  0.65590  Biso   1.000  H
  C3       1.0000 0.26020  0.53690  0.67933  Biso   1.000  C
  C4       1.0000 0.24920  0.61990  0.68559  Biso   1.000  C
  H5       1.0000 0.28220  0.66070  0.67490  Biso   1.000  H
  C5       1.0000 0.19010  0.64600  0.70748  Biso   1.000  C
  C6       1.0000 0.14200  0.58570  0.72279  Biso   1.000  C
  H6       1.0000 0.09930  0.60300  0.73690  Biso   1.000  H
  C7       1.0000 0.15540  0.50200  0.71772  Biso   1.000  C
  C8       1.0000 0.09950  0.43750  0.73458  Biso   1.000  C
  H7       1.0000 0.12820  0.38210  0.73460  Biso   1.000  H
  H8       1.0000 0.09220  0.45530  0.75650  Biso   1.000  H
  C9       1.0000 0.01250  0.42760  0.71960  Biso   1.000  C
  C10      1.0000 0.94440  0.47330  0.73062  Biso   1.000  C
  H9       1.0000 0.95120  0.51080  0.74770  Biso   1.000  H
  C11      1.0000 0.86670  0.46390  0.71670  Biso   1.000  C
  H10      1.0000 0.81990  0.49510  0.72430  Biso   1.000  H
  C12      1.0000 0.85620  0.41120  0.69245  Biso   1.000  C
  H11      1.0000 0.80160  0.40400  0.68370  Biso   1.000  H
  C13      1.0000 0.92390  0.36700  0.67992  Biso   1.000  C
  C14      1.0000 0.91050  0.30940  0.65299  Biso   1.000  C
  H12      1.0000 0.85050  0.29260  0.65190  Biso   1.000  H
  H13      1.0000 0.94490  0.25790  0.65560  Biso   1.000  H
  C15      1.0000 0.93600  0.35490  0.62252  Biso   1.000  C
  C16      1.0000 0.88180  0.40960  0.60862  Biso   1.000  C
  H14      1.0000 0.82770  0.41810  0.61750  Biso   1.000  H
  C17      1.0000 0.90310  0.45370  0.58166  Biso   1.000  C
  C18      1.0000 0.98300  0.44480  0.57034  Biso   1.000  C
  H15      1.0000 0.00090  0.47840  0.55330  Biso   1.000  H
  C19      1.0000 0.03920  0.38660  0.58356  Biso   1.000  C
  C20      1.0000 0.13080  0.38660  0.57113  Biso   1.000  C
  H16      1.0000 0.15810  0.33260  0.57680  Biso   1.000  H
  H17      1.0000 0.12950  0.39020  0.54810  Biso   1.000  H
  C21      1.0000 0.18090  0.45530  0.58314  Biso   1.000  C
  C22      1.0000 0.18150  0.53600  0.56910  Biso   1.000  C
  H18      1.0000 0.15290  0.54290  0.54990  Biso   1.000  H
  C23      1.0000 0.22140  0.60520  0.58180  Biso   1.000  C
  H19      1.0000 0.21690  0.65910  0.57230  Biso   1.000  H
  C24      1.0000 0.26760  0.59410  0.60850  Biso   1.000  C
  H20      1.0000 0.29760  0.64060  0.61700  Biso   1.000  H
  C25      1.0000 0.22640  0.44840  0.61096  Biso   1.000  C
  C26      1.0000 0.01540  0.34370  0.60845  Biso   1.000  C
  C27      1.0000 0.00290  0.37590  0.69441  Biso   1.000  C
  C28      1.0000 0.21630  0.47820  0.69679  Biso   1.000  C
  C29      1.0000 0.17670  0.73710  0.71425  Biso   1.000  C
  C30      1.0000 0.84020  0.50670  0.56547  Biso   1.000  C
  C31      1.0000 0.06570  0.20370  0.60540  Biso   1.000  C
  H21      1.0000 0.06930  0.21170  0.58260  Biso   1.000  H
  H22      1.0000 0.01320  0.17270  0.61040  Biso   1.000  H
  C32      1.0000 0.14780  0.15390  0.61850  Biso   1.000  C
  H23      1.0000 0.16190  0.10410  0.60560  Biso   1.000  H
  H24      1.0000 0.19760  0.19120  0.62020  Biso   1.000  H
  C33      1.0000 0.11550  0.13040  0.64850  Biso   1.000  C
  H25      1.0000 0.14910  0.15740  0.66480  Biso   1.000  H
  H26      1.0000 0.11860  0.06900  0.65090  Biso   1.000  H
  H27      1.0000 0.05670  0.14870  0.65030  Biso   1.000  H
  C34      1.0000 0.30140  0.36220  0.71002  Biso   1.000  C
  H28      1.0000 0.28600  0.36090  0.73230  Biso   1.000  H
  H29      1.0000 0.35040  0.40020  0.70750  Biso   1.000  H
  C35      1.0000 0.32330  0.27580  0.69913  Biso   1.000  C
  H30      1.0000 0.33850  0.27740  0.67680  Biso   1.000  H
  H31      1.0000 0.27400  0.23810  0.70160  Biso   1.000  H
  C36      1.0000 0.39700  0.24220  0.71800  Biso   1.000  C
  H32      1.0000 0.44890  0.27090  0.71160  Biso   1.000  H
  H33      1.0000 0.40290  0.18150  0.71440  Biso   1.000  H
  H34      1.0000 0.38690  0.25250  0.74020  Biso   1.000  H
  C37      1.0000 0.08860  0.97710  0.80650  Biso   1.000  C
  H35      1.0000 0.14330  0.96480  0.81420  Biso   1.000  H
  C38      1.0000 0.06080  0.06020  0.81400  Biso   1.000  C
  H36      1.0000 0.09460  0.10010  0.82470  Biso   1.000  H
  C39      1.0000 0.97810  0.07700  0.80380  Biso   1.000  C
  H37      1.0000 0.95430  0.13080  0.80790  Biso   1.000  H
  C40      1.0000 0.93330  0.02110  0.78890  Biso   1.000  C
  C41      1.0000 0.96350  0.93930  0.78280  Biso   1.000  C
  C42      1.0000 0.91550  0.87890  0.76580  Biso   1.000  C
  C43      1.0000 0.90520  0.74130  0.74570  Biso   1.000  C
  H38      1.0000 0.92770  0.68630  0.74310  Biso   1.000  H
  C44      1.0000 0.82790  0.75870  0.73380  Biso   1.000  C
  H39      1.0000 0.79920  0.71890  0.72120  Biso   1.000  H
  C45      1.0000 0.79140  0.83730  0.74070  Biso   1.000  C
  H40      1.0000 0.73460  0.84760  0.73470  Biso   1.000  H
  C46      1.0000 0.83440  0.89840  0.75560  Biso   1.000  C
  C47      1.0000 0.80120  0.98030  0.76250  Biso   1.000  C
  H41      1.0000 0.74550  0.99360  0.75600  Biso   1.000  H
  C48      1.0000 0.84760  0.04060  0.77820  Biso   1.000  C
  H42      1.0000 0.82400  0.09460  0.78210  Biso   1.000  H
  N3       1.0000 0.94730  0.82460  0.76120  Biso   1.000  N
  N4       1.0000 0.04210  0.92230  0.79080  Biso   1.000  N
  C49      1.0000 0.11270  0.97100  0.80840  Biso   1.000  C
  H43      1.0000 0.16560  0.94550  0.81270  Biso   1.000  H
  C50      1.0000 0.09620  0.04940  0.81710  Biso   1.000  C
  H44      1.0000 0.13790  0.08250  0.82720  Biso   1.000  H
  C51      1.0000 0.01440  0.08310  0.81100  Biso   1.000  C
  H45      1.0000 0.00040  0.13740  0.81880  Biso   1.000  H
  C52      1.0000 0.95680  0.04010  0.79460  Biso   1.000  C
  C53      1.0000 0.87430  0.06580  0.78700  Biso   1.000  C
  H46      1.0000 0.85620  0.12070  0.79290  Biso   1.000  H
  C54      1.0000 0.81960  0.01460  0.77150  Biso   1.000  C
  H47      1.0000 0.76460  0.03480  0.76690  Biso   1.000  H
  C55      1.0000 0.84230  0.93180  0.76220  Biso   1.000  C
  C56      1.0000 0.79390  0.87780  0.74630  Biso   1.000  C
  H48      1.0000 0.73890  0.89640  0.74080  Biso   1.000  H
  C57      1.0000 0.81660  0.79710  0.73710  Biso   1.000  C
  H49      1.0000 0.77880  0.76030  0.72660  Biso   1.000  H
  C58      1.0000 0.90010  0.77390  0.74460  Biso   1.000  C
  H50      1.0000 0.92220  0.72160  0.73760  Biso   1.000  H
  C59      1.0000 0.92690  0.90420  0.77100  Biso   1.000  C
  C60      1.0000 0.98120  0.95530  0.78590  Biso   1.000  C
  Cd2      1.0000 0.91766  0.21847  0.28138  Biso   1.000  Cd
  O9       1.0000 0.76830  0.60790  0.19186  Biso   1.000  O
  O10      1.0000 0.77110  0.62800  0.12515  Biso   1.000  O
  H51      1.0000 0.74230  0.62450  0.14150  Biso   1.000  H
  O11      1.0000 0.93160  0.71710  0.12139  Biso   1.000  O
  O12      1.0000 0.93070  0.66860  0.18311  Biso   1.000  O
  H52      1.0000 0.94660  0.69800  0.16800  Biso   1.000  H
  O13      1.0000 0.88170  0.24150  0.23113  Biso   1.000  O
  O14      1.0000 0.77090  0.21320  0.20201  Biso   1.000  O
  O15      1.0000 0.23110  0.47910  0.07791  Biso   1.000  O
  O16      1.0000 0.14260  0.46790  0.03840  Biso   1.000  O
  N5       1.0000 0.94140  0.07850  0.29290  Biso   1.000  N
  N6       1.0000 0.04790  0.19940  0.26140  Biso   1.000  N
  C61      1.0000 0.72820  0.48400  0.12355  Biso   1.000  C
  C62      1.0000 0.68180  0.48970  0.15260  Biso   1.000  C
  H53      1.0000 0.63190  0.45230  0.15190  Biso   1.000  H
  H54      1.0000 0.66210  0.54820  0.15590  Biso   1.000  H
  C63      1.0000 0.73980  0.46310  0.17933  Biso   1.000  C
  C64      1.0000 0.75080  0.38010  0.18559  Biso   1.000  C
  H55      1.0000 0.71780  0.33930  0.17490  Biso   1.000  H
  C65      1.0000 0.80990  0.35400  0.20748  Biso   1.000  C
  C66      1.0000 0.85800  0.41430  0.22279  Biso   1.000  C
  H56      1.0000 0.90070  0.39700  0.23690  Biso   1.000  H
  C67      1.0000 0.84460  0.49800  0.21772  Biso   1.000  C
  C68      1.0000 0.90050  0.56250  0.23458  Biso   1.000  C
  H57      1.0000 0.87180  0.61790  0.23460  Biso   1.000  H
  H58      1.0000 0.90780  0.54470  0.25650  Biso   1.000  H
  C69      1.0000 0.98750  0.57240  0.21960  Biso   1.000  C
  C70      1.0000 0.05560  0.52670  0.23062  Biso   1.000  C
  H59      1.0000 0.04880  0.48920  0.24770  Biso   1.000  H
  C71      1.0000 0.13330  0.53610  0.21670  Biso   1.000  C
  H60      1.0000 0.18010  0.50490  0.22430  Biso   1.000  H
  C72      1.0000 0.14380  0.58880  0.19245  Biso   1.000  C
  H61      1.0000 0.19840  0.59600  0.18370  Biso   1.000  H
  C73      1.0000 0.07610  0.63300  0.17992  Biso   1.000  C
  C74      1.0000 0.08950  0.69060  0.15299  Biso   1.000  C
  H62      1.0000 0.14950  0.70740  0.15190  Biso   1.000  H
  H63      1.0000 0.05510  0.74210  0.15560  Biso   1.000  H
  C75      1.0000 0.06400  0.64510  0.12252  Biso   1.000  C
  C76      1.0000 0.11820  0.59040  0.10862  Biso   1.000  C
  H64      1.0000 0.17230  0.58190  0.11750  Biso   1.000  H
  C77      1.0000 0.09690  0.54630  0.08166  Biso   1.000  C
  C78      1.0000 0.01700  0.55520  0.07034  Biso   1.000  C
  H65      1.0000 0.99910  0.52160  0.05330  Biso   1.000  H
  C79      1.0000 0.96080  0.61340  0.08356  Biso   1.000  C
  C80      1.0000 0.86920  0.61340  0.07113  Biso   1.000  C
  H66      1.0000 0.84190  0.66740  0.07680  Biso   1.000  H
  H67      1.0000 0.87050  0.60980  0.04810  Biso   1.000  H
  C81      1.0000 0.81910  0.54470  0.08314  Biso   1.000  C
  C82      1.0000 0.81850  0.46400  0.06910  Biso   1.000  C
  H68      1.0000 0.84710  0.45710  0.04990  Biso   1.000  H
  C83      1.0000 0.77860  0.39480  0.08180  Biso   1.000  C
  H69      1.0000 0.78310  0.34090  0.07230  Biso   1.000  H
  C84      1.0000 0.73240  0.40590  0.10850  Biso   1.000  C
  H70      1.0000 0.70240  0.35940  0.11700  Biso   1.000  H
  C85      1.0000 0.77360  0.55160  0.11096  Biso   1.000  C
  C86      1.0000 0.98460  0.65630  0.10845  Biso   1.000  C
  C87      1.0000 0.99710  0.62410  0.19441  Biso   1.000  C
  C88      1.0000 0.78370  0.52180  0.19679  Biso   1.000  C
  C89      1.0000 0.82330  0.26290  0.21425  Biso   1.000  C
  C90      1.0000 0.15980  0.49330  0.06547  Biso   1.000  C
  C91      1.0000 0.93430  0.79630  0.10540  Biso   1.000  C
  H71      1.0000 0.93070  0.78830  0.08260  Biso   1.000  H
  H72      1.0000 0.98680  0.82730  0.11040  Biso   1.000  H
  C92      1.0000 0.85220  0.84610  0.11850  Biso   1.000  C
  H73      1.0000 0.83810  0.89590  0.10560  Biso   1.000  H
  H74      1.0000 0.80240  0.80880  0.12020  Biso   1.000  H
  C93      1.0000 0.88450  0.86960  0.14850  Biso   1.000  C
  H75      1.0000 0.85090  0.84260  0.16480  Biso   1.000  H
  H76      1.0000 0.88140  0.93100  0.15090  Biso   1.000  H
  H77      1.0000 0.94330  0.85130  0.15030  Biso   1.000  H
  C94      1.0000 0.69860  0.63780  0.21002  Biso   1.000  C
  H78      1.0000 0.71400  0.63910  0.23230  Biso   1.000  H
  H79      1.0000 0.64960  0.59980  0.20750  Biso   1.000  H
  C95      1.0000 0.67670  0.72420  0.19913  Biso   1.000  C
  H80      1.0000 0.66150  0.72260  0.17680  Biso   1.000  H
  H81      1.0000 0.72600  0.76190  0.20160  Biso   1.000  H
  C96      1.0000 0.60300  0.75780  0.21800  Biso   1.000  C
  H82      1.0000 0.55110  0.72910  0.21160  Biso   1.000  H
  H83      1.0000 0.59710  0.81850  0.21440  Biso   1.000  H
  H84      1.0000 0.61310  0.74750  0.24020  Biso   1.000  H
  C97      1.0000 0.91140  0.02290  0.30650  Biso   1.000  C
  H85      1.0000 0.85670  0.03520  0.31420  Biso   1.000  H
  C98      1.0000 0.93920  0.93980  0.31400  Biso   1.000  C
  H86      1.0000 0.90540  0.89990  0.32470  Biso   1.000  H
  C99      1.0000 0.02190  0.92300  0.30380  Biso   1.000  C
  H87      1.0000 0.04570  0.86920  0.30790  Biso   1.000  H
  C100     1.0000 0.06670  0.97890  0.28890  Biso   1.000  C
  C101     1.0000 0.03650  0.06070  0.28280  Biso   1.000  C
  C102     1.0000 0.08450  0.12110  0.26580  Biso   1.000  C
  C103     1.0000 0.09480  0.25870  0.24570  Biso   1.000  C
  H88      1.0000 0.07230  0.31370  0.24310  Biso   1.000  H
  C104     1.0000 0.17210  0.24130  0.23380  Biso   1.000  C
  H89      1.0000 0.20080  0.28110  0.22120  Biso   1.000  H
  C105     1.0000 0.20860  0.16270  0.24070  Biso   1.000  C
  H90      1.0000 0.26540  0.15240  0.23470  Biso   1.000  H
  C106     1.0000 0.16560  0.10160  0.25560  Biso   1.000  C
  C107     1.0000 0.19880  0.01970  0.26250  Biso   1.000  C
  H91      1.0000 0.25450  0.00640  0.25600  Biso   1.000  H
  C108     1.0000 0.15240  0.95940  0.27820  Biso   1.000  C
  H92      1.0000 0.17600  0.90540  0.28210  Biso   1.000  H
  N7       1.0000 0.05270  0.17540  0.26120  Biso   1.000  N
  N8       1.0000 0.95790  0.07770  0.29080  Biso   1.000  N
  C109     1.0000 0.88730  0.02900  0.30840  Biso   1.000  C
  H93      1.0000 0.83440  0.05450  0.31270  Biso   1.000  H
  C110     1.0000 0.90380  0.95060  0.31710  Biso   1.000  C
  H94      1.0000 0.86210  0.91750  0.32720  Biso   1.000  H
  C111     1.0000 0.98560  0.91690  0.31100  Biso   1.000  C
  H95      1.0000 0.99960  0.86260  0.31880  Biso   1.000  H
  C112     1.0000 0.04320  0.95990  0.29460  Biso   1.000  C
  C113     1.0000 0.12570  0.93420  0.28700  Biso   1.000  C
  H96      1.0000 0.14380  0.87930  0.29290  Biso   1.000  H
  C114     1.0000 0.18040  0.98540  0.27150  Biso   1.000  C
  H97      1.0000 0.23540  0.96520  0.26690  Biso   1.000  H
  C115     1.0000 0.15770  0.06820  0.26220  Biso   1.000  C
  C116     1.0000 0.20610  0.12220  0.24630  Biso   1.000  C
  H98      1.0000 0.26110  0.10360  0.24080  Biso   1.000  H
  C117     1.0000 0.18340  0.20290  0.23710  Biso   1.000  C
  H99      1.0000 0.22120  0.23970  0.22660  Biso   1.000  H
  C118     1.0000 0.09990  0.22610  0.24460  Biso   1.000  C
  H100     1.0000 0.07780  0.27840  0.23760  Biso   1.000  H
  C119     1.0000 0.07310  0.09580  0.27100  Biso   1.000  C
  C120     1.0000 0.01880  0.04470  0.28590  Biso   1.000  C
  Cd3      1.0000 0.71847  0.58234  0.53138  Biso   1.000  Cd
  O17      1.0000 0.10790  0.73170  0.44186  Biso   1.000  O
  O18      1.0000 0.12800  0.72890  0.37515  Biso   1.000  O
  H101     1.0000 0.12450  0.75770  0.39150  Biso   1.000  H
  O19      1.0000 0.21710  0.56840  0.37139  Biso   1.000  O
  O20      1.0000 0.16860  0.56930  0.43311  Biso   1.000  O
  H102     1.0000 0.19800  0.55340  0.41800  Biso   1.000  H
  O21      1.0000 0.74150  0.61830  0.48113  Biso   1.000  O
  O22      1.0000 0.71320  0.72910  0.45201  Biso   1.000  O
  O23      1.0000 0.97910  0.26890  0.32791  Biso   1.000  O
  O24      1.0000 0.96790  0.35740  0.28840  Biso   1.000  O
  N9       1.0000 0.57850  0.55860  0.54290  Biso   1.000  N
  N10      1.0000 0.69940  0.45210  0.51140  Biso   1.000  N
  C121     1.0000 0.98400  0.77180  0.37355  Biso   1.000  C
  C122     1.0000 0.98970  0.81820  0.40260  Biso   1.000  C
  H103     1.0000 0.95230  0.86810  0.40190  Biso   1.000  H
  H104     1.0000 0.04820  0.83790  0.40590  Biso   1.000  H
  C123     1.0000 0.96310  0.76020  0.42933  Biso   1.000  C
  C124     1.0000 0.88010  0.74920  0.43559  Biso   1.000  C
  H105     1.0000 0.83930  0.78220  0.42490  Biso   1.000  H
  C125     1.0000 0.85400  0.69010  0.45748  Biso   1.000  C
  C126     1.0000 0.91430  0.64200  0.47279  Biso   1.000  C
  H106     1.0000 0.89700  0.59930  0.48690  Biso   1.000  H
  C127     1.0000 0.99800  0.65540  0.46772  Biso   1.000  C
  C128     1.0000 0.06250  0.59950  0.48458  Biso   1.000  C
  H107     1.0000 0.11790  0.62820  0.48460  Biso   1.000  H
  H108     1.0000 0.04470  0.59220  0.50650  Biso   1.000  H
  C129     1.0000 0.07240  0.51250  0.46960  Biso   1.000  C
  C130     1.0000 0.02670  0.44440  0.48062  Biso   1.000  C
  H109     1.0000 0.98920  0.45120  0.49770  Biso   1.000  H
  C131     1.0000 0.03610  0.36670  0.46670  Biso   1.000  C
  H110     1.0000 0.00490  0.31990  0.47430  Biso   1.000  H
  C132     1.0000 0.08880  0.35620  0.44245  Biso   1.000  C
  H111     1.0000 0.09600  0.30160  0.43370  Biso   1.000  H
  C133     1.0000 0.13300  0.42390  0.42992  Biso   1.000  C
  C134     1.0000 0.19060  0.41050  0.40299  Biso   1.000  C
  H112     1.0000 0.20740  0.35050  0.40190  Biso   1.000  H
  H113     1.0000 0.24210  0.44490  0.40560  Biso   1.000  H
  C135     1.0000 0.14510  0.43600  0.37252  Biso   1.000  C
  C136     1.0000 0.09040  0.38180  0.35862  Biso   1.000  C
  H114     1.0000 0.08190  0.32770  0.36750  Biso   1.000  H
  C137     1.0000 0.04630  0.40310  0.33166  Biso   1.000  C
  C138     1.0000 0.05520  0.48300  0.32034  Biso   1.000  C
  H115     1.0000 0.02160  0.50090  0.30330  Biso   1.000  H
  C139     1.0000 0.11340  0.53920  0.33356  Biso   1.000  C
  C140     1.0000 0.11340  0.63080  0.32113  Biso   1.000  C
  H116     1.0000 0.16740  0.65810  0.32680  Biso   1.000  H
  H117     1.0000 0.10980  0.62950  0.29810  Biso   1.000  H
  C141     1.0000 0.04470  0.68090  0.33314  Biso   1.000  C
  C142     1.0000 0.96400  0.68150  0.31910  Biso   1.000  C
  H118     1.0000 0.95710  0.65290  0.29990  Biso   1.000  H
  C143     1.0000 0.89480  0.72140  0.33180  Biso   1.000  C
  H119     1.0000 0.84090  0.71690  0.32230  Biso   1.000  H
  C144     1.0000 0.90590  0.76760  0.35850  Biso   1.000  C
  H120     1.0000 0.85940  0.79760  0.36700  Biso   1.000  H
  C145     1.0000 0.05160  0.72640  0.36096  Biso   1.000  C
  C146     1.0000 0.15630  0.51540  0.35845  Biso   1.000  C
  C147     1.0000 0.12410  0.50290  0.44441  Biso   1.000  C
  C148     1.0000 0.02180  0.71630  0.44679  Biso   1.000  C
  C149     1.0000 0.76290  0.67670  0.46425  Biso   1.000  C
  C150     1.0000 0.99330  0.34020  0.31547  Biso   1.000  C
  C151     1.0000 0.29630  0.56570  0.35540  Biso   1.000  C
  H121     1.0000 0.28830  0.56930  0.33260  Biso   1.000  H
  H122     1.0000 0.32730  0.51320  0.36040  Biso   1.000  H
  C152     1.0000 0.34610  0.64780  0.36850  Biso   1.000  C
  H123     1.0000 0.39590  0.66190  0.35560  Biso   1.000  H
  H124     1.0000 0.30880  0.69760  0.37020  Biso   1.000  H
  C153     1.0000 0.36960  0.61550  0.39850  Biso   1.000  C
  H125     1.0000 0.34260  0.64910  0.41480  Biso   1.000  H
  H126     1.0000 0.43100  0.61860  0.40090  Biso   1.000  H
  H127     1.0000 0.35130  0.55670  0.40030  Biso   1.000  H
  C154     1.0000 0.13780  0.80140  0.46002  Biso   1.000  C
  H128     1.0000 0.13910  0.78600  0.48230  Biso   1.000  H
  H129     1.0000 0.09980  0.85040  0.45750  Biso   1.000  H
  C155     1.0000 0.22420  0.82330  0.44913  Biso   1.000  C
  H130     1.0000 0.22260  0.83850  0.42680  Biso   1.000  H
  H131     1.0000 0.26190  0.77400  0.45160  Biso   1.000  H
  C156     1.0000 0.25780  0.89700  0.46800  Biso   1.000  C
  H132     1.0000 0.22910  0.94890  0.46160  Biso   1.000  H
  H133     1.0000 0.31850  0.90290  0.46440  Biso   1.000  H
  H134     1.0000 0.24750  0.88690  0.49020  Biso   1.000  H
  C157     1.0000 0.52290  0.58860  0.55650  Biso   1.000  C
  H135     1.0000 0.53520  0.64330  0.56420  Biso   1.000  H
  C158     1.0000 0.43980  0.56080  0.56400  Biso   1.000  C
  H136     1.0000 0.39990  0.59460  0.57470  Biso   1.000  H
  C159     1.0000 0.42300  0.47810  0.55380  Biso   1.000  C
  H137     1.0000 0.36920  0.45430  0.55790  Biso   1.000  H
  C160     1.0000 0.47890  0.43330  0.53890  Biso   1.000  C
  C161     1.0000 0.56070  0.46350  0.53280  Biso   1.000  C
  C162     1.0000 0.62110  0.41550  0.51580  Biso   1.000  C
  C163     1.0000 0.75870  0.40520  0.49570  Biso   1.000  C
  H138     1.0000 0.81370  0.42770  0.49310  Biso   1.000  H
  C164     1.0000 0.74130  0.32790  0.48380  Biso   1.000  C
  H139     1.0000 0.78110  0.29920  0.47120  Biso   1.000  H
  C165     1.0000 0.66270  0.29140  0.49070  Biso   1.000  C
  H140     1.0000 0.65240  0.23460  0.48470  Biso   1.000  H
  C166     1.0000 0.60160  0.33440  0.50560  Biso   1.000  C
  C167     1.0000 0.51970  0.30120  0.51250  Biso   1.000  C
  H141     1.0000 0.50640  0.24550  0.50600  Biso   1.000  H
  C168     1.0000 0.45940  0.34760  0.52820  Biso   1.000  C
  H142     1.0000 0.40540  0.32400  0.53210  Biso   1.000  H
  N11      1.0000 0.67540  0.44730  0.51120  Biso   1.000  N
  N12      1.0000 0.57770  0.54210  0.54080  Biso   1.000  N
  C169     1.0000 0.52900  0.61270  0.55840  Biso   1.000  C
  H143     1.0000 0.55450  0.66560  0.56270  Biso   1.000  H
  C170     1.0000 0.45060  0.59620  0.56710  Biso   1.000  C
  H144     1.0000 0.41750  0.63790  0.57720  Biso   1.000  H
  C171     1.0000 0.41690  0.51440  0.56100  Biso   1.000  C
  H145     1.0000 0.36260  0.50040  0.56880  Biso   1.000  H
  C172     1.0000 0.45990  0.45680  0.54460  Biso   1.000  C
  C173     1.0000 0.43420  0.37430  0.53700  Biso   1.000  C
  H146     1.0000 0.37930  0.35620  0.54290  Biso   1.000  H
  C174     1.0000 0.48540  0.31960  0.52150  Biso   1.000  C
  H147     1.0000 0.46520  0.26460  0.51690  Biso   1.000  H
  C175     1.0000 0.56820  0.34230  0.51220  Biso   1.000  C
  C176     1.0000 0.62220  0.29390  0.49630  Biso   1.000  C
  H148     1.0000 0.60360  0.23890  0.49080  Biso   1.000  H
  C177     1.0000 0.70290  0.31660  0.48710  Biso   1.000  C
  H149     1.0000 0.73970  0.27880  0.47660  Biso   1.000  H
  C178     1.0000 0.72610  0.40010  0.49460  Biso   1.000  C
  H150     1.0000 0.77840  0.42220  0.48760  Biso   1.000  H
  C179     1.0000 0.59580  0.42690  0.52100  Biso   1.000  C
  C180     1.0000 0.54470  0.48120  0.53590  Biso   1.000  C
  Cd4      1.0000 0.28153  0.41766  0.03138  Biso   1.000  Cd
  O25      1.0000 0.89210  0.26830  0.94186  Biso   1.000  O
  O26      1.0000 0.87200  0.27110  0.87515  Biso   1.000  O
  H151     1.0000 0.87550  0.24230  0.89150  Biso   1.000  H
  O27      1.0000 0.78290  0.43160  0.87139  Biso   1.000  O
  O28      1.0000 0.83140  0.43070  0.93311  Biso   1.000  O
  H152     1.0000 0.80200  0.44660  0.91800  Biso   1.000  H
  O29      1.0000 0.25850  0.38170  0.98113  Biso   1.000  O
  O30      1.0000 0.28680  0.27090  0.95201  Biso   1.000  O
  O31      1.0000 0.02090  0.73110  0.82791  Biso   1.000  O
  O32      1.0000 0.03210  0.64260  0.78840  Biso   1.000  O
  N13      1.0000 0.42150  0.44140  0.04290  Biso   1.000  N
  N14      1.0000 0.30060  0.54790  0.01140  Biso   1.000  N
  C181     1.0000 0.01600  0.22820  0.87355  Biso   1.000  C
  C182     1.0000 0.01030  0.18180  0.90260  Biso   1.000  C
  H153     1.0000 0.04770  0.13190  0.90190  Biso   1.000  H
  H154     1.0000 0.95180  0.16210  0.90590  Biso   1.000  H
  C183     1.0000 0.03690  0.23980  0.92933  Biso   1.000  C
  C184     1.0000 0.11990  0.25080  0.93559  Biso   1.000  C
  H155     1.0000 0.16070  0.21780  0.92490  Biso   1.000  H
  C185     1.0000 0.14600  0.30990  0.95748  Biso   1.000  C
  C186     1.0000 0.08570  0.35800  0.97279  Biso   1.000  C
  H156     1.0000 0.10300  0.40070  0.98690  Biso   1.000  H
  C187     1.0000 0.00200  0.34460  0.96772  Biso   1.000  C
  C188     1.0000 0.93750  0.40050  0.98458  Biso   1.000  C
  H157     1.0000 0.88210  0.37180  0.98460  Biso   1.000  H
  H158     1.0000 0.95530  0.40780  0.00650  Biso   1.000  H
  C189     1.0000 0.92760  0.48750  0.96960  Biso   1.000  C
  C190     1.0000 0.97330  0.55560  0.98062  Biso   1.000  C
  H159     1.0000 0.01080  0.54880  0.99770  Biso   1.000  H
  C191     1.0000 0.96390  0.63330  0.96670  Biso   1.000  C
  H160     1.0000 0.99510  0.68010  0.97430  Biso   1.000  H
  C192     1.0000 0.91120  0.64380  0.94245  Biso   1.000  C
  H161     1.0000 0.90400  0.69840  0.93370  Biso   1.000  H
  C193     1.0000 0.86700  0.57610  0.92992  Biso   1.000  C
  C194     1.0000 0.80940  0.58950  0.90299  Biso   1.000  C
  H162     1.0000 0.79260  0.64950  0.90190  Biso   1.000  H
  H163     1.0000 0.75790  0.55510  0.90560  Biso   1.000  H
  C195     1.0000 0.85490  0.56400  0.87252  Biso   1.000  C
  C196     1.0000 0.90960  0.61820  0.85862  Biso   1.000  C
  H164     1.0000 0.91810  0.67230  0.86750  Biso   1.000  H
  C197     1.0000 0.95370  0.59690  0.83166  Biso   1.000  C
  C198     1.0000 0.94480  0.51700  0.82034  Biso   1.000  C
  H165     1.0000 0.97840  0.49910  0.80330  Biso   1.000  H
  C199     1.0000 0.88660  0.46080  0.83356  Biso   1.000  C
  C200     1.0000 0.88660  0.36920  0.82113  Biso   1.000  C
  H166     1.0000 0.83260  0.34190  0.82680  Biso   1.000  H
  H167     1.0000 0.89020  0.37050  0.79810  Biso   1.000  H
  C201     1.0000 0.95530  0.31910  0.83314  Biso   1.000  C
  C202     1.0000 0.03600  0.31850  0.81910  Biso   1.000  C
  H168     1.0000 0.04290  0.34710  0.79990  Biso   1.000  H
  C203     1.0000 0.10520  0.27860  0.83180  Biso   1.000  C
  H169     1.0000 0.15910  0.28310  0.82230  Biso   1.000  H
  C204     1.0000 0.09410  0.23240  0.85850  Biso   1.000  C
  H170     1.0000 0.14060  0.20240  0.86700  Biso   1.000  H
  C205     1.0000 0.94840  0.27360  0.86096  Biso   1.000  C
  C206     1.0000 0.84370  0.48460  0.85845  Biso   1.000  C
  C207     1.0000 0.87590  0.49710  0.94441  Biso   1.000  C
  C208     1.0000 0.97820  0.28370  0.94679  Biso   1.000  C
  C209     1.0000 0.23710  0.32330  0.96425  Biso   1.000  C
  C210     1.0000 0.00670  0.65980  0.81547  Biso   1.000  C
  C211     1.0000 0.70370  0.43430  0.85540  Biso   1.000  C
  H171     1.0000 0.71170  0.43070  0.83260  Biso   1.000  H
  H172     1.0000 0.67270  0.48680  0.86040  Biso   1.000  H
  C212     1.0000 0.65390  0.35220  0.86850  Biso   1.000  C
  H173     1.0000 0.60410  0.33810  0.85560  Biso   1.000  H
  H174     1.0000 0.69120  0.30240  0.87020  Biso   1.000  H
  C213     1.0000 0.63040  0.38450  0.89850  Biso   1.000  C
  H175     1.0000 0.65740  0.35090  0.91480  Biso   1.000  H
  H176     1.0000 0.56900  0.38140  0.90090  Biso   1.000  H
  H177     1.0000 0.64870  0.44330  0.90030  Biso   1.000  H
  C214     1.0000 0.86220  0.19860  0.96002  Biso   1.000  C
  H178     1.0000 0.86090  0.21400  0.98230  Biso   1.000  H
  H179     1.0000 0.90020  0.14960  0.95750  Biso   1.000  H
  C215     1.0000 0.77580  0.17670  0.94913  Biso   1.000  C
  H180     1.0000 0.77740  0.16150  0.92680  Biso   1.000  H
  H181     1.0000 0.73810  0.22600  0.95160  Biso   1.000  H
  C216     1.0000 0.74220  0.10300  0.96800  Biso   1.000  C
  H182     1.0000 0.77090  0.05110  0.96160  Biso   1.000  H
  H183     1.0000 0.68150  0.09710  0.96440  Biso   1.000  H
  H184     1.0000 0.75250  0.11310  0.99020  Biso   1.000  H
  C217     1.0000 0.47710  0.41140  0.05650  Biso   1.000  C
  H185     1.0000 0.46480  0.35670  0.06420  Biso   1.000  H
  C218     1.0000 0.56020  0.43920  0.06400  Biso   1.000  C
  H186     1.0000 0.60010  0.40540  0.07470  Biso   1.000  H
  C219     1.0000 0.57700  0.52190  0.05380  Biso   1.000  C
  H187     1.0000 0.63080  0.54570  0.05790  Biso   1.000  H
  C220     1.0000 0.52110  0.56670  0.03890  Biso   1.000  C
  C221     1.0000 0.43930  0.53650  0.03280  Biso   1.000  C
  C222     1.0000 0.37890  0.58450  0.01580  Biso   1.000  C
  C223     1.0000 0.24130  0.59480  0.99570  Biso   1.000  C
  H188     1.0000 0.18630  0.57230  0.99310  Biso   1.000  H
  C224     1.0000 0.25870  0.67210  0.98380  Biso   1.000  C
  H189     1.0000 0.21890  0.70080  0.97120  Biso   1.000  H
  C225     1.0000 0.33730  0.70860  0.99070  Biso   1.000  C
  H190     1.0000 0.34760  0.76540  0.98470  Biso   1.000  H
  C226     1.0000 0.39840  0.66560  0.00560  Biso   1.000  C
  C227     1.0000 0.48030  0.69880  0.01250  Biso   1.000  C
  H191     1.0000 0.49360  0.75450  0.00600  Biso   1.000  H
  C228     1.0000 0.54060  0.65240  0.02820  Biso   1.000  C
  H192     1.0000 0.59460  0.67600  0.03210  Biso   1.000  H
  N15      1.0000 0.32460  0.55270  0.01120  Biso   1.000  N
  N16      1.0000 0.42230  0.45790  0.04080  Biso   1.000  N
  C229     1.0000 0.47100  0.38730  0.05840  Biso   1.000  C
  H193     1.0000 0.44550  0.33440  0.06270  Biso   1.000  H
  C230     1.0000 0.54940  0.40380  0.06710  Biso   1.000  C
  H194     1.0000 0.58250  0.36210  0.07720  Biso   1.000  H
  C231     1.0000 0.58310  0.48560  0.06100  Biso   1.000  C
  H195     1.0000 0.63740  0.49960  0.06880  Biso   1.000  H
  C232     1.0000 0.54010  0.54320  0.04460  Biso   1.000  C
  C233     1.0000 0.56580  0.62570  0.03700  Biso   1.000  C
  H196     1.0000 0.62070  0.64380  0.04290  Biso   1.000  H
  C234     1.0000 0.51460  0.68040  0.02150  Biso   1.000  C
  H197     1.0000 0.53480  0.73540  0.01690  Biso   1.000  H
  C235     1.0000 0.43180  0.65770  0.01220  Biso   1.000  C
  C236     1.0000 0.37780  0.70610  0.99630  Biso   1.000  C
  H198     1.0000 0.39640  0.76110  0.99080  Biso   1.000  H
  C237     1.0000 0.29710  0.68340  0.98710  Biso   1.000  C
  H199     1.0000 0.26030  0.72120  0.97660  Biso   1.000  H
  C238     1.0000 0.27390  0.59990  0.99460  Biso   1.000  C
  H200     1.0000 0.22160  0.57780  0.98760  Biso   1.000  H
  C239     1.0000 0.40420  0.57310  0.02100  Biso   1.000  C
  C240     1.0000 0.45530  0.51880  0.03590  Biso   1.000  C
  Cd5      1.0000 0.41766  0.28153  0.96862  Biso   1.000  Cd
  O33      1.0000 0.26830  0.89210  0.05814  Biso   1.000  O
  O34      1.0000 0.27110  0.87200  0.12485  Biso   1.000  O
  H201     1.0000 0.24230  0.87550  0.10850  Biso   1.000  H
  O35      1.0000 0.43160  0.78290  0.12861  Biso   1.000  O
  O36      1.0000 0.43070  0.83140  0.06689  Biso   1.000  O
  H202     1.0000 0.44660  0.80200  0.08200  Biso   1.000  H
  O37      1.0000 0.38170  0.25850  0.01887  Biso   1.000  O
  O38      1.0000 0.27090  0.28680  0.04799  Biso   1.000  O
  O39      1.0000 0.73110  0.02090  0.17209  Biso   1.000  O
  O40      1.0000 0.64260  0.03210  0.21160  Biso   1.000  O
  N17      1.0000 0.44140  0.42150  0.95710  Biso   1.000  N
  N18      1.0000 0.54790  0.30060  0.98860  Biso   1.000  N
  C241     1.0000 0.22820  0.01600  0.12645  Biso   1.000  C
  C242     1.0000 0.18180  0.01030  0.09740  Biso   1.000  C
  H203     1.0000 0.13190  0.04770  0.09810  Biso   1.000  H
  H204     1.0000 0.16210  0.95180  0.09410  Biso   1.000  H
  C243     1.0000 0.23980  0.03690  0.07067  Biso   1.000  C
  C244     1.0000 0.25080  0.11990  0.06441  Biso   1.000  C
  H205     1.0000 0.21780  0.16070  0.07510  Biso   1.000  H
  C245     1.0000 0.30990  0.14600  0.04252  Biso   1.000  C
  C246     1.0000 0.35800  0.08570  0.02721  Biso   1.000  C
  H206     1.0000 0.40070  0.10300  0.01310  Biso   1.000  H
  C247     1.0000 0.34460  0.00200  0.03228  Biso   1.000  C
  C248     1.0000 0.40050  0.93750  0.01542  Biso   1.000  C
  H207     1.0000 0.37180  0.88210  0.01540  Biso   1.000  H
  H208     1.0000 0.40780  0.95530  0.99350  Biso   1.000  H
  C249     1.0000 0.48750  0.92760  0.03040  Biso   1.000  C
  C250     1.0000 0.55560  0.97330  0.01938  Biso   1.000  C
  H209     1.0000 0.54880  0.01080  0.00230  Biso   1.000  H
  C251     1.0000 0.63330  0.96390  0.03330  Biso   1.000  C
  H210     1.0000 0.68010  0.99510  0.02570  Biso   1.000  H
  C252     1.0000 0.64380  0.91120  0.05755  Biso   1.000  C
  H211     1.0000 0.69840  0.90400  0.06630  Biso   1.000  H
  C253     1.0000 0.57610  0.86700  0.07008  Biso   1.000  C
  C254     1.0000 0.58950  0.80940  0.09701  Biso   1.000  C
  H212     1.0000 0.64950  0.79260  0.09810  Biso   1.000  H
  H213     1.0000 0.55510  0.75790  0.09440  Biso   1.000  H
  C255     1.0000 0.56400  0.85490  0.12748  Biso   1.000  C
  C256     1.0000 0.61820  0.90960  0.14138  Biso   1.000  C
  H214     1.0000 0.67230  0.91810  0.13250  Biso   1.000  H
  C257     1.0000 0.59690  0.95370  0.16834  Biso   1.000  C
  C258     1.0000 0.51700  0.94480  0.17966  Biso   1.000  C
  H215     1.0000 0.49910  0.97840  0.19670  Biso   1.000  H
  C259     1.0000 0.46080  0.88660  0.16644  Biso   1.000  C
  C260     1.0000 0.36920  0.88660  0.17887  Biso   1.000  C
  H216     1.0000 0.34190  0.83260  0.17320  Biso   1.000  H
  H217     1.0000 0.37050  0.89020  0.20190  Biso   1.000  H
  C261     1.0000 0.31910  0.95530  0.16686  Biso   1.000  C
  C262     1.0000 0.31850  0.03600  0.18090  Biso   1.000  C
  H218     1.0000 0.34710  0.04290  0.20010  Biso   1.000  H
  C263     1.0000 0.27860  0.10520  0.16820  Biso   1.000  C
  H219     1.0000 0.28310  0.15910  0.17770  Biso   1.000  H
  C264     1.0000 0.23240  0.09410  0.14150  Biso   1.000  C
  H220     1.0000 0.20240  0.14060  0.13300  Biso   1.000  H
  C265     1.0000 0.27360  0.94840  0.13904  Biso   1.000  C
  C266     1.0000 0.48460  0.84370  0.14155  Biso   1.000  C
  C267     1.0000 0.49710  0.87590  0.05559  Biso   1.000  C
  C268     1.0000 0.28370  0.97820  0.05321  Biso   1.000  C
  C269     1.0000 0.32330  0.23710  0.03575  Biso   1.000  C
  C270     1.0000 0.65980  0.00670  0.18453  Biso   1.000  C
  C271     1.0000 0.43430  0.70370  0.14460  Biso   1.000  C
  H221     1.0000 0.43070  0.71170  0.16740  Biso   1.000  H
  H222     1.0000 0.48680  0.67270  0.13960  Biso   1.000  H
  C272     1.0000 0.35220  0.65390  0.13150  Biso   1.000  C
  H223     1.0000 0.33810  0.60410  0.14440  Biso   1.000  H
  H224     1.0000 0.30240  0.69120  0.12980  Biso   1.000  H
  C273     1.0000 0.38450  0.63040  0.10150  Biso   1.000  C
  H225     1.0000 0.35090  0.65740  0.08520  Biso   1.000  H
  H226     1.0000 0.38140  0.56900  0.09910  Biso   1.000  H
  H227     1.0000 0.44330  0.64870  0.09970  Biso   1.000  H
  C274     1.0000 0.19860  0.86220  0.03998  Biso   1.000  C
  H228     1.0000 0.21400  0.86090  0.01770  Biso   1.000  H
  H229     1.0000 0.14960  0.90020  0.04250  Biso   1.000  H
  C275     1.0000 0.17670  0.77580  0.05087  Biso   1.000  C
  H230     1.0000 0.16150  0.77740  0.07320  Biso   1.000  H
  H231     1.0000 0.22600  0.73810  0.04840  Biso   1.000  H
  C276     1.0000 0.10300  0.74220  0.03200  Biso   1.000  C
  H232     1.0000 0.05110  0.77090  0.03840  Biso   1.000  H
  H233     1.0000 0.09710  0.68150  0.03560  Biso   1.000  H
  H234     1.0000 0.11310  0.75250  0.00980  Biso   1.000  H
  C277     1.0000 0.41140  0.47710  0.94350  Biso   1.000  C
  H235     1.0000 0.35670  0.46480  0.93580  Biso   1.000  H
  C278     1.0000 0.43920  0.56020  0.93600  Biso   1.000  C
  H236     1.0000 0.40540  0.60010  0.92530  Biso   1.000  H
  C279     1.0000 0.52190  0.57700  0.94620  Biso   1.000  C
  H237     1.0000 0.54570  0.63080  0.94210  Biso   1.000  H
  C280     1.0000 0.56670  0.52110  0.96110  Biso   1.000  C
  C281     1.0000 0.53650  0.43930  0.96720  Biso   1.000  C
  C282     1.0000 0.58450  0.37890  0.98420  Biso   1.000  C
  C283     1.0000 0.59480  0.24130  0.00430  Biso   1.000  C
  H238     1.0000 0.57230  0.18630  0.00690  Biso   1.000  H
  C284     1.0000 0.67210  0.25870  0.01620  Biso   1.000  C
  H239     1.0000 0.70080  0.21890  0.02880  Biso   1.000  H
  C285     1.0000 0.70860  0.33730  0.00930  Biso   1.000  C
  H240     1.0000 0.76540  0.34760  0.01530  Biso   1.000  H
  C286     1.0000 0.66560  0.39840  0.99440  Biso   1.000  C
  C287     1.0000 0.69880  0.48030  0.98750  Biso   1.000  C
  H241     1.0000 0.75450  0.49360  0.99400  Biso   1.000  H
  C288     1.0000 0.65240  0.54060  0.97180  Biso   1.000  C
  H242     1.0000 0.67600  0.59460  0.96790  Biso   1.000  H
  N19      1.0000 0.55270  0.32460  0.98880  Biso   1.000  N
  N20      1.0000 0.45790  0.42230  0.95920  Biso   1.000  N
  C289     1.0000 0.38730  0.47100  0.94160  Biso   1.000  C
  H243     1.0000 0.33440  0.44550  0.93730  Biso   1.000  H
  C290     1.0000 0.40380  0.54940  0.93290  Biso   1.000  C
  H244     1.0000 0.36210  0.58250  0.92280  Biso   1.000  H
  C291     1.0000 0.48560  0.58310  0.93900  Biso   1.000  C
  H245     1.0000 0.49960  0.63740  0.93120  Biso   1.000  H
  C292     1.0000 0.54320  0.54010  0.95540  Biso   1.000  C
  C293     1.0000 0.62570  0.56580  0.96300  Biso   1.000  C
  H246     1.0000 0.64380  0.62070  0.95710  Biso   1.000  H
  C294     1.0000 0.68040  0.51460  0.97850  Biso   1.000  C
  H247     1.0000 0.73540  0.53480  0.98310  Biso   1.000  H
  C295     1.0000 0.65770  0.43180  0.98780  Biso   1.000  C
  C296     1.0000 0.70610  0.37780  0.00370  Biso   1.000  C
  H248     1.0000 0.76110  0.39640  0.00920  Biso   1.000  H
  C297     1.0000 0.68340  0.29710  0.01290  Biso   1.000  C
  H249     1.0000 0.72120  0.26030  0.02340  Biso   1.000  H
  C298     1.0000 0.59990  0.27390  0.00540  Biso   1.000  C
  H250     1.0000 0.57780  0.22160  0.01240  Biso   1.000  H
  C299     1.0000 0.57310  0.40420  0.97900  Biso   1.000  C
  C300     1.0000 0.51880  0.45530  0.96410  Biso   1.000  C
  Cd6      1.0000 0.58234  0.71847  0.46862  Biso   1.000  Cd
  O41      1.0000 0.73170  0.10790  0.55814  Biso   1.000  O
  O42      1.0000 0.72890  0.12800  0.62485  Biso   1.000  O
  H251     1.0000 0.75770  0.12450  0.60850  Biso   1.000  H
  O43      1.0000 0.56840  0.21710  0.62861  Biso   1.000  O
  O44      1.0000 0.56930  0.16860  0.56689  Biso   1.000  O
  H252     1.0000 0.55340  0.19800  0.58200  Biso   1.000  H
  O45      1.0000 0.61830  0.74150  0.51887  Biso   1.000  O
  O46      1.0000 0.72910  0.71320  0.54799  Biso   1.000  O
  O47      1.0000 0.26890  0.97910  0.67209  Biso   1.000  O
  O48      1.0000 0.35740  0.96790  0.71160  Biso   1.000  O
  N21      1.0000 0.55860  0.57850  0.45710  Biso   1.000  N
  N22      1.0000 0.45210  0.69940  0.48860  Biso   1.000  N
  C301     1.0000 0.77180  0.98400  0.62645  Biso   1.000  C
  C302     1.0000 0.81820  0.98970  0.59740  Biso   1.000  C
  H253     1.0000 0.86810  0.95230  0.59810  Biso   1.000  H
  H254     1.0000 0.83790  0.04820  0.59410  Biso   1.000  H
  C303     1.0000 0.76020  0.96310  0.57067  Biso   1.000  C
  C304     1.0000 0.74920  0.88010  0.56441  Biso   1.000  C
  H255     1.0000 0.78220  0.83930  0.57510  Biso   1.000  H
  C305     1.0000 0.69010  0.85400  0.54252  Biso   1.000  C
  C306     1.0000 0.64200  0.91430  0.52721  Biso   1.000  C
  H256     1.0000 0.59930  0.89700  0.51310  Biso   1.000  H
  C307     1.0000 0.65540  0.99800  0.53228  Biso   1.000  C
  C308     1.0000 0.59950  0.06250  0.51542  Biso   1.000  C
  H257     1.0000 0.62820  0.11790  0.51540  Biso   1.000  H
  H258     1.0000 0.59220  0.04470  0.49350  Biso   1.000  H
  C309     1.0000 0.51250  0.07240  0.53040  Biso   1.000  C
  C310     1.0000 0.44440  0.02670  0.51938  Biso   1.000  C
  H259     1.0000 0.45120  0.98920  0.50230  Biso   1.000  H
  C311     1.0000 0.36670  0.03610  0.53330  Biso   1.000  C
  H260     1.0000 0.31990  0.00490  0.52570  Biso   1.000  H
  C312     1.0000 0.35620  0.08880  0.55755  Biso   1.000  C
  H261     1.0000 0.30160  0.09600  0.56630  Biso   1.000  H
  C313     1.0000 0.42390  0.13300  0.57008  Biso   1.000  C
  C314     1.0000 0.41050  0.19060  0.59701  Biso   1.000  C
  H262     1.0000 0.35050  0.20740  0.59810  Biso   1.000  H
  H263     1.0000 0.44490  0.24210  0.59440  Biso   1.000  H
  C315     1.0000 0.43600  0.14510  0.62748  Biso   1.000  C
  C316     1.0000 0.38180  0.09040  0.64138  Biso   1.000  C
  H264     1.0000 0.32770  0.08190  0.63250  Biso   1.000  H
  C317     1.0000 0.40310  0.04630  0.66834  Biso   1.000  C
  C318     1.0000 0.48300  0.05520  0.67966  Biso   1.000  C
  H265     1.0000 0.50090  0.02160  0.69670  Biso   1.000  H
  C319     1.0000 0.53920  0.11340  0.66644  Biso   1.000  C
  C320     1.0000 0.63080  0.11340  0.67887  Biso   1.000  C
  H266     1.0000 0.65810  0.16740  0.67320  Biso   1.000  H
  H267     1.0000 0.62950  0.10980  0.70190  Biso   1.000  H
  C321     1.0000 0.68090  0.04470  0.66686  Biso   1.000  C
  C322     1.0000 0.68150  0.96400  0.68090  Biso   1.000  C
  H268     1.0000 0.65290  0.95710  0.70010  Biso   1.000  H
  C323     1.0000 0.72140  0.89480  0.66820  Biso   1.000  C
  H269     1.0000 0.71690  0.84090  0.67770  Biso   1.000  H
  C324     1.0000 0.76760  0.90590  0.64150  Biso   1.000  C
  H270     1.0000 0.79760  0.85940  0.63300  Biso   1.000  H
  C325     1.0000 0.72640  0.05160  0.63904  Biso   1.000  C
  C326     1.0000 0.51540  0.15630  0.64155  Biso   1.000  C
  C327     1.0000 0.50290  0.12410  0.55559  Biso   1.000  C
  C328     1.0000 0.71630  0.02180  0.55321  Biso   1.000  C
  C329     1.0000 0.67670  0.76290  0.53575  Biso   1.000  C
  C330     1.0000 0.34020  0.99330  0.68453  Biso   1.000  C
  C331     1.0000 0.56570  0.29630  0.64460  Biso   1.000  C
  H271     1.0000 0.56930  0.28830  0.66740  Biso   1.000  H
  H272     1.0000 0.51320  0.32730  0.63960  Biso   1.000  H
  C332     1.0000 0.64780  0.34610  0.63150  Biso   1.000  C
  H273     1.0000 0.66190  0.39590  0.64440  Biso   1.000  H
  H274     1.0000 0.69760  0.30880  0.62980  Biso   1.000  H
  C333     1.0000 0.61550  0.36960  0.60150  Biso   1.000  C
  H275     1.0000 0.64910  0.34260  0.58520  Biso   1.000  H
  H276     1.0000 0.61860  0.43100  0.59910  Biso   1.000  H
  H277     1.0000 0.55670  0.35130  0.59970  Biso   1.000  H
  C334     1.0000 0.80140  0.13780  0.53998  Biso   1.000  C
  H278     1.0000 0.78600  0.13910  0.51770  Biso   1.000  H
  H279     1.0000 0.85040  0.09980  0.54250  Biso   1.000  H
  C335     1.0000 0.82330  0.22420  0.55087  Biso   1.000  C
  H280     1.0000 0.83850  0.22260  0.57320  Biso   1.000  H
  H281     1.0000 0.77400  0.26190  0.54840  Biso   1.000  H
  C336     1.0000 0.89700  0.25780  0.53200  Biso   1.000  C
  H282     1.0000 0.94890  0.22910  0.53840  Biso   1.000  H
  H283     1.0000 0.90290  0.31850  0.53560  Biso   1.000  H
  H284     1.0000 0.88690  0.24750  0.50980  Biso   1.000  H
  C337     1.0000 0.58860  0.52290  0.44350  Biso   1.000  C
  H285     1.0000 0.64330  0.53520  0.43580  Biso   1.000  H
  C338     1.0000 0.56080  0.43980  0.43600  Biso   1.000  C
  H286     1.0000 0.59460  0.39990  0.42530  Biso   1.000  H
  C339     1.0000 0.47810  0.42300  0.44620  Biso   1.000  C
  H287     1.0000 0.45430  0.36920  0.44210  Biso   1.000  H
  C340     1.0000 0.43330  0.47890  0.46110  Biso   1.000  C
  C341     1.0000 0.46350  0.56070  0.46720  Biso   1.000  C
  C342     1.0000 0.41550  0.62110  0.48420  Biso   1.000  C
  C343     1.0000 0.40520  0.75870  0.50430  Biso   1.000  C
  H288     1.0000 0.42770  0.81370  0.50690  Biso   1.000  H
  C344     1.0000 0.32790  0.74130  0.51620  Biso   1.000  C
  H289     1.0000 0.29920  0.78110  0.52880  Biso   1.000  H
  C345     1.0000 0.29140  0.66270  0.50930  Biso   1.000  C
  H290     1.0000 0.23460  0.65240  0.51530  Biso   1.000  H
  C346     1.0000 0.33440  0.60160  0.49440  Biso   1.000  C
  C347     1.0000 0.30120  0.51970  0.48750  Biso   1.000  C
  H291     1.0000 0.24550  0.50640  0.49400  Biso   1.000  H
  C348     1.0000 0.34760  0.45940  0.47180  Biso   1.000  C
  H292     1.0000 0.32400  0.40540  0.46790  Biso   1.000  H
  N23      1.0000 0.44730  0.67540  0.48880  Biso   1.000  N
  N24      1.0000 0.54210  0.57770  0.45920  Biso   1.000  N
  C349     1.0000 0.61270  0.52900  0.44160  Biso   1.000  C
  H293     1.0000 0.66560  0.55450  0.43730  Biso   1.000  H
  C350     1.0000 0.59620  0.45060  0.43290  Biso   1.000  C
  H294     1.0000 0.63790  0.41750  0.42280  Biso   1.000  H
  C351     1.0000 0.51440  0.41690  0.43900  Biso   1.000  C
  H295     1.0000 0.50040  0.36260  0.43120  Biso   1.000  H
  C352     1.0000 0.45680  0.45990  0.45540  Biso   1.000  C
  C353     1.0000 0.37430  0.43420  0.46300  Biso   1.000  C
  H296     1.0000 0.35620  0.37930  0.45710  Biso   1.000  H
  C354     1.0000 0.31960  0.48540  0.47850  Biso   1.000  C
  H297     1.0000 0.26460  0.46520  0.48310  Biso   1.000  H
  C355     1.0000 0.34230  0.56820  0.48780  Biso   1.000  C
  C356     1.0000 0.29390  0.62220  0.50370  Biso   1.000  C
  H298     1.0000 0.23890  0.60360  0.50920  Biso   1.000  H
  C357     1.0000 0.31660  0.70290  0.51290  Biso   1.000  C
  H299     1.0000 0.27880  0.73970  0.52340  Biso   1.000  H
  C358     1.0000 0.40010  0.72610  0.50540  Biso   1.000  C
  H300     1.0000 0.42220  0.77840  0.51240  Biso   1.000  H
  C359     1.0000 0.42690  0.59580  0.47900  Biso   1.000  C
  C360     1.0000 0.48120  0.54470  0.46410  Biso   1.000  C
  Cd7      1.0000 0.78153  0.08234  0.21862  Biso   1.000  Cd
  O49      1.0000 0.39210  0.23170  0.30814  Biso   1.000  O
  O50      1.0000 0.37200  0.22890  0.37485  Biso   1.000  O
  H301     1.0000 0.37550  0.25770  0.35850  Biso   1.000  H
  O51      1.0000 0.28290  0.06840  0.37861  Biso   1.000  O
  O52      1.0000 0.33140  0.06930  0.31689  Biso   1.000  O
  H302     1.0000 0.30200  0.05340  0.33200  Biso   1.000  H
  O53      1.0000 0.75850  0.11830  0.26887  Biso   1.000  O
  O54      1.0000 0.78680  0.22910  0.29799  Biso   1.000  O
  O55      1.0000 0.52090  0.76890  0.42209  Biso   1.000  O
  O56      1.0000 0.53210  0.85740  0.46160  Biso   1.000  O
  N25      1.0000 0.92150  0.05860  0.20710  Biso   1.000  N
  N26      1.0000 0.80060  0.95210  0.23860  Biso   1.000  N
  C361     1.0000 0.51600  0.27180  0.37645  Biso   1.000  C
  C362     1.0000 0.51030  0.31820  0.34740  Biso   1.000  C
  H303     1.0000 0.54770  0.36810  0.34810  Biso   1.000  H
  H304     1.0000 0.45180  0.33790  0.34410  Biso   1.000  H
  C363     1.0000 0.53690  0.26020  0.32067  Biso   1.000  C
  C364     1.0000 0.61990  0.24920  0.31441  Biso   1.000  C
  H305     1.0000 0.66070  0.28220  0.32510  Biso   1.000  H
  C365     1.0000 0.64600  0.19010  0.29252  Biso   1.000  C
  C366     1.0000 0.58570  0.14200  0.27721  Biso   1.000  C
  H306     1.0000 0.60300  0.09930  0.26310  Biso   1.000  H
  C367     1.0000 0.50200  0.15540  0.28228  Biso   1.000  C
  C368     1.0000 0.43750  0.09950  0.26542  Biso   1.000  C
  H307     1.0000 0.38210  0.12820  0.26540  Biso   1.000  H
  H308     1.0000 0.45530  0.09220  0.24350  Biso   1.000  H
  C369     1.0000 0.42760  0.01250  0.28040  Biso   1.000  C
  C370     1.0000 0.47330  0.94440  0.26938  Biso   1.000  C
  H309     1.0000 0.51080  0.95120  0.25230  Biso   1.000  H
  C371     1.0000 0.46390  0.86670  0.28330  Biso   1.000  C
  H310     1.0000 0.49510  0.81990  0.27570  Biso   1.000  H
  C372     1.0000 0.41120  0.85620  0.30755  Biso   1.000  C
  H311     1.0000 0.40400  0.80160  0.31630  Biso   1.000  H
  C373     1.0000 0.36700  0.92390  0.32008  Biso   1.000  C
  C374     1.0000 0.30940  0.91050  0.34701  Biso   1.000  C
  H312     1.0000 0.29260  0.85050  0.34810  Biso   1.000  H
  H313     1.0000 0.25790  0.94490  0.34440  Biso   1.000  H
  C375     1.0000 0.35490  0.93600  0.37748  Biso   1.000  C
  C376     1.0000 0.40960  0.88180  0.39138  Biso   1.000  C
  H314     1.0000 0.41810  0.82770  0.38250  Biso   1.000  H
  C377     1.0000 0.45370  0.90310  0.41834  Biso   1.000  C
  C378     1.0000 0.44480  0.98300  0.42966  Biso   1.000  C
  H315     1.0000 0.47840  0.00090  0.44670  Biso   1.000  H
  C379     1.0000 0.38660  0.03920  0.41644  Biso   1.000  C
  C380     1.0000 0.38660  0.13080  0.42887  Biso   1.000  C
  H316     1.0000 0.33260  0.15810  0.42320  Biso   1.000  H
  H317     1.0000 0.39020  0.12950  0.45190  Biso   1.000  H
  C381     1.0000 0.45530  0.18090  0.41686  Biso   1.000  C
  C382     1.0000 0.53600  0.18150  0.43090  Biso   1.000  C
  H318     1.0000 0.54290  0.15290  0.45010  Biso   1.000  H
  C383     1.0000 0.60520  0.22140  0.41820  Biso   1.000  C
  H319     1.0000 0.65910  0.21690  0.42770  Biso   1.000  H
  C384     1.0000 0.59410  0.26760  0.39150  Biso   1.000  C
  H320     1.0000 0.64060  0.29760  0.38300  Biso   1.000  H
  C385     1.0000 0.44840  0.22640  0.38904  Biso   1.000  C
  C386     1.0000 0.34370  0.01540  0.39155  Biso   1.000  C
  C387     1.0000 0.37590  0.00290  0.30559  Biso   1.000  C
  C388     1.0000 0.47820  0.21630  0.30321  Biso   1.000  C
  C389     1.0000 0.73710  0.17670  0.28575  Biso   1.000  C
  C390     1.0000 0.50670  0.84020  0.43453  Biso   1.000  C
  C391     1.0000 0.20370  0.06570  0.39460  Biso   1.000  C
  H321     1.0000 0.21170  0.06930  0.41740  Biso   1.000  H
  H322     1.0000 0.17270  0.01320  0.38960  Biso   1.000  H
  C392     1.0000 0.15390  0.14780  0.38150  Biso   1.000  C
  H323     1.0000 0.10410  0.16190  0.39440  Biso   1.000  H
  H324     1.0000 0.19120  0.19760  0.37980  Biso   1.000  H
  C393     1.0000 0.13040  0.11550  0.35150  Biso   1.000  C
  H325     1.0000 0.15740  0.14910  0.33520  Biso   1.000  H
  H326     1.0000 0.06900  0.11860  0.34910  Biso   1.000  H
  H327     1.0000 0.14870  0.05670  0.34970  Biso   1.000  H
  C394     1.0000 0.36220  0.30140  0.28998  Biso   1.000  C
  H328     1.0000 0.36090  0.28600  0.26770  Biso   1.000  H
  H329     1.0000 0.40020  0.35040  0.29250  Biso   1.000  H
  C395     1.0000 0.27580  0.32330  0.30087  Biso   1.000  C
  H330     1.0000 0.27740  0.33850  0.32320  Biso   1.000  H
  H331     1.0000 0.23810  0.27400  0.29840  Biso   1.000  H
  C396     1.0000 0.24220  0.39700  0.28200  Biso   1.000  C
  H332     1.0000 0.27090  0.44890  0.28840  Biso   1.000  H
  H333     1.0000 0.18150  0.40290  0.28560  Biso   1.000  H
  H334     1.0000 0.25250  0.38690  0.25980  Biso   1.000  H
  C397     1.0000 0.97710  0.08860  0.19350  Biso   1.000  C
  H335     1.0000 0.96480  0.14330  0.18580  Biso   1.000  H
  C398     1.0000 0.06020  0.06080  0.18600  Biso   1.000  C
  H336     1.0000 0.10010  0.09460  0.17530  Biso   1.000  H
  C399     1.0000 0.07700  0.97810  0.19620  Biso   1.000  C
  H337     1.0000 0.13080  0.95430  0.19210  Biso   1.000  H
  C400     1.0000 0.02110  0.93330  0.21110  Biso   1.000  C
  C401     1.0000 0.93930  0.96350  0.21720  Biso   1.000  C
  C402     1.0000 0.87890  0.91550  0.23420  Biso   1.000  C
  C403     1.0000 0.74130  0.90520  0.25430  Biso   1.000  C
  H338     1.0000 0.68630  0.92770  0.25690  Biso   1.000  H
  C404     1.0000 0.75870  0.82790  0.26620  Biso   1.000  C
  H339     1.0000 0.71890  0.79920  0.27880  Biso   1.000  H
  C405     1.0000 0.83730  0.79140  0.25930  Biso   1.000  C
  H340     1.0000 0.84760  0.73460  0.26530  Biso   1.000  H
  C406     1.0000 0.89840  0.83440  0.24440  Biso   1.000  C
  C407     1.0000 0.98030  0.80120  0.23750  Biso   1.000  C
  H341     1.0000 0.99360  0.74550  0.24400  Biso   1.000  H
  C408     1.0000 0.04060  0.84760  0.22180  Biso   1.000  C
  H342     1.0000 0.09460  0.82400  0.21790  Biso   1.000  H
  N27      1.0000 0.82460  0.94730  0.23880  Biso   1.000  N
  N28      1.0000 0.92230  0.04210  0.20920  Biso   1.000  N
  C409     1.0000 0.97100  0.11270  0.19160  Biso   1.000  C
  H343     1.0000 0.94550  0.16560  0.18730  Biso   1.000  H
  C410     1.0000 0.04940  0.09620  0.18290  Biso   1.000  C
  H344     1.0000 0.08250  0.13790  0.17280  Biso   1.000  H
  C411     1.0000 0.08310  0.01440  0.18900  Biso   1.000  C
  H345     1.0000 0.13740  0.00040  0.18120  Biso   1.000  H
  C412     1.0000 0.04010  0.95680  0.20540  Biso   1.000  C
  C413     1.0000 0.06580  0.87430  0.21300  Biso   1.000  C
  H346     1.0000 0.12070  0.85620  0.20710  Biso   1.000  H
  C414     1.0000 0.01460  0.81960  0.22850  Biso   1.000  C
  H347     1.0000 0.03480  0.76460  0.23310  Biso   1.000  H
  C415     1.0000 0.93180  0.84230  0.23780  Biso   1.000  C
  C416     1.0000 0.87780  0.79390  0.25370  Biso   1.000  C
  H348     1.0000 0.89640  0.73890  0.25920  Biso   1.000  H
  C417     1.0000 0.79710  0.81660  0.26290  Biso   1.000  C
  H349     1.0000 0.76030  0.77880  0.27340  Biso   1.000  H
  C418     1.0000 0.77390  0.90010  0.25540  Biso   1.000  C
  H350     1.0000 0.72160  0.92220  0.26240  Biso   1.000  H
  C419     1.0000 0.90420  0.92690  0.22900  Biso   1.000  C
  C420     1.0000 0.95530  0.98120  0.21410  Biso   1.000  C
  Cd8      1.0000 0.21847  0.91766  0.71862  Biso   1.000  Cd
  O57      1.0000 0.60790  0.76830  0.80814  Biso   1.000  O
  O58      1.0000 0.62800  0.77110  0.87485  Biso   1.000  O
  H351     1.0000 0.62450  0.74230  0.85850  Biso   1.000  H
  O59      1.0000 0.71710  0.93160  0.87861  Biso   1.000  O
  O60      1.0000 0.66860  0.93070  0.81689  Biso   1.000  O
  H352     1.0000 0.69800  0.94660  0.83200  Biso   1.000  H
  O61      1.0000 0.24150  0.88170  0.76887  Biso   1.000  O
  O62      1.0000 0.21320  0.77090  0.79799  Biso   1.000  O
  O63      1.0000 0.47910  0.23110  0.92209  Biso   1.000  O
  O64      1.0000 0.46790  0.14260  0.96160  Biso   1.000  O
  N29      1.0000 0.07850  0.94140  0.70710  Biso   1.000  N
  N30      1.0000 0.19940  0.04790  0.73860  Biso   1.000  N
  C421     1.0000 0.48400  0.72820  0.87645  Biso   1.000  C
  C422     1.0000 0.48970  0.68180  0.84740  Biso   1.000  C
  H353     1.0000 0.45230  0.63190  0.84810  Biso   1.000  H
  H354     1.0000 0.54820  0.66210  0.84410  Biso   1.000  H
  C423     1.0000 0.46310  0.73980  0.82067  Biso   1.000  C
  C424     1.0000 0.38010  0.75080  0.81441  Biso   1.000  C
  H355     1.0000 0.33930  0.71780  0.82510  Biso   1.000  H
  C425     1.0000 0.35400  0.80990  0.79252  Biso   1.000  C
  C426     1.0000 0.41430  0.85800  0.77721  Biso   1.000  C
  H356     1.0000 0.39700  0.90070  0.76310  Biso   1.000  H
  C427     1.0000 0.49800  0.84460  0.78228  Biso   1.000  C
  C428     1.0000 0.56250  0.90050  0.76542  Biso   1.000  C
  H357     1.0000 0.61790  0.87180  0.76540  Biso   1.000  H
  H358     1.0000 0.54470  0.90780  0.74350  Biso   1.000  H
  C429     1.0000 0.57240  0.98750  0.78040  Biso   1.000  C
  C430     1.0000 0.52670  0.05560  0.76938  Biso   1.000  C
  H359     1.0000 0.48920  0.04880  0.75230  Biso   1.000  H
  C431     1.0000 0.53610  0.13330  0.78330  Biso   1.000  C
  H360     1.0000 0.50490  0.18010  0.77570  Biso   1.000  H
  C432     1.0000 0.58880  0.14380  0.80755  Biso   1.000  C
  H361     1.0000 0.59600  0.19840  0.81630  Biso   1.000  H
  C433     1.0000 0.63300  0.07610  0.82008  Biso   1.000  C
  C434     1.0000 0.69060  0.08950  0.84701  Biso   1.000  C
  H362     1.0000 0.70740  0.14950  0.84810  Biso   1.000  H
  H363     1.0000 0.74210  0.05510  0.84440  Biso   1.000  H
  C435     1.0000 0.64510  0.06400  0.87748  Biso   1.000  C
  C436     1.0000 0.59040  0.11820  0.89138  Biso   1.000  C
  H364     1.0000 0.58190  0.17230  0.88250  Biso   1.000  H
  C437     1.0000 0.54630  0.09690  0.91834  Biso   1.000  C
  C438     1.0000 0.55520  0.01700  0.92966  Biso   1.000  C
  H365     1.0000 0.52160  0.99910  0.94670  Biso   1.000  H
  C439     1.0000 0.61340  0.96080  0.91644  Biso   1.000  C
  C440     1.0000 0.61340  0.86920  0.92887  Biso   1.000  C
  H366     1.0000 0.66740  0.84190  0.92320  Biso   1.000  H
  H367     1.0000 0.60980  0.87050  0.95190  Biso   1.000  H
  C441     1.0000 0.54470  0.81910  0.91686  Biso   1.000  C
  C442     1.0000 0.46400  0.81850  0.93090  Biso   1.000  C
  H368     1.0000 0.45710  0.84710  0.95010  Biso   1.000  H
  C443     1.0000 0.39480  0.77860  0.91820  Biso   1.000  C
  H369     1.0000 0.34090  0.78310  0.92770  Biso   1.000  H
  C444     1.0000 0.40590  0.73240  0.89150  Biso   1.000  C
  H370     1.0000 0.35940  0.70240  0.88300  Biso   1.000  H
  C445     1.0000 0.55160  0.77360  0.88904  Biso   1.000  C
  C446     1.0000 0.65630  0.98460  0.89155  Biso   1.000  C
  C447     1.0000 0.62410  0.99710  0.80559  Biso   1.000  C
  C448     1.0000 0.52180  0.78370  0.80321  Biso   1.000  C
  C449     1.0000 0.26290  0.82330  0.78575  Biso   1.000  C
  C450     1.0000 0.49330  0.15980  0.93453  Biso   1.000  C
  C451     1.0000 0.79630  0.93430  0.89460  Biso   1.000  C
  H371     1.0000 0.78830  0.93070  0.91740  Biso   1.000  H
  H372     1.0000 0.82730  0.98680  0.88960  Biso   1.000  H
  C452     1.0000 0.84610  0.85220  0.88150  Biso   1.000  C
  H373     1.0000 0.89590  0.83810  0.89440  Biso   1.000  H
  H374     1.0000 0.80880  0.80240  0.87980  Biso   1.000  H
  C453     1.0000 0.86960  0.88450  0.85150  Biso   1.000  C
  H375     1.0000 0.84260  0.85090  0.83520  Biso   1.000  H
  H376     1.0000 0.93100  0.88140  0.84910  Biso   1.000  H
  H377     1.0000 0.85130  0.94330  0.84970  Biso   1.000  H
  C454     1.0000 0.63780  0.69860  0.78998  Biso   1.000  C
  H378     1.0000 0.63910  0.71400  0.76770  Biso   1.000  H
  H379     1.0000 0.59980  0.64960  0.79250  Biso   1.000  H
  C455     1.0000 0.72420  0.67670  0.80087  Biso   1.000  C
  H380     1.0000 0.72260  0.66150  0.82320  Biso   1.000  H
  H381     1.0000 0.76190  0.72600  0.79840  Biso   1.000  H
  C456     1.0000 0.75780  0.60300  0.78200  Biso   1.000  C
  H382     1.0000 0.72910  0.55110  0.78840  Biso   1.000  H
  H383     1.0000 0.81850  0.59710  0.78560  Biso   1.000  H
  H384     1.0000 0.74750  0.61310  0.75980  Biso   1.000  H
  C457     1.0000 0.02290  0.91140  0.69350  Biso   1.000  C
  H385     1.0000 0.03520  0.85670  0.68580  Biso   1.000  H
  C458     1.0000 0.93980  0.93920  0.68600  Biso   1.000  C
  H386     1.0000 0.89990  0.90540  0.67530  Biso   1.000  H
  C459     1.0000 0.92300  0.02190  0.69620  Biso   1.000  C
  H387     1.0000 0.86920  0.04570  0.69210  Biso   1.000  H
  C460     1.0000 0.97890  0.06670  0.71110  Biso   1.000  C
  C461     1.0000 0.06070  0.03650  0.71720  Biso   1.000  C
  C462     1.0000 0.12110  0.08450  0.73420  Biso   1.000  C
  C463     1.0000 0.25870  0.09480  0.75430  Biso   1.000  C
  H388     1.0000 0.31370  0.07230  0.75690  Biso   1.000  H
  C464     1.0000 0.24130  0.17210  0.76620  Biso   1.000  C
  H389     1.0000 0.28110  0.20080  0.77880  Biso   1.000  H
  C465     1.0000 0.16270  0.20860  0.75930  Biso   1.000  C
  H390     1.0000 0.15240  0.26540  0.76530  Biso   1.000  H
  C466     1.0000 0.10160  0.16560  0.74440  Biso   1.000  C
  C467     1.0000 0.01970  0.19880  0.73750  Biso   1.000  C
  H391     1.0000 0.00640  0.25450  0.74400  Biso   1.000  H
  C468     1.0000 0.95940  0.15240  0.72180  Biso   1.000  C
  H392     1.0000 0.90540  0.17600  0.71790  Biso   1.000  H
  N31      1.0000 0.17540  0.05270  0.73880  Biso   1.000  N
  N32      1.0000 0.07770  0.95790  0.70920  Biso   1.000  N
  C469     1.0000 0.02900  0.88730  0.69160  Biso   1.000  C
  H393     1.0000 0.05450  0.83440  0.68730  Biso   1.000  H
  C470     1.0000 0.95060  0.90380  0.68290  Biso   1.000  C
  H394     1.0000 0.91750  0.86210  0.67280  Biso   1.000  H
  C471     1.0000 0.91690  0.98560  0.68900  Biso   1.000  C
  H395     1.0000 0.86260  0.99960  0.68120  Biso   1.000  H
  C472     1.0000 0.95990  0.04320  0.70540  Biso   1.000  C
  C473     1.0000 0.93420  0.12570  0.71300  Biso   1.000  C
  H396     1.0000 0.87930  0.14380  0.70710  Biso   1.000  H
  C474     1.0000 0.98540  0.18040  0.72850  Biso   1.000  C
  H397     1.0000 0.96520  0.23540  0.73310  Biso   1.000  H
  C475     1.0000 0.06820  0.15770  0.73780  Biso   1.000  C
  C476     1.0000 0.12220  0.20610  0.75370  Biso   1.000  C
  H398     1.0000 0.10360  0.26110  0.75920  Biso   1.000  H
  C477     1.0000 0.20290  0.18340  0.76290  Biso   1.000  C
  H399     1.0000 0.23970  0.22120  0.77340  Biso   1.000  H
  C478     1.0000 0.22610  0.09990  0.75540  Biso   1.000  C
  H400     1.0000 0.27840  0.07780  0.76240  Biso   1.000  H
  C479     1.0000 0.09580  0.07310  0.72900  Biso   1.000  C
  C480     1.0000 0.04470  0.01880  0.71410  Biso   1.000  C
