data_image0
_cell_length_a       21.753
_cell_length_b       21.753
_cell_length_c       21.753
_cell_angle_alpha    90
_cell_angle_beta     90
_cell_angle_gamma    90

_symmetry_space_group_name_H-M    "P 1"
_symmetry_int_tables_number       1

loop_
  _symmetry_equiv_pos_as_xyz
  'x, y, z'

loop_
  _atom_site_label
  _atom_site_occupancy
  _atom_site_fract_x
  _atom_site_fract_y
  _atom_site_fract_z
  _atom_site_thermal_displace_type
  _atom_site_B_iso_or_equiv
  _atom_site_type_symbol
  H1       1.0000 0.03680  0.12460  0.38920  Biso   1.000  H
  C1       1.0000 0.94500  0.29100  0.45920  Biso   1.000  C
  H2       1.0000 0.90740  0.31220  0.46550  Biso   1.000  H
  C2       1.0000 0.94400  0.22960  0.44230  Biso   1.000  C
  H3       1.0000 0.90620  0.20830  0.43700  Biso   1.000  H
  O1       1.0000 0.94830  0.41350  0.48700  Biso   1.000  O
  C3       1.0000 0.04370  0.09330  0.51900  Biso   1.000  C
  H4       1.0000 0.11960  0.04940  0.54720  Biso   1.000  H
  H5       1.0000 0.12900  0.08700  0.48480  Biso   1.000  H
  H6       1.0000 0.02440  0.07680  0.55670  Biso   1.000  H
  H7       1.0000 0.05370  0.13700  0.52660  Biso   1.000  H
  C4       1.0000 0.10030  0.06000  0.50740  Biso   1.000  C
  H8       1.0000 0.96320  0.87540  0.38920  Biso   1.000  H
  C5       1.0000 0.05500  0.70900  0.45920  Biso   1.000  C
  H9       1.0000 0.09260  0.68780  0.46550  Biso   1.000  H
  C6       1.0000 0.05600  0.77040  0.44230  Biso   1.000  C
  H10      1.0000 0.09380  0.79170  0.43700  Biso   1.000  H
  O2       1.0000 0.05170  0.58650  0.48700  Biso   1.000  O
  C7       1.0000 0.95630  0.90670  0.51900  Biso   1.000  C
  H11      1.0000 0.88040  0.95060  0.54720  Biso   1.000  H
  H12      1.0000 0.87100  0.91300  0.48480  Biso   1.000  H
  H13      1.0000 0.97560  0.92320  0.55670  Biso   1.000  H
  H14      1.0000 0.94630  0.86300  0.52660  Biso   1.000  H
  C8       1.0000 0.89970  0.94000  0.50740  Biso   1.000  C
  H15      1.0000 0.96320  0.12460  0.61080  Biso   1.000  H
  C9       1.0000 0.05500  0.29100  0.54080  Biso   1.000  C
  H16      1.0000 0.09260  0.31220  0.53450  Biso   1.000  H
  C10      1.0000 0.05600  0.22960  0.55770  Biso   1.000  C
  H17      1.0000 0.09380  0.20830  0.56300  Biso   1.000  H
  O3       1.0000 0.05170  0.41350  0.51300  Biso   1.000  O
  C11      1.0000 0.95630  0.09330  0.48100  Biso   1.000  C
  H18      1.0000 0.88040  0.04940  0.45280  Biso   1.000  H
  H19      1.0000 0.87100  0.08700  0.51520  Biso   1.000  H
  H20      1.0000 0.97560  0.07680  0.44330  Biso   1.000  H
  H21      1.0000 0.94630  0.13700  0.47340  Biso   1.000  H
  C12      1.0000 0.89970  0.06000  0.49260  Biso   1.000  C
  H22      1.0000 0.03680  0.87540  0.61080  Biso   1.000  H
  C13      1.0000 0.94500  0.70900  0.54080  Biso   1.000  C
  H23      1.0000 0.90740  0.68780  0.53450  Biso   1.000  H
  C14      1.0000 0.94400  0.77040  0.55770  Biso   1.000  C
  H24      1.0000 0.90620  0.79170  0.56300  Biso   1.000  H
  O4       1.0000 0.94830  0.58650  0.51300  Biso   1.000  O
  C15      1.0000 0.04370  0.90670  0.48100  Biso   1.000  C
  H25      1.0000 0.11960  0.95060  0.45280  Biso   1.000  H
  H26      1.0000 0.12900  0.91300  0.51520  Biso   1.000  H
  H27      1.0000 0.02440  0.92320  0.44330  Biso   1.000  H
  H28      1.0000 0.05370  0.86300  0.47340  Biso   1.000  H
  C16      1.0000 0.10030  0.94000  0.49260  Biso   1.000  C
  H29      1.0000 0.38920  0.03680  0.12460  Biso   1.000  H
  C17      1.0000 0.45920  0.94500  0.29100  Biso   1.000  C
  H30      1.0000 0.46550  0.90740  0.31220  Biso   1.000  H
  C18      1.0000 0.44230  0.94400  0.22960  Biso   1.000  C
  H31      1.0000 0.43700  0.90620  0.20830  Biso   1.000  H
  O5       1.0000 0.48700  0.94830  0.41350  Biso   1.000  O
  C19      1.0000 0.51900  0.04370  0.09330  Biso   1.000  C
  H32      1.0000 0.54720  0.11960  0.04940  Biso   1.000  H
  H33      1.0000 0.48480  0.12900  0.08700  Biso   1.000  H
  H34      1.0000 0.55670  0.02440  0.07680  Biso   1.000  H
  H35      1.0000 0.52660  0.05370  0.13700  Biso   1.000  H
  C20      1.0000 0.50740  0.10030  0.06000  Biso   1.000  C
  H36      1.0000 0.38920  0.96320  0.87540  Biso   1.000  H
  C21      1.0000 0.45920  0.05500  0.70900  Biso   1.000  C
  H37      1.0000 0.46550  0.09260  0.68780  Biso   1.000  H
  C22      1.0000 0.44230  0.05600  0.77040  Biso   1.000  C
  H38      1.0000 0.43700  0.09380  0.79170  Biso   1.000  H
  O6       1.0000 0.48700  0.05170  0.58650  Biso   1.000  O
  C23      1.0000 0.51900  0.95630  0.90670  Biso   1.000  C
  H39      1.0000 0.54720  0.88040  0.95060  Biso   1.000  H
  H40      1.0000 0.48480  0.87100  0.91300  Biso   1.000  H
  H41      1.0000 0.55670  0.97560  0.92320  Biso   1.000  H
  H42      1.0000 0.52660  0.94630  0.86300  Biso   1.000  H
  C24      1.0000 0.50740  0.89970  0.94000  Biso   1.000  C
  H43      1.0000 0.61080  0.96320  0.12460  Biso   1.000  H
  C25      1.0000 0.54080  0.05500  0.29100  Biso   1.000  C
  H44      1.0000 0.53450  0.09260  0.31220  Biso   1.000  H
  C26      1.0000 0.55770  0.05600  0.22960  Biso   1.000  C
  H45      1.0000 0.56300  0.09380  0.20830  Biso   1.000  H
  O7       1.0000 0.51300  0.05170  0.41350  Biso   1.000  O
  C27      1.0000 0.48100  0.95630  0.09330  Biso   1.000  C
  H46      1.0000 0.45280  0.88040  0.04940  Biso   1.000  H
  H47      1.0000 0.51520  0.87100  0.08700  Biso   1.000  H
  H48      1.0000 0.44330  0.97560  0.07680  Biso   1.000  H
  H49      1.0000 0.47340  0.94630  0.13700  Biso   1.000  H
  C28      1.0000 0.49260  0.89970  0.06000  Biso   1.000  C
  H50      1.0000 0.61080  0.03680  0.87540  Biso   1.000  H
  C29      1.0000 0.54080  0.94500  0.70900  Biso   1.000  C
  H51      1.0000 0.53450  0.90740  0.68780  Biso   1.000  H
  C30      1.0000 0.55770  0.94400  0.77040  Biso   1.000  C
  H52      1.0000 0.56300  0.90620  0.79170  Biso   1.000  H
  O8       1.0000 0.51300  0.94830  0.58650  Biso   1.000  O
  C31      1.0000 0.48100  0.04370  0.90670  Biso   1.000  C
  H53      1.0000 0.45280  0.11960  0.95060  Biso   1.000  H
  H54      1.0000 0.51520  0.12900  0.91300  Biso   1.000  H
  H55      1.0000 0.44330  0.02440  0.92320  Biso   1.000  H
  H56      1.0000 0.47340  0.05370  0.86300  Biso   1.000  H
  C32      1.0000 0.49260  0.10030  0.94000  Biso   1.000  C
  H57      1.0000 0.12460  0.38920  0.03680  Biso   1.000  H
  C33      1.0000 0.29100  0.45920  0.94500  Biso   1.000  C
  H58      1.0000 0.31220  0.46550  0.90740  Biso   1.000  H
  C34      1.0000 0.22960  0.44230  0.94400  Biso   1.000  C
  H59      1.0000 0.20830  0.43700  0.90620  Biso   1.000  H
  O9       1.0000 0.41350  0.48700  0.94830  Biso   1.000  O
  C35      1.0000 0.09330  0.51900  0.04370  Biso   1.000  C
  H60      1.0000 0.04940  0.54720  0.11960  Biso   1.000  H
  H61      1.0000 0.08700  0.48480  0.12900  Biso   1.000  H
  H62      1.0000 0.07680  0.55670  0.02440  Biso   1.000  H
  H63      1.0000 0.13700  0.52660  0.05370  Biso   1.000  H
  C36      1.0000 0.06000  0.50740  0.10030  Biso   1.000  C
  H64      1.0000 0.87540  0.38920  0.96320  Biso   1.000  H
  C37      1.0000 0.70900  0.45920  0.05500  Biso   1.000  C
  H65      1.0000 0.68780  0.46550  0.09260  Biso   1.000  H
  C38      1.0000 0.77040  0.44230  0.05600  Biso   1.000  C
  H66      1.0000 0.79170  0.43700  0.09380  Biso   1.000  H
  O10      1.0000 0.58650  0.48700  0.05170  Biso   1.000  O
  C39      1.0000 0.90670  0.51900  0.95630  Biso   1.000  C
  H67      1.0000 0.95060  0.54720  0.88040  Biso   1.000  H
  H68      1.0000 0.91300  0.48480  0.87100  Biso   1.000  H
  H69      1.0000 0.92320  0.55670  0.97560  Biso   1.000  H
  H70      1.0000 0.86300  0.52660  0.94630  Biso   1.000  H
  C40      1.0000 0.94000  0.50740  0.89970  Biso   1.000  C
  H71      1.0000 0.12460  0.61080  0.96320  Biso   1.000  H
  C41      1.0000 0.29100  0.54080  0.05500  Biso   1.000  C
  H72      1.0000 0.31220  0.53450  0.09260  Biso   1.000  H
  C42      1.0000 0.22960  0.55770  0.05600  Biso   1.000  C
  H73      1.0000 0.20830  0.56300  0.09380  Biso   1.000  H
  O11      1.0000 0.41350  0.51300  0.05170  Biso   1.000  O
  C43      1.0000 0.09330  0.48100  0.95630  Biso   1.000  C
  H74      1.0000 0.04940  0.45280  0.88040  Biso   1.000  H
  H75      1.0000 0.08700  0.51520  0.87100  Biso   1.000  H
  H76      1.0000 0.07680  0.44330  0.97560  Biso   1.000  H
  H77      1.0000 0.13700  0.47340  0.94630  Biso   1.000  H
  C44      1.0000 0.06000  0.49260  0.89970  Biso   1.000  C
  H78      1.0000 0.87540  0.61080  0.03680  Biso   1.000  H
  C45      1.0000 0.70900  0.54080  0.94500  Biso   1.000  C
  H79      1.0000 0.68780  0.53450  0.90740  Biso   1.000  H
  C46      1.0000 0.77040  0.55770  0.94400  Biso   1.000  C
  H80      1.0000 0.79170  0.56300  0.90620  Biso   1.000  H
  O12      1.0000 0.58650  0.51300  0.94830  Biso   1.000  O
  C47      1.0000 0.90670  0.48100  0.04370  Biso   1.000  C
  H81      1.0000 0.95060  0.45280  0.11960  Biso   1.000  H
  H82      1.0000 0.91300  0.51520  0.12900  Biso   1.000  H
  H83      1.0000 0.92320  0.44330  0.02440  Biso   1.000  H
  H84      1.0000 0.86300  0.47340  0.05370  Biso   1.000  H
  C48      1.0000 0.94000  0.49260  0.10030  Biso   1.000  C
  H85      1.0000 0.12460  0.03680  0.61080  Biso   1.000  H
  C49      1.0000 0.29100  0.94500  0.54080  Biso   1.000  C
  H86      1.0000 0.31220  0.90740  0.53450  Biso   1.000  H
  C50      1.0000 0.22960  0.94400  0.55770  Biso   1.000  C
  H87      1.0000 0.20830  0.90620  0.56300  Biso   1.000  H
  O13      1.0000 0.41350  0.94830  0.51300  Biso   1.000  O
  C51      1.0000 0.09330  0.04370  0.48100  Biso   1.000  C
  H88      1.0000 0.04940  0.11960  0.45280  Biso   1.000  H
  H89      1.0000 0.08700  0.12900  0.51520  Biso   1.000  H
  H90      1.0000 0.07680  0.02440  0.44330  Biso   1.000  H
  H91      1.0000 0.13700  0.05370  0.47340  Biso   1.000  H
  C52      1.0000 0.06000  0.10030  0.49260  Biso   1.000  C
  H92      1.0000 0.87540  0.96320  0.61080  Biso   1.000  H
  C53      1.0000 0.70900  0.05500  0.54080  Biso   1.000  C
  H93      1.0000 0.68780  0.09260  0.53450  Biso   1.000  H
  C54      1.0000 0.77040  0.05600  0.55770  Biso   1.000  C
  H94      1.0000 0.79170  0.09380  0.56300  Biso   1.000  H
  O14      1.0000 0.58650  0.05170  0.51300  Biso   1.000  O
  C55      1.0000 0.90670  0.95630  0.48100  Biso   1.000  C
  H95      1.0000 0.95060  0.88040  0.45280  Biso   1.000  H
  H96      1.0000 0.91300  0.87100  0.51520  Biso   1.000  H
  H97      1.0000 0.92320  0.97560  0.44330  Biso   1.000  H
  H98      1.0000 0.86300  0.94630  0.47340  Biso   1.000  H
  C56      1.0000 0.94000  0.89970  0.49260  Biso   1.000  C
  H99      1.0000 0.12460  0.96320  0.38920  Biso   1.000  H
  C57      1.0000 0.29100  0.05500  0.45920  Biso   1.000  C
  H100     1.0000 0.31220  0.09260  0.46550  Biso   1.000  H
  C58      1.0000 0.22960  0.05600  0.44230  Biso   1.000  C
  H101     1.0000 0.20830  0.09380  0.43700  Biso   1.000  H
  O15      1.0000 0.41350  0.05170  0.48700  Biso   1.000  O
  C59      1.0000 0.09330  0.95630  0.51900  Biso   1.000  C
  H102     1.0000 0.04940  0.88040  0.54720  Biso   1.000  H
  H103     1.0000 0.08700  0.87100  0.48480  Biso   1.000  H
  H104     1.0000 0.07680  0.97560  0.55670  Biso   1.000  H
  H105     1.0000 0.13700  0.94630  0.52660  Biso   1.000  H
  C60      1.0000 0.06000  0.89970  0.50740  Biso   1.000  C
  H106     1.0000 0.87540  0.03680  0.38920  Biso   1.000  H
  C61      1.0000 0.70900  0.94500  0.45920  Biso   1.000  C
  H107     1.0000 0.68780  0.90740  0.46550  Biso   1.000  H
  C62      1.0000 0.77040  0.94400  0.44230  Biso   1.000  C
  H108     1.0000 0.79170  0.90620  0.43700  Biso   1.000  H
  O16      1.0000 0.58650  0.94830  0.48700  Biso   1.000  O
  C63      1.0000 0.90670  0.04370  0.51900  Biso   1.000  C
  H109     1.0000 0.95060  0.11960  0.54720  Biso   1.000  H
  H110     1.0000 0.91300  0.12900  0.48480  Biso   1.000  H
  H111     1.0000 0.92320  0.02440  0.55670  Biso   1.000  H
  H112     1.0000 0.86300  0.05370  0.52660  Biso   1.000  H
  C64      1.0000 0.94000  0.10030  0.50740  Biso   1.000  C
  H113     1.0000 0.03680  0.38920  0.87540  Biso   1.000  H
  C65      1.0000 0.94500  0.45920  0.70900  Biso   1.000  C
  H114     1.0000 0.90740  0.46550  0.68780  Biso   1.000  H
  C66      1.0000 0.94400  0.44230  0.77040  Biso   1.000  C
  H115     1.0000 0.90620  0.43700  0.79170  Biso   1.000  H
  O17      1.0000 0.94830  0.48700  0.58650  Biso   1.000  O
  C67      1.0000 0.04370  0.51900  0.90670  Biso   1.000  C
  H116     1.0000 0.11960  0.54720  0.95060  Biso   1.000  H
  H117     1.0000 0.12900  0.48480  0.91300  Biso   1.000  H
  H118     1.0000 0.02440  0.55670  0.92320  Biso   1.000  H
  H119     1.0000 0.05370  0.52660  0.86300  Biso   1.000  H
  C68      1.0000 0.10030  0.50740  0.94000  Biso   1.000  C
  H120     1.0000 0.96320  0.38920  0.12460  Biso   1.000  H
  C69      1.0000 0.05500  0.45920  0.29100  Biso   1.000  C
  H121     1.0000 0.09260  0.46550  0.31220  Biso   1.000  H
  C70      1.0000 0.05600  0.44230  0.22960  Biso   1.000  C
  H122     1.0000 0.09380  0.43700  0.20830  Biso   1.000  H
  O18      1.0000 0.05170  0.48700  0.41350  Biso   1.000  O
  C71      1.0000 0.95630  0.51900  0.09330  Biso   1.000  C
  H123     1.0000 0.88040  0.54720  0.04940  Biso   1.000  H
  H124     1.0000 0.87100  0.48480  0.08700  Biso   1.000  H
  H125     1.0000 0.97560  0.55670  0.07680  Biso   1.000  H
  H126     1.0000 0.94630  0.52660  0.13700  Biso   1.000  H
  C72      1.0000 0.89970  0.50740  0.06000  Biso   1.000  C
  H127     1.0000 0.96320  0.61080  0.87540  Biso   1.000  H
  C73      1.0000 0.05500  0.54080  0.70900  Biso   1.000  C
  H128     1.0000 0.09260  0.53450  0.68780  Biso   1.000  H
  C74      1.0000 0.05600  0.55770  0.77040  Biso   1.000  C
  H129     1.0000 0.09380  0.56300  0.79170  Biso   1.000  H
  O19      1.0000 0.05170  0.51300  0.58650  Biso   1.000  O
  C75      1.0000 0.95630  0.48100  0.90670  Biso   1.000  C
  H130     1.0000 0.88040  0.45280  0.95060  Biso   1.000  H
  H131     1.0000 0.87100  0.51520  0.91300  Biso   1.000  H
  H132     1.0000 0.97560  0.44330  0.92320  Biso   1.000  H
  H133     1.0000 0.94630  0.47340  0.86300  Biso   1.000  H
  C76      1.0000 0.89970  0.49260  0.94000  Biso   1.000  C
  H134     1.0000 0.03680  0.61080  0.12460  Biso   1.000  H
  C77      1.0000 0.94500  0.54080  0.29100  Biso   1.000  C
  H135     1.0000 0.90740  0.53450  0.31220  Biso   1.000  H
  C78      1.0000 0.94400  0.55770  0.22960  Biso   1.000  C
  H136     1.0000 0.90620  0.56300  0.20830  Biso   1.000  H
  O20      1.0000 0.94830  0.51300  0.41350  Biso   1.000  O
  C79      1.0000 0.04370  0.48100  0.09330  Biso   1.000  C
  H137     1.0000 0.11960  0.45280  0.04940  Biso   1.000  H
  H138     1.0000 0.12900  0.51520  0.08700  Biso   1.000  H
  H139     1.0000 0.02440  0.44330  0.07680  Biso   1.000  H
  H140     1.0000 0.05370  0.47340  0.13700  Biso   1.000  H
  C80      1.0000 0.10030  0.49260  0.06000  Biso   1.000  C
  H141     1.0000 0.38920  0.12460  0.96320  Biso   1.000  H
  C81      1.0000 0.45920  0.29100  0.05500  Biso   1.000  C
  H142     1.0000 0.46550  0.31220  0.09260  Biso   1.000  H
  C82      1.0000 0.44230  0.22960  0.05600  Biso   1.000  C
  H143     1.0000 0.43700  0.20830  0.09380  Biso   1.000  H
  O21      1.0000 0.48700  0.41350  0.05170  Biso   1.000  O
  C83      1.0000 0.51900  0.09330  0.95630  Biso   1.000  C
  H144     1.0000 0.54720  0.04940  0.88040  Biso   1.000  H
  H145     1.0000 0.48480  0.08700  0.87100  Biso   1.000  H
  H146     1.0000 0.55670  0.07680  0.97560  Biso   1.000  H
  H147     1.0000 0.52660  0.13700  0.94630  Biso   1.000  H
  C84      1.0000 0.50740  0.06000  0.89970  Biso   1.000  C
  H148     1.0000 0.38920  0.87540  0.03680  Biso   1.000  H
  C85      1.0000 0.45920  0.70900  0.94500  Biso   1.000  C
  H149     1.0000 0.46550  0.68780  0.90740  Biso   1.000  H
  C86      1.0000 0.44230  0.77040  0.94400  Biso   1.000  C
  H150     1.0000 0.43700  0.79170  0.90620  Biso   1.000  H
  O22      1.0000 0.48700  0.58650  0.94830  Biso   1.000  O
  C87      1.0000 0.51900  0.90670  0.04370  Biso   1.000  C
  H151     1.0000 0.54720  0.95060  0.11960  Biso   1.000  H
  H152     1.0000 0.48480  0.91300  0.12900  Biso   1.000  H
  H153     1.0000 0.55670  0.92320  0.02440  Biso   1.000  H
  H154     1.0000 0.52660  0.86300  0.05370  Biso   1.000  H
  C88      1.0000 0.50740  0.94000  0.10030  Biso   1.000  C
  H155     1.0000 0.61080  0.12460  0.03680  Biso   1.000  H
  C89      1.0000 0.54080  0.29100  0.94500  Biso   1.000  C
  H156     1.0000 0.53450  0.31220  0.90740  Biso   1.000  H
  C90      1.0000 0.55770  0.22960  0.94400  Biso   1.000  C
  H157     1.0000 0.56300  0.20830  0.90620  Biso   1.000  H
  O23      1.0000 0.51300  0.41350  0.94830  Biso   1.000  O
  C91      1.0000 0.48100  0.09330  0.04370  Biso   1.000  C
  H158     1.0000 0.45280  0.04940  0.11960  Biso   1.000  H
  H159     1.0000 0.51520  0.08700  0.12900  Biso   1.000  H
  H160     1.0000 0.44330  0.07680  0.02440  Biso   1.000  H
  H161     1.0000 0.47340  0.13700  0.05370  Biso   1.000  H
  C92      1.0000 0.49260  0.06000  0.10030  Biso   1.000  C
  H162     1.0000 0.61080  0.87540  0.96320  Biso   1.000  H
  C93      1.0000 0.54080  0.70900  0.05500  Biso   1.000  C
  H163     1.0000 0.53450  0.68780  0.09260  Biso   1.000  H
  C94      1.0000 0.55770  0.77040  0.05600  Biso   1.000  C
  H164     1.0000 0.56300  0.79170  0.09380  Biso   1.000  H
  O24      1.0000 0.51300  0.58650  0.05170  Biso   1.000  O
  C95      1.0000 0.48100  0.90670  0.95630  Biso   1.000  C
  H165     1.0000 0.45280  0.95060  0.88040  Biso   1.000  H
  H166     1.0000 0.51520  0.91300  0.87100  Biso   1.000  H
  H167     1.0000 0.44330  0.92320  0.97560  Biso   1.000  H
  H168     1.0000 0.47340  0.86300  0.94630  Biso   1.000  H
  C96      1.0000 0.49260  0.94000  0.89970  Biso   1.000  C
  H169     1.0000 0.96320  0.87540  0.61080  Biso   1.000  H
  C97      1.0000 0.05500  0.70900  0.54080  Biso   1.000  C
  H170     1.0000 0.09260  0.68780  0.53450  Biso   1.000  H
  C98      1.0000 0.05600  0.77040  0.55770  Biso   1.000  C
  H171     1.0000 0.09380  0.79170  0.56300  Biso   1.000  H
  O25      1.0000 0.05170  0.58650  0.51300  Biso   1.000  O
  C99      1.0000 0.95630  0.90670  0.48100  Biso   1.000  C
  H172     1.0000 0.88040  0.95060  0.45280  Biso   1.000  H
  H173     1.0000 0.87100  0.91300  0.51520  Biso   1.000  H
  H174     1.0000 0.97560  0.92320  0.44330  Biso   1.000  H
  H175     1.0000 0.94630  0.86300  0.47340  Biso   1.000  H
  C100     1.0000 0.89970  0.94000  0.49260  Biso   1.000  C
  H176     1.0000 0.03680  0.12460  0.61080  Biso   1.000  H
  C101     1.0000 0.94500  0.29100  0.54080  Biso   1.000  C
  H177     1.0000 0.90740  0.31220  0.53450  Biso   1.000  H
  C102     1.0000 0.94400  0.22960  0.55770  Biso   1.000  C
  H178     1.0000 0.90620  0.20830  0.56300  Biso   1.000  H
  O26      1.0000 0.94830  0.41350  0.51300  Biso   1.000  O
  C103     1.0000 0.04370  0.09330  0.48100  Biso   1.000  C
  H179     1.0000 0.11960  0.04940  0.45280  Biso   1.000  H
  H180     1.0000 0.12900  0.08700  0.51520  Biso   1.000  H
  H181     1.0000 0.02440  0.07680  0.44330  Biso   1.000  H
  H182     1.0000 0.05370  0.13700  0.47340  Biso   1.000  H
  C104     1.0000 0.10030  0.06000  0.49260  Biso   1.000  C
  H183     1.0000 0.03680  0.87540  0.38920  Biso   1.000  H
  C105     1.0000 0.94500  0.70900  0.45920  Biso   1.000  C
  H184     1.0000 0.90740  0.68780  0.46550  Biso   1.000  H
  C106     1.0000 0.94400  0.77040  0.44230  Biso   1.000  C
  H185     1.0000 0.90620  0.79170  0.43700  Biso   1.000  H
  O27      1.0000 0.94830  0.58650  0.48700  Biso   1.000  O
  C107     1.0000 0.04370  0.90670  0.51900  Biso   1.000  C
  H186     1.0000 0.11960  0.95060  0.54720  Biso   1.000  H
  H187     1.0000 0.12900  0.91300  0.48480  Biso   1.000  H
  H188     1.0000 0.02440  0.92320  0.55670  Biso   1.000  H
  H189     1.0000 0.05370  0.86300  0.52660  Biso   1.000  H
  C108     1.0000 0.10030  0.94000  0.50740  Biso   1.000  C
  H190     1.0000 0.96320  0.12460  0.38920  Biso   1.000  H
  C109     1.0000 0.05500  0.29100  0.45920  Biso   1.000  C
  H191     1.0000 0.09260  0.31220  0.46550  Biso   1.000  H
  C110     1.0000 0.05600  0.22960  0.44230  Biso   1.000  C
  H192     1.0000 0.09380  0.20830  0.43700  Biso   1.000  H
  O28      1.0000 0.05170  0.41350  0.48700  Biso   1.000  O
  C111     1.0000 0.95630  0.09330  0.51900  Biso   1.000  C
  H193     1.0000 0.88040  0.04940  0.54720  Biso   1.000  H
  H194     1.0000 0.87100  0.08700  0.48480  Biso   1.000  H
  H195     1.0000 0.97560  0.07680  0.55670  Biso   1.000  H
  H196     1.0000 0.94630  0.13700  0.52660  Biso   1.000  H
  C112     1.0000 0.89970  0.06000  0.50740  Biso   1.000  C
  H197     1.0000 0.61080  0.96320  0.87540  Biso   1.000  H
  C113     1.0000 0.54080  0.05500  0.70900  Biso   1.000  C
  H198     1.0000 0.53450  0.09260  0.68780  Biso   1.000  H
  C114     1.0000 0.55770  0.05600  0.77040  Biso   1.000  C
  H199     1.0000 0.56300  0.09380  0.79170  Biso   1.000  H
  O29      1.0000 0.51300  0.05170  0.58650  Biso   1.000  O
  C115     1.0000 0.48100  0.95630  0.90670  Biso   1.000  C
  H200     1.0000 0.45280  0.88040  0.95060  Biso   1.000  H
  H201     1.0000 0.51520  0.87100  0.91300  Biso   1.000  H
  H202     1.0000 0.44330  0.97560  0.92320  Biso   1.000  H
  H203     1.0000 0.47340  0.94630  0.86300  Biso   1.000  H
  C116     1.0000 0.49260  0.89970  0.94000  Biso   1.000  C
  H204     1.0000 0.61080  0.03680  0.12460  Biso   1.000  H
  C117     1.0000 0.54080  0.94500  0.29100  Biso   1.000  C
  H205     1.0000 0.53450  0.90740  0.31220  Biso   1.000  H
  C118     1.0000 0.55770  0.94400  0.22960  Biso   1.000  C
  H206     1.0000 0.56300  0.90620  0.20830  Biso   1.000  H
  O30      1.0000 0.51300  0.94830  0.41350  Biso   1.000  O
  C119     1.0000 0.48100  0.04370  0.09330  Biso   1.000  C
  H207     1.0000 0.45280  0.11960  0.04940  Biso   1.000  H
  H208     1.0000 0.51520  0.12900  0.08700  Biso   1.000  H
  H209     1.0000 0.44330  0.02440  0.07680  Biso   1.000  H
  H210     1.0000 0.47340  0.05370  0.13700  Biso   1.000  H
  C120     1.0000 0.49260  0.10030  0.06000  Biso   1.000  C
  H211     1.0000 0.38920  0.03680  0.87540  Biso   1.000  H
  C121     1.0000 0.45920  0.94500  0.70900  Biso   1.000  C
  H212     1.0000 0.46550  0.90740  0.68780  Biso   1.000  H
  C122     1.0000 0.44230  0.94400  0.77040  Biso   1.000  C
  H213     1.0000 0.43700  0.90620  0.79170  Biso   1.000  H
  O31      1.0000 0.48700  0.94830  0.58650  Biso   1.000  O
  C123     1.0000 0.51900  0.04370  0.90670  Biso   1.000  C
  H214     1.0000 0.54720  0.11960  0.95060  Biso   1.000  H
  H215     1.0000 0.48480  0.12900  0.91300  Biso   1.000  H
  H216     1.0000 0.55670  0.02440  0.92320  Biso   1.000  H
  H217     1.0000 0.52660  0.05370  0.86300  Biso   1.000  H
  C124     1.0000 0.50740  0.10030  0.94000  Biso   1.000  C
  H218     1.0000 0.38920  0.96320  0.12460  Biso   1.000  H
  C125     1.0000 0.45920  0.05500  0.29100  Biso   1.000  C
  H219     1.0000 0.46550  0.09260  0.31220  Biso   1.000  H
  C126     1.0000 0.44230  0.05600  0.22960  Biso   1.000  C
  H220     1.0000 0.43700  0.09380  0.20830  Biso   1.000  H
  O32      1.0000 0.48700  0.05170  0.41350  Biso   1.000  O
  C127     1.0000 0.51900  0.95630  0.09330  Biso   1.000  C
  H221     1.0000 0.54720  0.88040  0.04940  Biso   1.000  H
  H222     1.0000 0.48480  0.87100  0.08700  Biso   1.000  H
  H223     1.0000 0.55670  0.97560  0.07680  Biso   1.000  H
  H224     1.0000 0.52660  0.94630  0.13700  Biso   1.000  H
  C128     1.0000 0.50740  0.89970  0.06000  Biso   1.000  C
  H225     1.0000 0.87540  0.61080  0.96320  Biso   1.000  H
  C129     1.0000 0.70900  0.54080  0.05500  Biso   1.000  C
  H226     1.0000 0.68780  0.53450  0.09260  Biso   1.000  H
  C130     1.0000 0.77040  0.55770  0.05600  Biso   1.000  C
  H227     1.0000 0.79170  0.56300  0.09380  Biso   1.000  H
  O33      1.0000 0.58650  0.51300  0.05170  Biso   1.000  O
  C131     1.0000 0.90670  0.48100  0.95630  Biso   1.000  C
  H228     1.0000 0.95060  0.45280  0.88040  Biso   1.000  H
  H229     1.0000 0.91300  0.51520  0.87100  Biso   1.000  H
  H230     1.0000 0.92320  0.44330  0.97560  Biso   1.000  H
  H231     1.0000 0.86300  0.47340  0.94630  Biso   1.000  H
  C132     1.0000 0.94000  0.49260  0.89970  Biso   1.000  C
  H232     1.0000 0.12460  0.61080  0.03680  Biso   1.000  H
  C133     1.0000 0.29100  0.54080  0.94500  Biso   1.000  C
  H233     1.0000 0.31220  0.53450  0.90740  Biso   1.000  H
  C134     1.0000 0.22960  0.55770  0.94400  Biso   1.000  C
  H234     1.0000 0.20830  0.56300  0.90620  Biso   1.000  H
  O34      1.0000 0.41350  0.51300  0.94830  Biso   1.000  O
  C135     1.0000 0.09330  0.48100  0.04370  Biso   1.000  C
  H235     1.0000 0.04940  0.45280  0.11960  Biso   1.000  H
  H236     1.0000 0.08700  0.51520  0.12900  Biso   1.000  H
  H237     1.0000 0.07680  0.44330  0.02440  Biso   1.000  H
  H238     1.0000 0.13700  0.47340  0.05370  Biso   1.000  H
  C136     1.0000 0.06000  0.49260  0.10030  Biso   1.000  C
  H239     1.0000 0.87540  0.38920  0.03680  Biso   1.000  H
  C137     1.0000 0.70900  0.45920  0.94500  Biso   1.000  C
  H240     1.0000 0.68780  0.46550  0.90740  Biso   1.000  H
  C138     1.0000 0.77040  0.44230  0.94400  Biso   1.000  C
  H241     1.0000 0.79170  0.43700  0.90620  Biso   1.000  H
  O35      1.0000 0.58650  0.48700  0.94830  Biso   1.000  O
  C139     1.0000 0.90670  0.51900  0.04370  Biso   1.000  C
  H242     1.0000 0.95060  0.54720  0.11960  Biso   1.000  H
  H243     1.0000 0.91300  0.48480  0.12900  Biso   1.000  H
  H244     1.0000 0.92320  0.55670  0.02440  Biso   1.000  H
  H245     1.0000 0.86300  0.52660  0.05370  Biso   1.000  H
  C140     1.0000 0.94000  0.50740  0.10030  Biso   1.000  C
  H246     1.0000 0.12460  0.38920  0.96320  Biso   1.000  H
  C141     1.0000 0.29100  0.45920  0.05500  Biso   1.000  C
  H247     1.0000 0.31220  0.46550  0.09260  Biso   1.000  H
  C142     1.0000 0.22960  0.44230  0.05600  Biso   1.000  C
  H248     1.0000 0.20830  0.43700  0.09380  Biso   1.000  H
  O36      1.0000 0.41350  0.48700  0.05170  Biso   1.000  O
  C143     1.0000 0.09330  0.51900  0.95630  Biso   1.000  C
  H249     1.0000 0.04940  0.54720  0.88040  Biso   1.000  H
  H250     1.0000 0.08700  0.48480  0.87100  Biso   1.000  H
  H251     1.0000 0.07680  0.55670  0.97560  Biso   1.000  H
  H252     1.0000 0.13700  0.52660  0.94630  Biso   1.000  H
  C144     1.0000 0.06000  0.50740  0.89970  Biso   1.000  C
  H253     1.0000 0.87540  0.96320  0.38920  Biso   1.000  H
  C145     1.0000 0.70900  0.05500  0.45920  Biso   1.000  C
  H254     1.0000 0.68780  0.09260  0.46550  Biso   1.000  H
  C146     1.0000 0.77040  0.05600  0.44230  Biso   1.000  C
  H255     1.0000 0.79170  0.09380  0.43700  Biso   1.000  H
  O37      1.0000 0.58650  0.05170  0.48700  Biso   1.000  O
  C147     1.0000 0.90670  0.95630  0.51900  Biso   1.000  C
  H256     1.0000 0.95060  0.88040  0.54720  Biso   1.000  H
  H257     1.0000 0.91300  0.87100  0.48480  Biso   1.000  H
  H258     1.0000 0.92320  0.97560  0.55670  Biso   1.000  H
  H259     1.0000 0.86300  0.94630  0.52660  Biso   1.000  H
  C148     1.0000 0.94000  0.89970  0.50740  Biso   1.000  C
  H260     1.0000 0.12460  0.03680  0.38920  Biso   1.000  H
  C149     1.0000 0.29100  0.94500  0.45920  Biso   1.000  C
  H261     1.0000 0.31220  0.90740  0.46550  Biso   1.000  H
  C150     1.0000 0.22960  0.94400  0.44230  Biso   1.000  C
  H262     1.0000 0.20830  0.90620  0.43700  Biso   1.000  H
  O38      1.0000 0.41350  0.94830  0.48700  Biso   1.000  O
  C151     1.0000 0.09330  0.04370  0.51900  Biso   1.000  C
  H263     1.0000 0.04940  0.11960  0.54720  Biso   1.000  H
  H264     1.0000 0.08700  0.12900  0.48480  Biso   1.000  H
  H265     1.0000 0.07680  0.02440  0.55670  Biso   1.000  H
  H266     1.0000 0.13700  0.05370  0.52660  Biso   1.000  H
  C152     1.0000 0.06000  0.10030  0.50740  Biso   1.000  C
  H267     1.0000 0.87540  0.03680  0.61080  Biso   1.000  H
  C153     1.0000 0.70900  0.94500  0.54080  Biso   1.000  C
  H268     1.0000 0.68780  0.90740  0.53450  Biso   1.000  H
  C154     1.0000 0.77040  0.94400  0.55770  Biso   1.000  C
  H269     1.0000 0.79170  0.90620  0.56300  Biso   1.000  H
  O39      1.0000 0.58650  0.94830  0.51300  Biso   1.000  O
  C155     1.0000 0.90670  0.04370  0.48100  Biso   1.000  C
  H270     1.0000 0.95060  0.11960  0.45280  Biso   1.000  H
  H271     1.0000 0.91300  0.12900  0.51520  Biso   1.000  H
  H272     1.0000 0.92320  0.02440  0.44330  Biso   1.000  H
  H273     1.0000 0.86300  0.05370  0.47340  Biso   1.000  H
  C156     1.0000 0.94000  0.10030  0.49260  Biso   1.000  C
  H274     1.0000 0.12460  0.96320  0.61080  Biso   1.000  H
  C157     1.0000 0.29100  0.05500  0.54080  Biso   1.000  C
  H275     1.0000 0.31220  0.09260  0.53450  Biso   1.000  H
  C158     1.0000 0.22960  0.05600  0.55770  Biso   1.000  C
  H276     1.0000 0.20830  0.09380  0.56300  Biso   1.000  H
  O40      1.0000 0.41350  0.05170  0.51300  Biso   1.000  O
  C159     1.0000 0.09330  0.95630  0.48100  Biso   1.000  C
  H277     1.0000 0.04940  0.88040  0.45280  Biso   1.000  H
  H278     1.0000 0.08700  0.87100  0.51520  Biso   1.000  H
  H279     1.0000 0.07680  0.97560  0.44330  Biso   1.000  H
  H280     1.0000 0.13700  0.94630  0.47340  Biso   1.000  H
  C160     1.0000 0.06000  0.89970  0.49260  Biso   1.000  C
  H281     1.0000 0.96320  0.61080  0.12460  Biso   1.000  H
  C161     1.0000 0.05500  0.54080  0.29100  Biso   1.000  C
  H282     1.0000 0.09260  0.53450  0.31220  Biso   1.000  H
  C162     1.0000 0.05600  0.55770  0.22960  Biso   1.000  C
  H283     1.0000 0.09380  0.56300  0.20830  Biso   1.000  H
  O41      1.0000 0.05170  0.51300  0.41350  Biso   1.000  O
  C163     1.0000 0.95630  0.48100  0.09330  Biso   1.000  C
  H284     1.0000 0.88040  0.45280  0.04940  Biso   1.000  H
  H285     1.0000 0.87100  0.51520  0.08700  Biso   1.000  H
  H286     1.0000 0.97560  0.44330  0.07680  Biso   1.000  H
  H287     1.0000 0.94630  0.47340  0.13700  Biso   1.000  H
  C164     1.0000 0.89970  0.49260  0.06000  Biso   1.000  C
  H288     1.0000 0.03680  0.61080  0.87540  Biso   1.000  H
  C165     1.0000 0.94500  0.54080  0.70900  Biso   1.000  C
  H289     1.0000 0.90740  0.53450  0.68780  Biso   1.000  H
  C166     1.0000 0.94400  0.55770  0.77040  Biso   1.000  C
  H290     1.0000 0.90620  0.56300  0.79170  Biso   1.000  H
  O42      1.0000 0.94830  0.51300  0.58650  Biso   1.000  O
  C167     1.0000 0.04370  0.48100  0.90670  Biso   1.000  C
  H291     1.0000 0.11960  0.45280  0.95060  Biso   1.000  H
  H292     1.0000 0.12900  0.51520  0.91300  Biso   1.000  H
  H293     1.0000 0.02440  0.44330  0.92320  Biso   1.000  H
  H294     1.0000 0.05370  0.47340  0.86300  Biso   1.000  H
  C168     1.0000 0.10030  0.49260  0.94000  Biso   1.000  C
  H295     1.0000 0.03680  0.38920  0.12460  Biso   1.000  H
  C169     1.0000 0.94500  0.45920  0.29100  Biso   1.000  C
  H296     1.0000 0.90740  0.46550  0.31220  Biso   1.000  H
  C170     1.0000 0.94400  0.44230  0.22960  Biso   1.000  C
  H297     1.0000 0.90620  0.43700  0.20830  Biso   1.000  H
  O43      1.0000 0.94830  0.48700  0.41350  Biso   1.000  O
  C171     1.0000 0.04370  0.51900  0.09330  Biso   1.000  C
  H298     1.0000 0.11960  0.54720  0.04940  Biso   1.000  H
  H299     1.0000 0.12900  0.48480  0.08700  Biso   1.000  H
  H300     1.0000 0.02440  0.55670  0.07680  Biso   1.000  H
  H301     1.0000 0.05370  0.52660  0.13700  Biso   1.000  H
  C172     1.0000 0.10030  0.50740  0.06000  Biso   1.000  C
  H302     1.0000 0.96320  0.38920  0.87540  Biso   1.000  H
  C173     1.0000 0.05500  0.45920  0.70900  Biso   1.000  C
  H303     1.0000 0.09260  0.46550  0.68780  Biso   1.000  H
  C174     1.0000 0.05600  0.44230  0.77040  Biso   1.000  C
  H304     1.0000 0.09380  0.43700  0.79170  Biso   1.000  H
  O44      1.0000 0.05170  0.48700  0.58650  Biso   1.000  O
  C175     1.0000 0.95630  0.51900  0.90670  Biso   1.000  C
  H305     1.0000 0.88040  0.54720  0.95060  Biso   1.000  H
  H306     1.0000 0.87100  0.48480  0.91300  Biso   1.000  H
  H307     1.0000 0.97560  0.55670  0.92320  Biso   1.000  H
  H308     1.0000 0.94630  0.52660  0.86300  Biso   1.000  H
  C176     1.0000 0.89970  0.50740  0.94000  Biso   1.000  C
  H309     1.0000 0.61080  0.87540  0.03680  Biso   1.000  H
  C177     1.0000 0.54080  0.70900  0.94500  Biso   1.000  C
  H310     1.0000 0.53450  0.68780  0.90740  Biso   1.000  H
  C178     1.0000 0.55770  0.77040  0.94400  Biso   1.000  C
  H311     1.0000 0.56300  0.79170  0.90620  Biso   1.000  H
  O45      1.0000 0.51300  0.58650  0.94830  Biso   1.000  O
  C179     1.0000 0.48100  0.90670  0.04370  Biso   1.000  C
  H312     1.0000 0.45280  0.95060  0.11960  Biso   1.000  H
  H313     1.0000 0.51520  0.91300  0.12900  Biso   1.000  H
  H314     1.0000 0.44330  0.92320  0.02440  Biso   1.000  H
  H315     1.0000 0.47340  0.86300  0.05370  Biso   1.000  H
  C180     1.0000 0.49260  0.94000  0.10030  Biso   1.000  C
  H316     1.0000 0.61080  0.12460  0.96320  Biso   1.000  H
  C181     1.0000 0.54080  0.29100  0.05500  Biso   1.000  C
  H317     1.0000 0.53450  0.31220  0.09260  Biso   1.000  H
  C182     1.0000 0.55770  0.22960  0.05600  Biso   1.000  C
  H318     1.0000 0.56300  0.20830  0.09380  Biso   1.000  H
  O46      1.0000 0.51300  0.41350  0.05170  Biso   1.000  O
  C183     1.0000 0.48100  0.09330  0.95630  Biso   1.000  C
  H319     1.0000 0.45280  0.04940  0.88040  Biso   1.000  H
  H320     1.0000 0.51520  0.08700  0.87100  Biso   1.000  H
  H321     1.0000 0.44330  0.07680  0.97560  Biso   1.000  H
  H322     1.0000 0.47340  0.13700  0.94630  Biso   1.000  H
  C184     1.0000 0.49260  0.06000  0.89970  Biso   1.000  C
  H323     1.0000 0.38920  0.87540  0.96320  Biso   1.000  H
  C185     1.0000 0.45920  0.70900  0.05500  Biso   1.000  C
  H324     1.0000 0.46550  0.68780  0.09260  Biso   1.000  H
  C186     1.0000 0.44230  0.77040  0.05600  Biso   1.000  C
  H325     1.0000 0.43700  0.79170  0.09380  Biso   1.000  H
  O47      1.0000 0.48700  0.58650  0.05170  Biso   1.000  O
  C187     1.0000 0.51900  0.90670  0.95630  Biso   1.000  C
  H326     1.0000 0.54720  0.95060  0.88040  Biso   1.000  H
  H327     1.0000 0.48480  0.91300  0.87100  Biso   1.000  H
  H328     1.0000 0.55670  0.92320  0.97560  Biso   1.000  H
  H329     1.0000 0.52660  0.86300  0.94630  Biso   1.000  H
  C188     1.0000 0.50740  0.94000  0.89970  Biso   1.000  C
  H330     1.0000 0.38920  0.12460  0.03680  Biso   1.000  H
  C189     1.0000 0.45920  0.29100  0.94500  Biso   1.000  C
  H331     1.0000 0.46550  0.31220  0.90740  Biso   1.000  H
  C190     1.0000 0.44230  0.22960  0.94400  Biso   1.000  C
  H332     1.0000 0.43700  0.20830  0.90620  Biso   1.000  H
  O48      1.0000 0.48700  0.41350  0.94830  Biso   1.000  O
  C191     1.0000 0.51900  0.09330  0.04370  Biso   1.000  C
  H333     1.0000 0.54720  0.04940  0.11960  Biso   1.000  H
  H334     1.0000 0.48480  0.08700  0.12900  Biso   1.000  H
  H335     1.0000 0.55670  0.07680  0.02440  Biso   1.000  H
  H336     1.0000 0.52660  0.13700  0.05370  Biso   1.000  H
  C192     1.0000 0.50740  0.06000  0.10030  Biso   1.000  C
  Cu1      1.0000 0.93888  0.50000  0.50000  Biso   1.000  Cu
  Cu2      1.0000 0.06112  0.50000  0.50000  Biso   1.000  Cu
  Cu3      1.0000 0.50000  0.93888  0.50000  Biso   1.000  Cu
  Cu4      1.0000 0.50000  0.06112  0.50000  Biso   1.000  Cu
  Cu5      1.0000 0.50000  0.50000  0.93888  Biso   1.000  Cu
  Cu6      1.0000 0.50000  0.50000  0.06112  Biso   1.000  Cu
  C193     1.0000 0.00000  0.38740  0.48500  Biso   1.000  C
  N1       1.0000 0.00000  0.09000  0.46960  Biso   1.000  N
  C194     1.0000 0.00000  0.13300  0.41470  Biso   1.000  C
  C195     1.0000 0.00000  0.20000  0.43320  Biso   1.000  C
  C196     1.0000 0.00000  0.32190  0.46710  Biso   1.000  C
  C197     1.0000 0.00000  0.61260  0.48500  Biso   1.000  C
  N2       1.0000 0.00000  0.91000  0.46960  Biso   1.000  N
  C198     1.0000 0.00000  0.86700  0.41470  Biso   1.000  C
  C199     1.0000 0.00000  0.80000  0.43320  Biso   1.000  C
  C200     1.0000 0.00000  0.67810  0.46710  Biso   1.000  C
  C201     1.0000 0.00000  0.38740  0.51500  Biso   1.000  C
  N3       1.0000 0.00000  0.09000  0.53040  Biso   1.000  N
  C202     1.0000 0.00000  0.13300  0.58530  Biso   1.000  C
  C203     1.0000 0.00000  0.20000  0.56680  Biso   1.000  C
  C204     1.0000 0.00000  0.32190  0.53290  Biso   1.000  C
  C205     1.0000 0.00000  0.61260  0.51500  Biso   1.000  C
  N4       1.0000 0.00000  0.91000  0.53040  Biso   1.000  N
  C206     1.0000 0.00000  0.86700  0.58530  Biso   1.000  C
  C207     1.0000 0.00000  0.80000  0.56680  Biso   1.000  C
  C208     1.0000 0.00000  0.67810  0.53290  Biso   1.000  C
  C209     1.0000 0.48500  0.00000  0.38740  Biso   1.000  C
  N5       1.0000 0.46960  0.00000  0.09000  Biso   1.000  N
  C210     1.0000 0.41470  0.00000  0.13300  Biso   1.000  C
  C211     1.0000 0.43320  0.00000  0.20000  Biso   1.000  C
  C212     1.0000 0.46710  0.00000  0.32190  Biso   1.000  C
  C213     1.0000 0.48500  0.00000  0.61260  Biso   1.000  C
  N6       1.0000 0.46960  0.00000  0.91000  Biso   1.000  N
  C214     1.0000 0.41470  0.00000  0.86700  Biso   1.000  C
  C215     1.0000 0.43320  0.00000  0.80000  Biso   1.000  C
  C216     1.0000 0.46710  0.00000  0.67810  Biso   1.000  C
  C217     1.0000 0.51500  0.00000  0.38740  Biso   1.000  C
  N7       1.0000 0.53040  0.00000  0.09000  Biso   1.000  N
  C218     1.0000 0.58530  0.00000  0.13300  Biso   1.000  C
  C219     1.0000 0.56680  0.00000  0.20000  Biso   1.000  C
  C220     1.0000 0.53290  0.00000  0.32190  Biso   1.000  C
  C221     1.0000 0.51500  0.00000  0.61260  Biso   1.000  C
  N8       1.0000 0.53040  0.00000  0.91000  Biso   1.000  N
  C222     1.0000 0.58530  0.00000  0.86700  Biso   1.000  C
  C223     1.0000 0.56680  0.00000  0.80000  Biso   1.000  C
  C224     1.0000 0.53290  0.00000  0.67810  Biso   1.000  C
  C225     1.0000 0.38740  0.48500  0.00000  Biso   1.000  C
  N9       1.0000 0.09000  0.46960  0.00000  Biso   1.000  N
  C226     1.0000 0.13300  0.41470  0.00000  Biso   1.000  C
  C227     1.0000 0.20000  0.43320  0.00000  Biso   1.000  C
  C228     1.0000 0.32190  0.46710  0.00000  Biso   1.000  C
  C229     1.0000 0.61260  0.48500  0.00000  Biso   1.000  C
  N10      1.0000 0.91000  0.46960  0.00000  Biso   1.000  N
  C230     1.0000 0.86700  0.41470  0.00000  Biso   1.000  C
  C231     1.0000 0.80000  0.43320  0.00000  Biso   1.000  C
  C232     1.0000 0.67810  0.46710  0.00000  Biso   1.000  C
  C233     1.0000 0.38740  0.51500  0.00000  Biso   1.000  C
  N11      1.0000 0.09000  0.53040  0.00000  Biso   1.000  N
  C234     1.0000 0.13300  0.58530  0.00000  Biso   1.000  C
  C235     1.0000 0.20000  0.56680  0.00000  Biso   1.000  C
  C236     1.0000 0.32190  0.53290  0.00000  Biso   1.000  C
  C237     1.0000 0.61260  0.51500  0.00000  Biso   1.000  C
  N12      1.0000 0.91000  0.53040  0.00000  Biso   1.000  N
  C238     1.0000 0.86700  0.58530  0.00000  Biso   1.000  C
  C239     1.0000 0.80000  0.56680  0.00000  Biso   1.000  C
  C240     1.0000 0.67810  0.53290  0.00000  Biso   1.000  C
  C241     1.0000 0.38740  0.00000  0.51500  Biso   1.000  C
  N13      1.0000 0.09000  0.00000  0.53040  Biso   1.000  N
  C242     1.0000 0.13300  0.00000  0.58530  Biso   1.000  C
  C243     1.0000 0.20000  0.00000  0.56680  Biso   1.000  C
  C244     1.0000 0.32190  0.00000  0.53290  Biso   1.000  C
  C245     1.0000 0.61260  0.00000  0.51500  Biso   1.000  C
  N14      1.0000 0.91000  0.00000  0.53040  Biso   1.000  N
  C246     1.0000 0.86700  0.00000  0.58530  Biso   1.000  C
  C247     1.0000 0.80000  0.00000  0.56680  Biso   1.000  C
  C248     1.0000 0.67810  0.00000  0.53290  Biso   1.000  C
  C249     1.0000 0.38740  0.00000  0.48500  Biso   1.000  C
  N15      1.0000 0.09000  0.00000  0.46960  Biso   1.000  N
  C250     1.0000 0.13300  0.00000  0.41470  Biso   1.000  C
  C251     1.0000 0.20000  0.00000  0.43320  Biso   1.000  C
  C252     1.0000 0.32190  0.00000  0.46710  Biso   1.000  C
  C253     1.0000 0.61260  0.00000  0.48500  Biso   1.000  C
  N16      1.0000 0.91000  0.00000  0.46960  Biso   1.000  N
  C254     1.0000 0.86700  0.00000  0.41470  Biso   1.000  C
  C255     1.0000 0.80000  0.00000  0.43320  Biso   1.000  C
  C256     1.0000 0.67810  0.00000  0.46710  Biso   1.000  C
  C257     1.0000 0.00000  0.48500  0.61260  Biso   1.000  C
  N17      1.0000 0.00000  0.46960  0.91000  Biso   1.000  N
  C258     1.0000 0.00000  0.41470  0.86700  Biso   1.000  C
  C259     1.0000 0.00000  0.43320  0.80000  Biso   1.000  C
  C260     1.0000 0.00000  0.46710  0.67810  Biso   1.000  C
  C261     1.0000 0.00000  0.48500  0.38740  Biso   1.000  C
  N18      1.0000 0.00000  0.46960  0.09000  Biso   1.000  N
  C262     1.0000 0.00000  0.41470  0.13300  Biso   1.000  C
  C263     1.0000 0.00000  0.43320  0.20000  Biso   1.000  C
  C264     1.0000 0.00000  0.46710  0.32190  Biso   1.000  C
  C265     1.0000 0.00000  0.51500  0.61260  Biso   1.000  C
  N19      1.0000 0.00000  0.53040  0.91000  Biso   1.000  N
  C266     1.0000 0.00000  0.58530  0.86700  Biso   1.000  C
  C267     1.0000 0.00000  0.56680  0.80000  Biso   1.000  C
  C268     1.0000 0.00000  0.53290  0.67810  Biso   1.000  C
  C269     1.0000 0.00000  0.51500  0.38740  Biso   1.000  C
  N20      1.0000 0.00000  0.53040  0.09000  Biso   1.000  N
  C270     1.0000 0.00000  0.58530  0.13300  Biso   1.000  C
  C271     1.0000 0.00000  0.56680  0.20000  Biso   1.000  C
  C272     1.0000 0.00000  0.53290  0.32190  Biso   1.000  C
  C273     1.0000 0.48500  0.38740  0.00000  Biso   1.000  C
  N21      1.0000 0.46960  0.09000  0.00000  Biso   1.000  N
  C274     1.0000 0.41470  0.13300  0.00000  Biso   1.000  C
  C275     1.0000 0.43320  0.20000  0.00000  Biso   1.000  C
  C276     1.0000 0.46710  0.32190  0.00000  Biso   1.000  C
  C277     1.0000 0.48500  0.61260  0.00000  Biso   1.000  C
  N22      1.0000 0.46960  0.91000  0.00000  Biso   1.000  N
  C278     1.0000 0.41470  0.86700  0.00000  Biso   1.000  C
  C279     1.0000 0.43320  0.80000  0.00000  Biso   1.000  C
  C280     1.0000 0.46710  0.67810  0.00000  Biso   1.000  C
  C281     1.0000 0.51500  0.38740  0.00000  Biso   1.000  C
  N23      1.0000 0.53040  0.09000  0.00000  Biso   1.000  N
  C282     1.0000 0.58530  0.13300  0.00000  Biso   1.000  C
  C283     1.0000 0.56680  0.20000  0.00000  Biso   1.000  C
  C284     1.0000 0.53290  0.32190  0.00000  Biso   1.000  C
  C285     1.0000 0.51500  0.61260  0.00000  Biso   1.000  C
  N24      1.0000 0.53040  0.91000  0.00000  Biso   1.000  N
  C286     1.0000 0.58530  0.86700  0.00000  Biso   1.000  C
  C287     1.0000 0.56680  0.80000  0.00000  Biso   1.000  C
  C288     1.0000 0.53290  0.67810  0.00000  Biso   1.000  C
  Cu7      1.0000 0.00000  0.00000  0.44440  Biso   1.000  Cu
  Cu8      1.0000 0.00000  0.00000  0.55560  Biso   1.000  Cu
  Cu9      1.0000 0.44440  0.00000  0.00000  Biso   1.000  Cu
  Cu10     1.0000 0.55560  0.00000  0.00000  Biso   1.000  Cu
  Cu11     1.0000 0.00000  0.44440  0.00000  Biso   1.000  Cu
  Cu12     1.0000 0.00000  0.55560  0.00000  Biso   1.000  Cu
