data_image0
_cell_length_a       44.588
_cell_length_b       44.588
_cell_length_c       44.588
_cell_angle_alpha    90
_cell_angle_beta     90
_cell_angle_gamma    90

_symmetry_space_group_name_H-M    "P 1"
_symmetry_int_tables_number       1

loop_
  _symmetry_equiv_pos_as_xyz
  'x, y, z'

loop_
  _atom_site_label
  _atom_site_occupancy
  _atom_site_fract_x
  _atom_site_fract_y
  _atom_site_fract_z
  _atom_site_thermal_displace_type
  _atom_site_B_iso_or_equiv
  _atom_site_type_symbol
  O1       1.0000 0.35738  0.96918  0.18628  Biso   1.000  O
  C1       1.0000 0.39709  0.93519  0.19025  Biso   1.000  C
  C2       1.0000 0.38087  0.95974  0.17460  Biso   1.000  C
  C3       1.0000 0.37178  0.90590  0.28210  Biso   1.000  C
  H1       1.0000 0.35950  0.92230  0.27650  Biso   1.000  H
  N1       1.0000 0.36915  0.89040  0.30802  Biso   1.000  N
  O2       1.0000 0.39242  0.96920  0.15070  Biso   1.000  O
  C4       1.0000 0.38994  0.92690  0.22080  Biso   1.000  C
  H2       1.0000 0.37550  0.93820  0.23160  Biso   1.000  H
  C5       1.0000 0.38330  0.92200  0.21430  Biso   1.000  C
  H3       1.0000 0.36530  0.93010  0.22230  Biso   1.000  H
  C6       1.0000 0.36050  0.89330  0.27240  Biso   1.000  C
  H4       1.0000 0.34710  0.90890  0.26670  Biso   1.000  H
  N2       1.0000 0.35720  0.87720  0.29620  Biso   1.000  N
  O3       1.0000 0.35738  0.46918  0.68628  Biso   1.000  O
  C7       1.0000 0.39709  0.43519  0.69025  Biso   1.000  C
  C8       1.0000 0.38087  0.45974  0.67460  Biso   1.000  C
  C9       1.0000 0.37178  0.40590  0.78210  Biso   1.000  C
  H5       1.0000 0.35950  0.42230  0.77650  Biso   1.000  H
  N3       1.0000 0.36915  0.39040  0.80802  Biso   1.000  N
  O4       1.0000 0.39242  0.46920  0.65070  Biso   1.000  O
  C10      1.0000 0.38994  0.42690  0.72080  Biso   1.000  C
  H6       1.0000 0.37550  0.43820  0.73160  Biso   1.000  H
  C11      1.0000 0.38330  0.42200  0.71430  Biso   1.000  C
  H7       1.0000 0.36530  0.43010  0.72230  Biso   1.000  H
  C12      1.0000 0.36050  0.39330  0.77240  Biso   1.000  C
  H8       1.0000 0.34710  0.40890  0.76670  Biso   1.000  H
  N4       1.0000 0.35720  0.37720  0.79620  Biso   1.000  N
  O5       1.0000 0.85738  0.96918  0.68628  Biso   1.000  O
  C13      1.0000 0.89709  0.93519  0.69025  Biso   1.000  C
  C14      1.0000 0.88087  0.95974  0.67460  Biso   1.000  C
  C15      1.0000 0.87178  0.90590  0.78210  Biso   1.000  C
  H9       1.0000 0.85950  0.92230  0.77650  Biso   1.000  H
  N5       1.0000 0.86915  0.89040  0.80802  Biso   1.000  N
  O6       1.0000 0.89242  0.96920  0.65070  Biso   1.000  O
  C16      1.0000 0.88994  0.92690  0.72080  Biso   1.000  C
  H10      1.0000 0.87550  0.93820  0.73160  Biso   1.000  H
  C17      1.0000 0.88330  0.92200  0.71430  Biso   1.000  C
  H11      1.0000 0.86530  0.93010  0.72230  Biso   1.000  H
  C18      1.0000 0.86050  0.89330  0.77240  Biso   1.000  C
  H12      1.0000 0.84710  0.90890  0.76670  Biso   1.000  H
  N6       1.0000 0.85720  0.87720  0.79620  Biso   1.000  N
  O7       1.0000 0.85738  0.46918  0.18628  Biso   1.000  O
  C19      1.0000 0.89709  0.43519  0.19025  Biso   1.000  C
  C20      1.0000 0.88087  0.45974  0.17460  Biso   1.000  C
  C21      1.0000 0.87178  0.40590  0.28210  Biso   1.000  C
  H13      1.0000 0.85950  0.42230  0.27650  Biso   1.000  H
  N7       1.0000 0.86915  0.39040  0.30802  Biso   1.000  N
  O8       1.0000 0.89242  0.46920  0.15070  Biso   1.000  O
  C22      1.0000 0.88994  0.42690  0.22080  Biso   1.000  C
  H14      1.0000 0.87550  0.43820  0.23160  Biso   1.000  H
  C23      1.0000 0.88330  0.42200  0.21430  Biso   1.000  C
  H15      1.0000 0.86530  0.43010  0.22230  Biso   1.000  H
  C24      1.0000 0.86050  0.39330  0.27240  Biso   1.000  C
  H16      1.0000 0.84710  0.40890  0.26670  Biso   1.000  H
  N8       1.0000 0.85720  0.37720  0.29620  Biso   1.000  N
  O9       1.0000 0.64262  0.03082  0.18628  Biso   1.000  O
  C25      1.0000 0.60291  0.06481  0.19025  Biso   1.000  C
  C26      1.0000 0.61913  0.04026  0.17460  Biso   1.000  C
  C27      1.0000 0.62822  0.09410  0.28210  Biso   1.000  C
  H17      1.0000 0.64050  0.07770  0.27650  Biso   1.000  H
  N9       1.0000 0.63085  0.10960  0.30802  Biso   1.000  N
  O10      1.0000 0.60758  0.03080  0.15070  Biso   1.000  O
  C28      1.0000 0.61006  0.07310  0.22080  Biso   1.000  C
  H18      1.0000 0.62450  0.06180  0.23160  Biso   1.000  H
  C29      1.0000 0.61670  0.07800  0.21430  Biso   1.000  C
  H19      1.0000 0.63470  0.06990  0.22230  Biso   1.000  H
  C30      1.0000 0.63950  0.10670  0.27240  Biso   1.000  C
  H20      1.0000 0.65290  0.09110  0.26670  Biso   1.000  H
  N10      1.0000 0.64280  0.12280  0.29620  Biso   1.000  N
  O11      1.0000 0.64262  0.53082  0.68628  Biso   1.000  O
  C31      1.0000 0.60291  0.56481  0.69025  Biso   1.000  C
  C32      1.0000 0.61913  0.54026  0.67460  Biso   1.000  C
  C33      1.0000 0.62822  0.59410  0.78210  Biso   1.000  C
  H21      1.0000 0.64050  0.57770  0.77650  Biso   1.000  H
  N11      1.0000 0.63085  0.60960  0.80802  Biso   1.000  N
  O12      1.0000 0.60758  0.53080  0.65070  Biso   1.000  O
  C34      1.0000 0.61006  0.57310  0.72080  Biso   1.000  C
  H22      1.0000 0.62450  0.56180  0.73160  Biso   1.000  H
  C35      1.0000 0.61670  0.57800  0.71430  Biso   1.000  C
  H23      1.0000 0.63470  0.56990  0.72230  Biso   1.000  H
  C36      1.0000 0.63950  0.60670  0.77240  Biso   1.000  C
  H24      1.0000 0.65290  0.59110  0.76670  Biso   1.000  H
  N12      1.0000 0.64280  0.62280  0.79620  Biso   1.000  N
  O13      1.0000 0.14262  0.03082  0.68628  Biso   1.000  O
  C37      1.0000 0.10291  0.06481  0.69025  Biso   1.000  C
  C38      1.0000 0.11913  0.04026  0.67460  Biso   1.000  C
  C39      1.0000 0.12822  0.09410  0.78210  Biso   1.000  C
  H25      1.0000 0.14050  0.07770  0.77650  Biso   1.000  H
  N13      1.0000 0.13085  0.10960  0.80802  Biso   1.000  N
  O14      1.0000 0.10758  0.03080  0.65070  Biso   1.000  O
  C40      1.0000 0.11006  0.07310  0.72080  Biso   1.000  C
  H26      1.0000 0.12450  0.06180  0.73160  Biso   1.000  H
  C41      1.0000 0.11670  0.07800  0.71430  Biso   1.000  C
  H27      1.0000 0.13470  0.06990  0.72230  Biso   1.000  H
  C42      1.0000 0.13950  0.10670  0.77240  Biso   1.000  C
  H28      1.0000 0.15290  0.09110  0.76670  Biso   1.000  H
  N14      1.0000 0.14280  0.12280  0.79620  Biso   1.000  N
  O15      1.0000 0.14262  0.53082  0.18628  Biso   1.000  O
  C43      1.0000 0.10291  0.56481  0.19025  Biso   1.000  C
  C44      1.0000 0.11913  0.54026  0.17460  Biso   1.000  C
  C45      1.0000 0.12822  0.59410  0.28210  Biso   1.000  C
  H29      1.0000 0.14050  0.57770  0.27650  Biso   1.000  H
  N15      1.0000 0.13085  0.60960  0.30802  Biso   1.000  N
  O16      1.0000 0.10758  0.53080  0.15070  Biso   1.000  O
  C46      1.0000 0.11006  0.57310  0.22080  Biso   1.000  C
  H30      1.0000 0.12450  0.56180  0.23160  Biso   1.000  H
  C47      1.0000 0.11670  0.57800  0.21430  Biso   1.000  C
  H31      1.0000 0.13470  0.56990  0.22230  Biso   1.000  H
  C48      1.0000 0.13950  0.60670  0.27240  Biso   1.000  C
  H32      1.0000 0.15290  0.59110  0.26670  Biso   1.000  H
  N16      1.0000 0.14280  0.62280  0.29620  Biso   1.000  N
  O17      1.0000 0.64262  0.96918  0.81372  Biso   1.000  O
  C49      1.0000 0.60291  0.93519  0.80975  Biso   1.000  C
  C50      1.0000 0.61913  0.95974  0.82540  Biso   1.000  C
  C51      1.0000 0.62822  0.90590  0.71790  Biso   1.000  C
  H33      1.0000 0.64050  0.92230  0.72350  Biso   1.000  H
  N17      1.0000 0.63085  0.89040  0.69198  Biso   1.000  N
  O18      1.0000 0.60758  0.96920  0.84930  Biso   1.000  O
  C52      1.0000 0.61006  0.92690  0.77920  Biso   1.000  C
  H34      1.0000 0.62450  0.93820  0.76840  Biso   1.000  H
  C53      1.0000 0.61670  0.92200  0.78570  Biso   1.000  C
  H35      1.0000 0.63470  0.93010  0.77770  Biso   1.000  H
  C54      1.0000 0.63950  0.89330  0.72760  Biso   1.000  C
  H36      1.0000 0.65290  0.90890  0.73330  Biso   1.000  H
  N18      1.0000 0.64280  0.87720  0.70380  Biso   1.000  N
  O19      1.0000 0.64262  0.46918  0.31372  Biso   1.000  O
  C55      1.0000 0.60291  0.43519  0.30975  Biso   1.000  C
  C56      1.0000 0.61913  0.45974  0.32540  Biso   1.000  C
  C57      1.0000 0.62822  0.40590  0.21790  Biso   1.000  C
  H37      1.0000 0.64050  0.42230  0.22350  Biso   1.000  H
  N19      1.0000 0.63085  0.39040  0.19198  Biso   1.000  N
  O20      1.0000 0.60758  0.46920  0.34930  Biso   1.000  O
  C58      1.0000 0.61006  0.42690  0.27920  Biso   1.000  C
  H38      1.0000 0.62450  0.43820  0.26840  Biso   1.000  H
  C59      1.0000 0.61670  0.42200  0.28570  Biso   1.000  C
  H39      1.0000 0.63470  0.43010  0.27770  Biso   1.000  H
  C60      1.0000 0.63950  0.39330  0.22760  Biso   1.000  C
  H40      1.0000 0.65290  0.40890  0.23330  Biso   1.000  H
  N20      1.0000 0.64280  0.37720  0.20380  Biso   1.000  N
  O21      1.0000 0.14262  0.96918  0.31372  Biso   1.000  O
  C61      1.0000 0.10291  0.93519  0.30975  Biso   1.000  C
  C62      1.0000 0.11913  0.95974  0.32540  Biso   1.000  C
  C63      1.0000 0.12822  0.90590  0.21790  Biso   1.000  C
  H41      1.0000 0.14050  0.92230  0.22350  Biso   1.000  H
  N21      1.0000 0.13085  0.89040  0.19198  Biso   1.000  N
  O22      1.0000 0.10758  0.96920  0.34930  Biso   1.000  O
  C64      1.0000 0.11006  0.92690  0.27920  Biso   1.000  C
  H42      1.0000 0.12450  0.93820  0.26840  Biso   1.000  H
  C65      1.0000 0.11670  0.92200  0.28570  Biso   1.000  C
  H43      1.0000 0.13470  0.93010  0.27770  Biso   1.000  H
  C66      1.0000 0.13950  0.89330  0.22760  Biso   1.000  C
  H44      1.0000 0.15290  0.90890  0.23330  Biso   1.000  H
  N22      1.0000 0.14280  0.87720  0.20380  Biso   1.000  N
  O23      1.0000 0.14262  0.46918  0.81372  Biso   1.000  O
  C67      1.0000 0.10291  0.43519  0.80975  Biso   1.000  C
  C68      1.0000 0.11913  0.45974  0.82540  Biso   1.000  C
  C69      1.0000 0.12822  0.40590  0.71790  Biso   1.000  C
  H45      1.0000 0.14050  0.42230  0.72350  Biso   1.000  H
  N23      1.0000 0.13085  0.39040  0.69198  Biso   1.000  N
  O24      1.0000 0.10758  0.46920  0.84930  Biso   1.000  O
  C70      1.0000 0.11006  0.42690  0.77920  Biso   1.000  C
  H46      1.0000 0.12450  0.43820  0.76840  Biso   1.000  H
  C71      1.0000 0.11670  0.42200  0.78570  Biso   1.000  C
  H47      1.0000 0.13470  0.43010  0.77770  Biso   1.000  H
  C72      1.0000 0.13950  0.39330  0.72760  Biso   1.000  C
  H48      1.0000 0.15290  0.40890  0.73330  Biso   1.000  H
  N24      1.0000 0.14280  0.37720  0.70380  Biso   1.000  N
  O25      1.0000 0.35738  0.03082  0.81372  Biso   1.000  O
  C73      1.0000 0.39709  0.06481  0.80975  Biso   1.000  C
  C74      1.0000 0.38087  0.04026  0.82540  Biso   1.000  C
  C75      1.0000 0.37178  0.09410  0.71790  Biso   1.000  C
  H49      1.0000 0.35950  0.07770  0.72350  Biso   1.000  H
  N25      1.0000 0.36915  0.10960  0.69198  Biso   1.000  N
  O26      1.0000 0.39242  0.03080  0.84930  Biso   1.000  O
  C76      1.0000 0.38994  0.07310  0.77920  Biso   1.000  C
  H50      1.0000 0.37550  0.06180  0.76840  Biso   1.000  H
  C77      1.0000 0.38330  0.07800  0.78570  Biso   1.000  C
  H51      1.0000 0.36530  0.06990  0.77770  Biso   1.000  H
  C78      1.0000 0.36050  0.10670  0.72760  Biso   1.000  C
  H52      1.0000 0.34710  0.09110  0.73330  Biso   1.000  H
  N26      1.0000 0.35720  0.12280  0.70380  Biso   1.000  N
  O27      1.0000 0.35738  0.53082  0.31372  Biso   1.000  O
  C79      1.0000 0.39709  0.56481  0.30975  Biso   1.000  C
  C80      1.0000 0.38087  0.54026  0.32540  Biso   1.000  C
  C81      1.0000 0.37178  0.59410  0.21790  Biso   1.000  C
  H53      1.0000 0.35950  0.57770  0.22350  Biso   1.000  H
  N27      1.0000 0.36915  0.60960  0.19198  Biso   1.000  N
  O28      1.0000 0.39242  0.53080  0.34930  Biso   1.000  O
  C82      1.0000 0.38994  0.57310  0.27920  Biso   1.000  C
  H54      1.0000 0.37550  0.56180  0.26840  Biso   1.000  H
  C83      1.0000 0.38330  0.57800  0.28570  Biso   1.000  C
  H55      1.0000 0.36530  0.56990  0.27770  Biso   1.000  H
  C84      1.0000 0.36050  0.60670  0.22760  Biso   1.000  C
  H56      1.0000 0.34710  0.59110  0.23330  Biso   1.000  H
  N28      1.0000 0.35720  0.62280  0.20380  Biso   1.000  N
  O29      1.0000 0.85738  0.03082  0.31372  Biso   1.000  O
  C85      1.0000 0.89709  0.06481  0.30975  Biso   1.000  C
  C86      1.0000 0.88087  0.04026  0.32540  Biso   1.000  C
  C87      1.0000 0.87178  0.09410  0.21790  Biso   1.000  C
  H57      1.0000 0.85950  0.07770  0.22350  Biso   1.000  H
  N29      1.0000 0.86915  0.10960  0.19198  Biso   1.000  N
  O30      1.0000 0.89242  0.03080  0.34930  Biso   1.000  O
  C88      1.0000 0.88994  0.07310  0.27920  Biso   1.000  C
  H58      1.0000 0.87550  0.06180  0.26840  Biso   1.000  H
  C89      1.0000 0.88330  0.07800  0.28570  Biso   1.000  C
  H59      1.0000 0.86530  0.06990  0.27770  Biso   1.000  H
  C90      1.0000 0.86050  0.10670  0.22760  Biso   1.000  C
  H60      1.0000 0.84710  0.09110  0.23330  Biso   1.000  H
  N30      1.0000 0.85720  0.12280  0.20380  Biso   1.000  N
  O31      1.0000 0.85738  0.53082  0.81372  Biso   1.000  O
  C91      1.0000 0.89709  0.56481  0.80975  Biso   1.000  C
  C92      1.0000 0.88087  0.54026  0.82540  Biso   1.000  C
  C93      1.0000 0.87178  0.59410  0.71790  Biso   1.000  C
  H61      1.0000 0.85950  0.57770  0.72350  Biso   1.000  H
  N31      1.0000 0.86915  0.60960  0.69198  Biso   1.000  N
  O32      1.0000 0.89242  0.53080  0.84930  Biso   1.000  O
  C94      1.0000 0.88994  0.57310  0.77920  Biso   1.000  C
  H62      1.0000 0.87550  0.56180  0.76840  Biso   1.000  H
  C95      1.0000 0.88330  0.57800  0.78570  Biso   1.000  C
  H63      1.0000 0.86530  0.56990  0.77770  Biso   1.000  H
  C96      1.0000 0.86050  0.60670  0.72760  Biso   1.000  C
  H64      1.0000 0.84710  0.59110  0.73330  Biso   1.000  H
  N32      1.0000 0.85720  0.62280  0.70380  Biso   1.000  N
  O33      1.0000 0.18628  0.35738  0.96918  Biso   1.000  O
  C97      1.0000 0.19025  0.39709  0.93519  Biso   1.000  C
  C98      1.0000 0.17460  0.38087  0.95974  Biso   1.000  C
  C99      1.0000 0.28210  0.37178  0.90590  Biso   1.000  C
  H65      1.0000 0.27650  0.35950  0.92230  Biso   1.000  H
  N33      1.0000 0.30802  0.36915  0.89040  Biso   1.000  N
  O34      1.0000 0.15070  0.39242  0.96920  Biso   1.000  O
  C100     1.0000 0.22080  0.38994  0.92690  Biso   1.000  C
  H66      1.0000 0.23160  0.37550  0.93820  Biso   1.000  H
  C101     1.0000 0.21430  0.38330  0.92200  Biso   1.000  C
  H67      1.0000 0.22230  0.36530  0.93010  Biso   1.000  H
  C102     1.0000 0.27240  0.36050  0.89330  Biso   1.000  C
  H68      1.0000 0.26670  0.34710  0.90890  Biso   1.000  H
  N34      1.0000 0.29620  0.35720  0.87720  Biso   1.000  N
  O35      1.0000 0.18628  0.85738  0.46918  Biso   1.000  O
  C103     1.0000 0.19025  0.89709  0.43519  Biso   1.000  C
  C104     1.0000 0.17460  0.88087  0.45974  Biso   1.000  C
  C105     1.0000 0.28210  0.87178  0.40590  Biso   1.000  C
  H69      1.0000 0.27650  0.85950  0.42230  Biso   1.000  H
  N35      1.0000 0.30802  0.86915  0.39040  Biso   1.000  N
  O36      1.0000 0.15070  0.89242  0.46920  Biso   1.000  O
  C106     1.0000 0.22080  0.88994  0.42690  Biso   1.000  C
  H70      1.0000 0.23160  0.87550  0.43820  Biso   1.000  H
  C107     1.0000 0.21430  0.88330  0.42200  Biso   1.000  C
  H71      1.0000 0.22230  0.86530  0.43010  Biso   1.000  H
  C108     1.0000 0.27240  0.86050  0.39330  Biso   1.000  C
  H72      1.0000 0.26670  0.84710  0.40890  Biso   1.000  H
  N36      1.0000 0.29620  0.85720  0.37720  Biso   1.000  N
  O37      1.0000 0.68628  0.35738  0.46918  Biso   1.000  O
  C109     1.0000 0.69025  0.39709  0.43519  Biso   1.000  C
  C110     1.0000 0.67460  0.38087  0.45974  Biso   1.000  C
  C111     1.0000 0.78210  0.37178  0.40590  Biso   1.000  C
  H73      1.0000 0.77650  0.35950  0.42230  Biso   1.000  H
  N37      1.0000 0.80802  0.36915  0.39040  Biso   1.000  N
  O38      1.0000 0.65070  0.39242  0.46920  Biso   1.000  O
  C112     1.0000 0.72080  0.38994  0.42690  Biso   1.000  C
  H74      1.0000 0.73160  0.37550  0.43820  Biso   1.000  H
  C113     1.0000 0.71430  0.38330  0.42200  Biso   1.000  C
  H75      1.0000 0.72230  0.36530  0.43010  Biso   1.000  H
  C114     1.0000 0.77240  0.36050  0.39330  Biso   1.000  C
  H76      1.0000 0.76670  0.34710  0.40890  Biso   1.000  H
  N38      1.0000 0.79620  0.35720  0.37720  Biso   1.000  N
  O39      1.0000 0.68628  0.85738  0.96918  Biso   1.000  O
  C115     1.0000 0.69025  0.89709  0.93519  Biso   1.000  C
  C116     1.0000 0.67460  0.88087  0.95974  Biso   1.000  C
  C117     1.0000 0.78210  0.87178  0.90590  Biso   1.000  C
  H77      1.0000 0.77650  0.85950  0.92230  Biso   1.000  H
  N39      1.0000 0.80802  0.86915  0.89040  Biso   1.000  N
  O40      1.0000 0.65070  0.89242  0.96920  Biso   1.000  O
  C118     1.0000 0.72080  0.88994  0.92690  Biso   1.000  C
  H78      1.0000 0.73160  0.87550  0.93820  Biso   1.000  H
  C119     1.0000 0.71430  0.88330  0.92200  Biso   1.000  C
  H79      1.0000 0.72230  0.86530  0.93010  Biso   1.000  H
  C120     1.0000 0.77240  0.86050  0.89330  Biso   1.000  C
  H80      1.0000 0.76670  0.84710  0.90890  Biso   1.000  H
  N40      1.0000 0.79620  0.85720  0.87720  Biso   1.000  N
  O41      1.0000 0.18628  0.64262  0.03082  Biso   1.000  O
  C121     1.0000 0.19025  0.60291  0.06481  Biso   1.000  C
  C122     1.0000 0.17460  0.61913  0.04026  Biso   1.000  C
  C123     1.0000 0.28210  0.62822  0.09410  Biso   1.000  C
  H81      1.0000 0.27650  0.64050  0.07770  Biso   1.000  H
  N41      1.0000 0.30802  0.63085  0.10960  Biso   1.000  N
  O42      1.0000 0.15070  0.60758  0.03080  Biso   1.000  O
  C124     1.0000 0.22080  0.61006  0.07310  Biso   1.000  C
  H82      1.0000 0.23160  0.62450  0.06180  Biso   1.000  H
  C125     1.0000 0.21430  0.61670  0.07800  Biso   1.000  C
  H83      1.0000 0.22230  0.63470  0.06990  Biso   1.000  H
  C126     1.0000 0.27240  0.63950  0.10670  Biso   1.000  C
  H84      1.0000 0.26670  0.65290  0.09110  Biso   1.000  H
  N42      1.0000 0.29620  0.64280  0.12280  Biso   1.000  N
  O43      1.0000 0.18628  0.14262  0.53082  Biso   1.000  O
  C127     1.0000 0.19025  0.10291  0.56481  Biso   1.000  C
  C128     1.0000 0.17460  0.11913  0.54026  Biso   1.000  C
  C129     1.0000 0.28210  0.12822  0.59410  Biso   1.000  C
  H85      1.0000 0.27650  0.14050  0.57770  Biso   1.000  H
  N43      1.0000 0.30802  0.13085  0.60960  Biso   1.000  N
  O44      1.0000 0.15070  0.10758  0.53080  Biso   1.000  O
  C130     1.0000 0.22080  0.11006  0.57310  Biso   1.000  C
  H86      1.0000 0.23160  0.12450  0.56180  Biso   1.000  H
  C131     1.0000 0.21430  0.11670  0.57800  Biso   1.000  C
  H87      1.0000 0.22230  0.13470  0.56990  Biso   1.000  H
  C132     1.0000 0.27240  0.13950  0.60670  Biso   1.000  C
  H88      1.0000 0.26670  0.15290  0.59110  Biso   1.000  H
  N44      1.0000 0.29620  0.14280  0.62280  Biso   1.000  N
  O45      1.0000 0.68628  0.64262  0.53082  Biso   1.000  O
  C133     1.0000 0.69025  0.60291  0.56481  Biso   1.000  C
  C134     1.0000 0.67460  0.61913  0.54026  Biso   1.000  C
  C135     1.0000 0.78210  0.62822  0.59410  Biso   1.000  C
  H89      1.0000 0.77650  0.64050  0.57770  Biso   1.000  H
  N45      1.0000 0.80802  0.63085  0.60960  Biso   1.000  N
  O46      1.0000 0.65070  0.60758  0.53080  Biso   1.000  O
  C136     1.0000 0.72080  0.61006  0.57310  Biso   1.000  C
  H90      1.0000 0.73160  0.62450  0.56180  Biso   1.000  H
  C137     1.0000 0.71430  0.61670  0.57800  Biso   1.000  C
  H91      1.0000 0.72230  0.63470  0.56990  Biso   1.000  H
  C138     1.0000 0.77240  0.63950  0.60670  Biso   1.000  C
  H92      1.0000 0.76670  0.65290  0.59110  Biso   1.000  H
  N46      1.0000 0.79620  0.64280  0.62280  Biso   1.000  N
  O47      1.0000 0.68628  0.14262  0.03082  Biso   1.000  O
  C139     1.0000 0.69025  0.10291  0.06481  Biso   1.000  C
  C140     1.0000 0.67460  0.11913  0.04026  Biso   1.000  C
  C141     1.0000 0.78210  0.12822  0.09410  Biso   1.000  C
  H93      1.0000 0.77650  0.14050  0.07770  Biso   1.000  H
  N47      1.0000 0.80802  0.13085  0.10960  Biso   1.000  N
  O48      1.0000 0.65070  0.10758  0.03080  Biso   1.000  O
  C142     1.0000 0.72080  0.11006  0.07310  Biso   1.000  C
  H94      1.0000 0.73160  0.12450  0.06180  Biso   1.000  H
  C143     1.0000 0.71430  0.11670  0.07800  Biso   1.000  C
  H95      1.0000 0.72230  0.13470  0.06990  Biso   1.000  H
  C144     1.0000 0.77240  0.13950  0.10670  Biso   1.000  C
  H96      1.0000 0.76670  0.15290  0.09110  Biso   1.000  H
  N48      1.0000 0.79620  0.14280  0.12280  Biso   1.000  N
  O49      1.0000 0.81372  0.64262  0.96918  Biso   1.000  O
  C145     1.0000 0.80975  0.60291  0.93519  Biso   1.000  C
  C146     1.0000 0.82540  0.61913  0.95974  Biso   1.000  C
  C147     1.0000 0.71790  0.62822  0.90590  Biso   1.000  C
  H97      1.0000 0.72350  0.64050  0.92230  Biso   1.000  H
  N49      1.0000 0.69198  0.63085  0.89040  Biso   1.000  N
  O50      1.0000 0.84930  0.60758  0.96920  Biso   1.000  O
  C148     1.0000 0.77920  0.61006  0.92690  Biso   1.000  C
  H98      1.0000 0.76840  0.62450  0.93820  Biso   1.000  H
  C149     1.0000 0.78570  0.61670  0.92200  Biso   1.000  C
  H99      1.0000 0.77770  0.63470  0.93010  Biso   1.000  H
  C150     1.0000 0.72760  0.63950  0.89330  Biso   1.000  C
  H100     1.0000 0.73330  0.65290  0.90890  Biso   1.000  H
  N50      1.0000 0.70380  0.64280  0.87720  Biso   1.000  N
  O51      1.0000 0.81372  0.14262  0.46918  Biso   1.000  O
  C151     1.0000 0.80975  0.10291  0.43519  Biso   1.000  C
  C152     1.0000 0.82540  0.11913  0.45974  Biso   1.000  C
  C153     1.0000 0.71790  0.12822  0.40590  Biso   1.000  C
  H101     1.0000 0.72350  0.14050  0.42230  Biso   1.000  H
  N51      1.0000 0.69198  0.13085  0.39040  Biso   1.000  N
  O52      1.0000 0.84930  0.10758  0.46920  Biso   1.000  O
  C154     1.0000 0.77920  0.11006  0.42690  Biso   1.000  C
  H102     1.0000 0.76840  0.12450  0.43820  Biso   1.000  H
  C155     1.0000 0.78570  0.11670  0.42200  Biso   1.000  C
  H103     1.0000 0.77770  0.13470  0.43010  Biso   1.000  H
  C156     1.0000 0.72760  0.13950  0.39330  Biso   1.000  C
  H104     1.0000 0.73330  0.15290  0.40890  Biso   1.000  H
  N52      1.0000 0.70380  0.14280  0.37720  Biso   1.000  N
  O53      1.0000 0.31372  0.64262  0.46918  Biso   1.000  O
  C157     1.0000 0.30975  0.60291  0.43519  Biso   1.000  C
  C158     1.0000 0.32540  0.61913  0.45974  Biso   1.000  C
  C159     1.0000 0.21790  0.62822  0.40590  Biso   1.000  C
  H105     1.0000 0.22350  0.64050  0.42230  Biso   1.000  H
  N53      1.0000 0.19198  0.63085  0.39040  Biso   1.000  N
  O54      1.0000 0.34930  0.60758  0.46920  Biso   1.000  O
  C160     1.0000 0.27920  0.61006  0.42690  Biso   1.000  C
  H106     1.0000 0.26840  0.62450  0.43820  Biso   1.000  H
  C161     1.0000 0.28570  0.61670  0.42200  Biso   1.000  C
  H107     1.0000 0.27770  0.63470  0.43010  Biso   1.000  H
  C162     1.0000 0.22760  0.63950  0.39330  Biso   1.000  C
  H108     1.0000 0.23330  0.65290  0.40890  Biso   1.000  H
  N54      1.0000 0.20380  0.64280  0.37720  Biso   1.000  N
  O55      1.0000 0.31372  0.14262  0.96918  Biso   1.000  O
  C163     1.0000 0.30975  0.10291  0.93519  Biso   1.000  C
  C164     1.0000 0.32540  0.11913  0.95974  Biso   1.000  C
  C165     1.0000 0.21790  0.12822  0.90590  Biso   1.000  C
  H109     1.0000 0.22350  0.14050  0.92230  Biso   1.000  H
  N55      1.0000 0.19198  0.13085  0.89040  Biso   1.000  N
  O56      1.0000 0.34930  0.10758  0.96920  Biso   1.000  O
  C166     1.0000 0.27920  0.11006  0.92690  Biso   1.000  C
  H110     1.0000 0.26840  0.12450  0.93820  Biso   1.000  H
  C167     1.0000 0.28570  0.11670  0.92200  Biso   1.000  C
  H111     1.0000 0.27770  0.13470  0.93010  Biso   1.000  H
  C168     1.0000 0.22760  0.13950  0.89330  Biso   1.000  C
  H112     1.0000 0.23330  0.15290  0.90890  Biso   1.000  H
  N56      1.0000 0.20380  0.14280  0.87720  Biso   1.000  N
  O57      1.0000 0.81372  0.35738  0.03082  Biso   1.000  O
  C169     1.0000 0.80975  0.39709  0.06481  Biso   1.000  C
  C170     1.0000 0.82540  0.38087  0.04026  Biso   1.000  C
  C171     1.0000 0.71790  0.37178  0.09410  Biso   1.000  C
  H113     1.0000 0.72350  0.35950  0.07770  Biso   1.000  H
  N57      1.0000 0.69198  0.36915  0.10960  Biso   1.000  N
  O58      1.0000 0.84930  0.39242  0.03080  Biso   1.000  O
  C172     1.0000 0.77920  0.38994  0.07310  Biso   1.000  C
  H114     1.0000 0.76840  0.37550  0.06180  Biso   1.000  H
  C173     1.0000 0.78570  0.38330  0.07800  Biso   1.000  C
  H115     1.0000 0.77770  0.36530  0.06990  Biso   1.000  H
  C174     1.0000 0.72760  0.36050  0.10670  Biso   1.000  C
  H116     1.0000 0.73330  0.34710  0.09110  Biso   1.000  H
  N58      1.0000 0.70380  0.35720  0.12280  Biso   1.000  N
  O59      1.0000 0.81372  0.85738  0.53082  Biso   1.000  O
  C175     1.0000 0.80975  0.89709  0.56481  Biso   1.000  C
  C176     1.0000 0.82540  0.88087  0.54026  Biso   1.000  C
  C177     1.0000 0.71790  0.87178  0.59410  Biso   1.000  C
  H117     1.0000 0.72350  0.85950  0.57770  Biso   1.000  H
  N59      1.0000 0.69198  0.86915  0.60960  Biso   1.000  N
  O60      1.0000 0.84930  0.89242  0.53080  Biso   1.000  O
  C178     1.0000 0.77920  0.88994  0.57310  Biso   1.000  C
  H118     1.0000 0.76840  0.87550  0.56180  Biso   1.000  H
  C179     1.0000 0.78570  0.88330  0.57800  Biso   1.000  C
  H119     1.0000 0.77770  0.86530  0.56990  Biso   1.000  H
  C180     1.0000 0.72760  0.86050  0.60670  Biso   1.000  C
  H120     1.0000 0.73330  0.84710  0.59110  Biso   1.000  H
  N60      1.0000 0.70380  0.85720  0.62280  Biso   1.000  N
  O61      1.0000 0.31372  0.35738  0.53082  Biso   1.000  O
  C181     1.0000 0.30975  0.39709  0.56481  Biso   1.000  C
  C182     1.0000 0.32540  0.38087  0.54026  Biso   1.000  C
  C183     1.0000 0.21790  0.37178  0.59410  Biso   1.000  C
  H121     1.0000 0.22350  0.35950  0.57770  Biso   1.000  H
  N61      1.0000 0.19198  0.36915  0.60960  Biso   1.000  N
  O62      1.0000 0.34930  0.39242  0.53080  Biso   1.000  O
  C184     1.0000 0.27920  0.38994  0.57310  Biso   1.000  C
  H122     1.0000 0.26840  0.37550  0.56180  Biso   1.000  H
  C185     1.0000 0.28570  0.38330  0.57800  Biso   1.000  C
  H123     1.0000 0.27770  0.36530  0.56990  Biso   1.000  H
  C186     1.0000 0.22760  0.36050  0.60670  Biso   1.000  C
  H124     1.0000 0.23330  0.34710  0.59110  Biso   1.000  H
  N62      1.0000 0.20380  0.35720  0.62280  Biso   1.000  N
  O63      1.0000 0.31372  0.85738  0.03082  Biso   1.000  O
  C187     1.0000 0.30975  0.89709  0.06481  Biso   1.000  C
  C188     1.0000 0.32540  0.88087  0.04026  Biso   1.000  C
  C189     1.0000 0.21790  0.87178  0.09410  Biso   1.000  C
  H125     1.0000 0.22350  0.85950  0.07770  Biso   1.000  H
  N63      1.0000 0.19198  0.86915  0.10960  Biso   1.000  N
  O64      1.0000 0.34930  0.89242  0.03080  Biso   1.000  O
  C190     1.0000 0.27920  0.88994  0.07310  Biso   1.000  C
  H126     1.0000 0.26840  0.87550  0.06180  Biso   1.000  H
  C191     1.0000 0.28570  0.88330  0.07800  Biso   1.000  C
  H127     1.0000 0.27770  0.86530  0.06990  Biso   1.000  H
  C192     1.0000 0.22760  0.86050  0.10670  Biso   1.000  C
  H128     1.0000 0.23330  0.84710  0.09110  Biso   1.000  H
  N64      1.0000 0.20380  0.85720  0.12280  Biso   1.000  N
  O65      1.0000 0.96918  0.18628  0.35738  Biso   1.000  O
  C193     1.0000 0.93519  0.19025  0.39709  Biso   1.000  C
  C194     1.0000 0.95974  0.17460  0.38087  Biso   1.000  C
  C195     1.0000 0.90590  0.28210  0.37178  Biso   1.000  C
  H129     1.0000 0.92230  0.27650  0.35950  Biso   1.000  H
  N65      1.0000 0.89040  0.30802  0.36915  Biso   1.000  N
  O66      1.0000 0.96920  0.15070  0.39242  Biso   1.000  O
  C196     1.0000 0.92690  0.22080  0.38994  Biso   1.000  C
  H130     1.0000 0.93820  0.23160  0.37550  Biso   1.000  H
  C197     1.0000 0.92200  0.21430  0.38330  Biso   1.000  C
  H131     1.0000 0.93010  0.22230  0.36530  Biso   1.000  H
  C198     1.0000 0.89330  0.27240  0.36050  Biso   1.000  C
  H132     1.0000 0.90890  0.26670  0.34710  Biso   1.000  H
  N66      1.0000 0.87720  0.29620  0.35720  Biso   1.000  N
  O67      1.0000 0.96918  0.68628  0.85738  Biso   1.000  O
  C199     1.0000 0.93519  0.69025  0.89709  Biso   1.000  C
  C200     1.0000 0.95974  0.67460  0.88087  Biso   1.000  C
  C201     1.0000 0.90590  0.78210  0.87178  Biso   1.000  C
  H133     1.0000 0.92230  0.77650  0.85950  Biso   1.000  H
  N67      1.0000 0.89040  0.80802  0.86915  Biso   1.000  N
  O68      1.0000 0.96920  0.65070  0.89242  Biso   1.000  O
  C202     1.0000 0.92690  0.72080  0.88994  Biso   1.000  C
  H134     1.0000 0.93820  0.73160  0.87550  Biso   1.000  H
  C203     1.0000 0.92200  0.71430  0.88330  Biso   1.000  C
  H135     1.0000 0.93010  0.72230  0.86530  Biso   1.000  H
  C204     1.0000 0.89330  0.77240  0.86050  Biso   1.000  C
  H136     1.0000 0.90890  0.76670  0.84710  Biso   1.000  H
  N68      1.0000 0.87720  0.79620  0.85720  Biso   1.000  N
  O69      1.0000 0.46918  0.18628  0.85738  Biso   1.000  O
  C205     1.0000 0.43519  0.19025  0.89709  Biso   1.000  C
  C206     1.0000 0.45974  0.17460  0.88087  Biso   1.000  C
  C207     1.0000 0.40590  0.28210  0.87178  Biso   1.000  C
  H137     1.0000 0.42230  0.27650  0.85950  Biso   1.000  H
  N69      1.0000 0.39040  0.30802  0.86915  Biso   1.000  N
  O70      1.0000 0.46920  0.15070  0.89242  Biso   1.000  O
  C208     1.0000 0.42690  0.22080  0.88994  Biso   1.000  C
  H138     1.0000 0.43820  0.23160  0.87550  Biso   1.000  H
  C209     1.0000 0.42200  0.21430  0.88330  Biso   1.000  C
  H139     1.0000 0.43010  0.22230  0.86530  Biso   1.000  H
  C210     1.0000 0.39330  0.27240  0.86050  Biso   1.000  C
  H140     1.0000 0.40890  0.26670  0.84710  Biso   1.000  H
  N70      1.0000 0.37720  0.29620  0.85720  Biso   1.000  N
  O71      1.0000 0.46918  0.68628  0.35738  Biso   1.000  O
  C211     1.0000 0.43519  0.69025  0.39709  Biso   1.000  C
  C212     1.0000 0.45974  0.67460  0.38087  Biso   1.000  C
  C213     1.0000 0.40590  0.78210  0.37178  Biso   1.000  C
  H141     1.0000 0.42230  0.77650  0.35950  Biso   1.000  H
  N71      1.0000 0.39040  0.80802  0.36915  Biso   1.000  N
  O72      1.0000 0.46920  0.65070  0.39242  Biso   1.000  O
  C214     1.0000 0.42690  0.72080  0.38994  Biso   1.000  C
  H142     1.0000 0.43820  0.73160  0.37550  Biso   1.000  H
  C215     1.0000 0.42200  0.71430  0.38330  Biso   1.000  C
  H143     1.0000 0.43010  0.72230  0.36530  Biso   1.000  H
  C216     1.0000 0.39330  0.77240  0.36050  Biso   1.000  C
  H144     1.0000 0.40890  0.76670  0.34710  Biso   1.000  H
  N72      1.0000 0.37720  0.79620  0.35720  Biso   1.000  N
  O73      1.0000 0.03082  0.18628  0.64262  Biso   1.000  O
  C217     1.0000 0.06481  0.19025  0.60291  Biso   1.000  C
  C218     1.0000 0.04026  0.17460  0.61913  Biso   1.000  C
  C219     1.0000 0.09410  0.28210  0.62822  Biso   1.000  C
  H145     1.0000 0.07770  0.27650  0.64050  Biso   1.000  H
  N73      1.0000 0.10960  0.30802  0.63085  Biso   1.000  N
  O74      1.0000 0.03080  0.15070  0.60758  Biso   1.000  O
  C220     1.0000 0.07310  0.22080  0.61006  Biso   1.000  C
  H146     1.0000 0.06180  0.23160  0.62450  Biso   1.000  H
  C221     1.0000 0.07800  0.21430  0.61670  Biso   1.000  C
  H147     1.0000 0.06990  0.22230  0.63470  Biso   1.000  H
  C222     1.0000 0.10670  0.27240  0.63950  Biso   1.000  C
  H148     1.0000 0.09110  0.26670  0.65290  Biso   1.000  H
  N74      1.0000 0.12280  0.29620  0.64280  Biso   1.000  N
  O75      1.0000 0.03082  0.68628  0.14262  Biso   1.000  O
  C223     1.0000 0.06481  0.69025  0.10291  Biso   1.000  C
  C224     1.0000 0.04026  0.67460  0.11913  Biso   1.000  C
  C225     1.0000 0.09410  0.78210  0.12822  Biso   1.000  C
  H149     1.0000 0.07770  0.77650  0.14050  Biso   1.000  H
  N75      1.0000 0.10960  0.80802  0.13085  Biso   1.000  N
  O76      1.0000 0.03080  0.65070  0.10758  Biso   1.000  O
  C226     1.0000 0.07310  0.72080  0.11006  Biso   1.000  C
  H150     1.0000 0.06180  0.73160  0.12450  Biso   1.000  H
  C227     1.0000 0.07800  0.71430  0.11670  Biso   1.000  C
  H151     1.0000 0.06990  0.72230  0.13470  Biso   1.000  H
  C228     1.0000 0.10670  0.77240  0.13950  Biso   1.000  C
  H152     1.0000 0.09110  0.76670  0.15290  Biso   1.000  H
  N76      1.0000 0.12280  0.79620  0.14280  Biso   1.000  N
  O77      1.0000 0.53082  0.18628  0.14262  Biso   1.000  O
  C229     1.0000 0.56481  0.19025  0.10291  Biso   1.000  C
  C230     1.0000 0.54026  0.17460  0.11913  Biso   1.000  C
  C231     1.0000 0.59410  0.28210  0.12822  Biso   1.000  C
  H153     1.0000 0.57770  0.27650  0.14050  Biso   1.000  H
  N77      1.0000 0.60960  0.30802  0.13085  Biso   1.000  N
  O78      1.0000 0.53080  0.15070  0.10758  Biso   1.000  O
  C232     1.0000 0.57310  0.22080  0.11006  Biso   1.000  C
  H154     1.0000 0.56180  0.23160  0.12450  Biso   1.000  H
  C233     1.0000 0.57800  0.21430  0.11670  Biso   1.000  C
  H155     1.0000 0.56990  0.22230  0.13470  Biso   1.000  H
  C234     1.0000 0.60670  0.27240  0.13950  Biso   1.000  C
  H156     1.0000 0.59110  0.26670  0.15290  Biso   1.000  H
  N78      1.0000 0.62280  0.29620  0.14280  Biso   1.000  N
  O79      1.0000 0.53082  0.68628  0.64262  Biso   1.000  O
  C235     1.0000 0.56481  0.69025  0.60291  Biso   1.000  C
  C236     1.0000 0.54026  0.67460  0.61913  Biso   1.000  C
  C237     1.0000 0.59410  0.78210  0.62822  Biso   1.000  C
  H157     1.0000 0.57770  0.77650  0.64050  Biso   1.000  H
  N79      1.0000 0.60960  0.80802  0.63085  Biso   1.000  N
  O80      1.0000 0.53080  0.65070  0.60758  Biso   1.000  O
  C238     1.0000 0.57310  0.72080  0.61006  Biso   1.000  C
  H158     1.0000 0.56180  0.73160  0.62450  Biso   1.000  H
  C239     1.0000 0.57800  0.71430  0.61670  Biso   1.000  C
  H159     1.0000 0.56990  0.72230  0.63470  Biso   1.000  H
  C240     1.0000 0.60670  0.77240  0.63950  Biso   1.000  C
  H160     1.0000 0.59110  0.76670  0.65290  Biso   1.000  H
  N80      1.0000 0.62280  0.79620  0.64280  Biso   1.000  N
  O81      1.0000 0.96918  0.81372  0.64262  Biso   1.000  O
  C241     1.0000 0.93519  0.80975  0.60291  Biso   1.000  C
  C242     1.0000 0.95974  0.82540  0.61913  Biso   1.000  C
  C243     1.0000 0.90590  0.71790  0.62822  Biso   1.000  C
  H161     1.0000 0.92230  0.72350  0.64050  Biso   1.000  H
  N81      1.0000 0.89040  0.69198  0.63085  Biso   1.000  N
  O82      1.0000 0.96920  0.84930  0.60758  Biso   1.000  O
  C244     1.0000 0.92690  0.77920  0.61006  Biso   1.000  C
  H162     1.0000 0.93820  0.76840  0.62450  Biso   1.000  H
  C245     1.0000 0.92200  0.78570  0.61670  Biso   1.000  C
  H163     1.0000 0.93010  0.77770  0.63470  Biso   1.000  H
  C246     1.0000 0.89330  0.72760  0.63950  Biso   1.000  C
  H164     1.0000 0.90890  0.73330  0.65290  Biso   1.000  H
  N82      1.0000 0.87720  0.70380  0.64280  Biso   1.000  N
  O83      1.0000 0.96918  0.31372  0.14262  Biso   1.000  O
  C247     1.0000 0.93519  0.30975  0.10291  Biso   1.000  C
  C248     1.0000 0.95974  0.32540  0.11913  Biso   1.000  C
  C249     1.0000 0.90590  0.21790  0.12822  Biso   1.000  C
  H165     1.0000 0.92230  0.22350  0.14050  Biso   1.000  H
  N83      1.0000 0.89040  0.19198  0.13085  Biso   1.000  N
  O84      1.0000 0.96920  0.34930  0.10758  Biso   1.000  O
  C250     1.0000 0.92690  0.27920  0.11006  Biso   1.000  C
  H166     1.0000 0.93820  0.26840  0.12450  Biso   1.000  H
  C251     1.0000 0.92200  0.28570  0.11670  Biso   1.000  C
  H167     1.0000 0.93010  0.27770  0.13470  Biso   1.000  H
  C252     1.0000 0.89330  0.22760  0.13950  Biso   1.000  C
  H168     1.0000 0.90890  0.23330  0.15290  Biso   1.000  H
  N84      1.0000 0.87720  0.20380  0.14280  Biso   1.000  N
  O85      1.0000 0.46918  0.81372  0.14262  Biso   1.000  O
  C253     1.0000 0.43519  0.80975  0.10291  Biso   1.000  C
  C254     1.0000 0.45974  0.82540  0.11913  Biso   1.000  C
  C255     1.0000 0.40590  0.71790  0.12822  Biso   1.000  C
  H169     1.0000 0.42230  0.72350  0.14050  Biso   1.000  H
  N85      1.0000 0.39040  0.69198  0.13085  Biso   1.000  N
  O86      1.0000 0.46920  0.84930  0.10758  Biso   1.000  O
  C256     1.0000 0.42690  0.77920  0.11006  Biso   1.000  C
  H170     1.0000 0.43820  0.76840  0.12450  Biso   1.000  H
  C257     1.0000 0.42200  0.78570  0.11670  Biso   1.000  C
  H171     1.0000 0.43010  0.77770  0.13470  Biso   1.000  H
  C258     1.0000 0.39330  0.72760  0.13950  Biso   1.000  C
  H172     1.0000 0.40890  0.73330  0.15290  Biso   1.000  H
  N86      1.0000 0.37720  0.70380  0.14280  Biso   1.000  N
  O87      1.0000 0.46918  0.31372  0.64262  Biso   1.000  O
  C259     1.0000 0.43519  0.30975  0.60291  Biso   1.000  C
  C260     1.0000 0.45974  0.32540  0.61913  Biso   1.000  C
  C261     1.0000 0.40590  0.21790  0.62822  Biso   1.000  C
  H173     1.0000 0.42230  0.22350  0.64050  Biso   1.000  H
  N87      1.0000 0.39040  0.19198  0.63085  Biso   1.000  N
  O88      1.0000 0.46920  0.34930  0.60758  Biso   1.000  O
  C262     1.0000 0.42690  0.27920  0.61006  Biso   1.000  C
  H174     1.0000 0.43820  0.26840  0.62450  Biso   1.000  H
  C263     1.0000 0.42200  0.28570  0.61670  Biso   1.000  C
  H175     1.0000 0.43010  0.27770  0.63470  Biso   1.000  H
  C264     1.0000 0.39330  0.22760  0.63950  Biso   1.000  C
  H176     1.0000 0.40890  0.23330  0.65290  Biso   1.000  H
  N88      1.0000 0.37720  0.20380  0.64280  Biso   1.000  N
  O89      1.0000 0.03082  0.81372  0.35738  Biso   1.000  O
  C265     1.0000 0.06481  0.80975  0.39709  Biso   1.000  C
  C266     1.0000 0.04026  0.82540  0.38087  Biso   1.000  C
  C267     1.0000 0.09410  0.71790  0.37178  Biso   1.000  C
  H177     1.0000 0.07770  0.72350  0.35950  Biso   1.000  H
  N89      1.0000 0.10960  0.69198  0.36915  Biso   1.000  N
  O90      1.0000 0.03080  0.84930  0.39242  Biso   1.000  O
  C268     1.0000 0.07310  0.77920  0.38994  Biso   1.000  C
  H178     1.0000 0.06180  0.76840  0.37550  Biso   1.000  H
  C269     1.0000 0.07800  0.78570  0.38330  Biso   1.000  C
  H179     1.0000 0.06990  0.77770  0.36530  Biso   1.000  H
  C270     1.0000 0.10670  0.72760  0.36050  Biso   1.000  C
  H180     1.0000 0.09110  0.73330  0.34710  Biso   1.000  H
  N90      1.0000 0.12280  0.70380  0.35720  Biso   1.000  N
  O91      1.0000 0.03082  0.31372  0.85738  Biso   1.000  O
  C271     1.0000 0.06481  0.30975  0.89709  Biso   1.000  C
  C272     1.0000 0.04026  0.32540  0.88087  Biso   1.000  C
  C273     1.0000 0.09410  0.21790  0.87178  Biso   1.000  C
  H181     1.0000 0.07770  0.22350  0.85950  Biso   1.000  H
  N91      1.0000 0.10960  0.19198  0.86915  Biso   1.000  N
  O92      1.0000 0.03080  0.34930  0.89242  Biso   1.000  O
  C274     1.0000 0.07310  0.27920  0.88994  Biso   1.000  C
  H182     1.0000 0.06180  0.26840  0.87550  Biso   1.000  H
  C275     1.0000 0.07800  0.28570  0.88330  Biso   1.000  C
  H183     1.0000 0.06990  0.27770  0.86530  Biso   1.000  H
  C276     1.0000 0.10670  0.22760  0.86050  Biso   1.000  C
  H184     1.0000 0.09110  0.23330  0.84710  Biso   1.000  H
  N92      1.0000 0.12280  0.20380  0.85720  Biso   1.000  N
  O93      1.0000 0.53082  0.81372  0.85738  Biso   1.000  O
  C277     1.0000 0.56481  0.80975  0.89709  Biso   1.000  C
  C278     1.0000 0.54026  0.82540  0.88087  Biso   1.000  C
  C279     1.0000 0.59410  0.71790  0.87178  Biso   1.000  C
  H185     1.0000 0.57770  0.72350  0.85950  Biso   1.000  H
  N93      1.0000 0.60960  0.69198  0.86915  Biso   1.000  N
  O94      1.0000 0.53080  0.84930  0.89242  Biso   1.000  O
  C280     1.0000 0.57310  0.77920  0.88994  Biso   1.000  C
  H186     1.0000 0.56180  0.76840  0.87550  Biso   1.000  H
  C281     1.0000 0.57800  0.78570  0.88330  Biso   1.000  C
  H187     1.0000 0.56990  0.77770  0.86530  Biso   1.000  H
  C282     1.0000 0.60670  0.72760  0.86050  Biso   1.000  C
  H188     1.0000 0.59110  0.73330  0.84710  Biso   1.000  H
  N94      1.0000 0.62280  0.70380  0.85720  Biso   1.000  N
  O95      1.0000 0.53082  0.31372  0.35738  Biso   1.000  O
  C283     1.0000 0.56481  0.30975  0.39709  Biso   1.000  C
  C284     1.0000 0.54026  0.32540  0.38087  Biso   1.000  C
  C285     1.0000 0.59410  0.21790  0.37178  Biso   1.000  C
  H189     1.0000 0.57770  0.22350  0.35950  Biso   1.000  H
  N95      1.0000 0.60960  0.19198  0.36915  Biso   1.000  N
  O96      1.0000 0.53080  0.34930  0.39242  Biso   1.000  O
  C286     1.0000 0.57310  0.27920  0.38994  Biso   1.000  C
  H190     1.0000 0.56180  0.26840  0.37550  Biso   1.000  H
  C287     1.0000 0.57800  0.28570  0.38330  Biso   1.000  C
  H191     1.0000 0.56990  0.27770  0.36530  Biso   1.000  H
  C288     1.0000 0.60670  0.22760  0.36050  Biso   1.000  C
  H192     1.0000 0.59110  0.23330  0.34710  Biso   1.000  H
  N96      1.0000 0.62280  0.20380  0.35720  Biso   1.000  N
  O97      1.0000 0.96918  0.35738  0.81372  Biso   1.000  O
  C289     1.0000 0.93519  0.39709  0.80975  Biso   1.000  C
  C290     1.0000 0.95974  0.38087  0.82540  Biso   1.000  C
  C291     1.0000 0.90590  0.37178  0.71790  Biso   1.000  C
  H193     1.0000 0.92230  0.35950  0.72350  Biso   1.000  H
  N97      1.0000 0.89040  0.36915  0.69198  Biso   1.000  N
  O98      1.0000 0.96920  0.39242  0.84930  Biso   1.000  O
  C292     1.0000 0.92690  0.38994  0.77920  Biso   1.000  C
  H194     1.0000 0.93820  0.37550  0.76840  Biso   1.000  H
  C293     1.0000 0.92200  0.38330  0.78570  Biso   1.000  C
  H195     1.0000 0.93010  0.36530  0.77770  Biso   1.000  H
  C294     1.0000 0.89330  0.36050  0.72760  Biso   1.000  C
  H196     1.0000 0.90890  0.34710  0.73330  Biso   1.000  H
  N98      1.0000 0.87720  0.35720  0.70380  Biso   1.000  N
  O99      1.0000 0.96918  0.85738  0.31372  Biso   1.000  O
  C295     1.0000 0.93519  0.89709  0.30975  Biso   1.000  C
  C296     1.0000 0.95974  0.88087  0.32540  Biso   1.000  C
  C297     1.0000 0.90590  0.87178  0.21790  Biso   1.000  C
  H197     1.0000 0.92230  0.85950  0.22350  Biso   1.000  H
  N99      1.0000 0.89040  0.86915  0.19198  Biso   1.000  N
  O100     1.0000 0.96920  0.89242  0.34930  Biso   1.000  O
  C298     1.0000 0.92690  0.88994  0.27920  Biso   1.000  C
  H198     1.0000 0.93820  0.87550  0.26840  Biso   1.000  H
  C299     1.0000 0.92200  0.88330  0.28570  Biso   1.000  C
  H199     1.0000 0.93010  0.86530  0.27770  Biso   1.000  H
  C300     1.0000 0.89330  0.86050  0.22760  Biso   1.000  C
  H200     1.0000 0.90890  0.84710  0.23330  Biso   1.000  H
  N100     1.0000 0.87720  0.85720  0.20380  Biso   1.000  N
  O101     1.0000 0.46918  0.35738  0.31372  Biso   1.000  O
  C301     1.0000 0.43519  0.39709  0.30975  Biso   1.000  C
  C302     1.0000 0.45974  0.38087  0.32540  Biso   1.000  C
  C303     1.0000 0.40590  0.37178  0.21790  Biso   1.000  C
  H201     1.0000 0.42230  0.35950  0.22350  Biso   1.000  H
  N101     1.0000 0.39040  0.36915  0.19198  Biso   1.000  N
  O102     1.0000 0.46920  0.39242  0.34930  Biso   1.000  O
  C304     1.0000 0.42690  0.38994  0.27920  Biso   1.000  C
  H202     1.0000 0.43820  0.37550  0.26840  Biso   1.000  H
  C305     1.0000 0.42200  0.38330  0.28570  Biso   1.000  C
  H203     1.0000 0.43010  0.36530  0.27770  Biso   1.000  H
  C306     1.0000 0.39330  0.36050  0.22760  Biso   1.000  C
  H204     1.0000 0.40890  0.34710  0.23330  Biso   1.000  H
  N102     1.0000 0.37720  0.35720  0.20380  Biso   1.000  N
  O103     1.0000 0.46918  0.85738  0.81372  Biso   1.000  O
  C307     1.0000 0.43519  0.89709  0.80975  Biso   1.000  C
  C308     1.0000 0.45974  0.88087  0.82540  Biso   1.000  C
  C309     1.0000 0.40590  0.87178  0.71790  Biso   1.000  C
  H205     1.0000 0.42230  0.85950  0.72350  Biso   1.000  H
  N103     1.0000 0.39040  0.86915  0.69198  Biso   1.000  N
  O104     1.0000 0.46920  0.89242  0.84930  Biso   1.000  O
  C310     1.0000 0.42690  0.88994  0.77920  Biso   1.000  C
  H206     1.0000 0.43820  0.87550  0.76840  Biso   1.000  H
  C311     1.0000 0.42200  0.88330  0.78570  Biso   1.000  C
  H207     1.0000 0.43010  0.86530  0.77770  Biso   1.000  H
  C312     1.0000 0.39330  0.86050  0.72760  Biso   1.000  C
  H208     1.0000 0.40890  0.84710  0.73330  Biso   1.000  H
  N104     1.0000 0.37720  0.85720  0.70380  Biso   1.000  N
  O105     1.0000 0.03082  0.64262  0.81372  Biso   1.000  O
  C313     1.0000 0.06481  0.60291  0.80975  Biso   1.000  C
  C314     1.0000 0.04026  0.61913  0.82540  Biso   1.000  C
  C315     1.0000 0.09410  0.62822  0.71790  Biso   1.000  C
  H209     1.0000 0.07770  0.64050  0.72350  Biso   1.000  H
  N105     1.0000 0.10960  0.63085  0.69198  Biso   1.000  N
  O106     1.0000 0.03080  0.60758  0.84930  Biso   1.000  O
  C316     1.0000 0.07310  0.61006  0.77920  Biso   1.000  C
  H210     1.0000 0.06180  0.62450  0.76840  Biso   1.000  H
  C317     1.0000 0.07800  0.61670  0.78570  Biso   1.000  C
  H211     1.0000 0.06990  0.63470  0.77770  Biso   1.000  H
  C318     1.0000 0.10670  0.63950  0.72760  Biso   1.000  C
  H212     1.0000 0.09110  0.65290  0.73330  Biso   1.000  H
  N106     1.0000 0.12280  0.64280  0.70380  Biso   1.000  N
  O107     1.0000 0.03082  0.14262  0.31372  Biso   1.000  O
  C319     1.0000 0.06481  0.10291  0.30975  Biso   1.000  C
  C320     1.0000 0.04026  0.11913  0.32540  Biso   1.000  C
  C321     1.0000 0.09410  0.12822  0.21790  Biso   1.000  C
  H213     1.0000 0.07770  0.14050  0.22350  Biso   1.000  H
  N107     1.0000 0.10960  0.13085  0.19198  Biso   1.000  N
  O108     1.0000 0.03080  0.10758  0.34930  Biso   1.000  O
  C322     1.0000 0.07310  0.11006  0.27920  Biso   1.000  C
  H214     1.0000 0.06180  0.12450  0.26840  Biso   1.000  H
  C323     1.0000 0.07800  0.11670  0.28570  Biso   1.000  C
  H215     1.0000 0.06990  0.13470  0.27770  Biso   1.000  H
  C324     1.0000 0.10670  0.13950  0.22760  Biso   1.000  C
  H216     1.0000 0.09110  0.15290  0.23330  Biso   1.000  H
  N108     1.0000 0.12280  0.14280  0.20380  Biso   1.000  N
  O109     1.0000 0.53082  0.64262  0.31372  Biso   1.000  O
  C325     1.0000 0.56481  0.60291  0.30975  Biso   1.000  C
  C326     1.0000 0.54026  0.61913  0.32540  Biso   1.000  C
  C327     1.0000 0.59410  0.62822  0.21790  Biso   1.000  C
  H217     1.0000 0.57770  0.64050  0.22350  Biso   1.000  H
  N109     1.0000 0.60960  0.63085  0.19198  Biso   1.000  N
  O110     1.0000 0.53080  0.60758  0.34930  Biso   1.000  O
  C328     1.0000 0.57310  0.61006  0.27920  Biso   1.000  C
  H218     1.0000 0.56180  0.62450  0.26840  Biso   1.000  H
  C329     1.0000 0.57800  0.61670  0.28570  Biso   1.000  C
  H219     1.0000 0.56990  0.63470  0.27770  Biso   1.000  H
  C330     1.0000 0.60670  0.63950  0.22760  Biso   1.000  C
  H220     1.0000 0.59110  0.65290  0.23330  Biso   1.000  H
  N110     1.0000 0.62280  0.64280  0.20380  Biso   1.000  N
  O111     1.0000 0.53082  0.14262  0.81372  Biso   1.000  O
  C331     1.0000 0.56481  0.10291  0.80975  Biso   1.000  C
  C332     1.0000 0.54026  0.11913  0.82540  Biso   1.000  C
  C333     1.0000 0.59410  0.12822  0.71790  Biso   1.000  C
  H221     1.0000 0.57770  0.14050  0.72350  Biso   1.000  H
  N111     1.0000 0.60960  0.13085  0.69198  Biso   1.000  N
  O112     1.0000 0.53080  0.10758  0.84930  Biso   1.000  O
  C334     1.0000 0.57310  0.11006  0.77920  Biso   1.000  C
  H222     1.0000 0.56180  0.12450  0.76840  Biso   1.000  H
  C335     1.0000 0.57800  0.11670  0.78570  Biso   1.000  C
  H223     1.0000 0.56990  0.13470  0.77770  Biso   1.000  H
  C336     1.0000 0.60670  0.13950  0.72760  Biso   1.000  C
  H224     1.0000 0.59110  0.15290  0.73330  Biso   1.000  H
  N112     1.0000 0.62280  0.14280  0.70380  Biso   1.000  N
  O113     1.0000 0.96918  0.64262  0.18628  Biso   1.000  O
  C337     1.0000 0.93519  0.60291  0.19025  Biso   1.000  C
  C338     1.0000 0.95974  0.61913  0.17460  Biso   1.000  C
  C339     1.0000 0.90590  0.62822  0.28210  Biso   1.000  C
  H225     1.0000 0.92230  0.64050  0.27650  Biso   1.000  H
  N113     1.0000 0.89040  0.63085  0.30802  Biso   1.000  N
  O114     1.0000 0.96920  0.60758  0.15070  Biso   1.000  O
  C340     1.0000 0.92690  0.61006  0.22080  Biso   1.000  C
  H226     1.0000 0.93820  0.62450  0.23160  Biso   1.000  H
  C341     1.0000 0.92200  0.61670  0.21430  Biso   1.000  C
  H227     1.0000 0.93010  0.63470  0.22230  Biso   1.000  H
  C342     1.0000 0.89330  0.63950  0.27240  Biso   1.000  C
  H228     1.0000 0.90890  0.65290  0.26670  Biso   1.000  H
  N114     1.0000 0.87720  0.64280  0.29620  Biso   1.000  N
  O115     1.0000 0.96918  0.14262  0.68628  Biso   1.000  O
  C343     1.0000 0.93519  0.10291  0.69025  Biso   1.000  C
  C344     1.0000 0.95974  0.11913  0.67460  Biso   1.000  C
  C345     1.0000 0.90590  0.12822  0.78210  Biso   1.000  C
  H229     1.0000 0.92230  0.14050  0.77650  Biso   1.000  H
  N115     1.0000 0.89040  0.13085  0.80802  Biso   1.000  N
  O116     1.0000 0.96920  0.10758  0.65070  Biso   1.000  O
  C346     1.0000 0.92690  0.11006  0.72080  Biso   1.000  C
  H230     1.0000 0.93820  0.12450  0.73160  Biso   1.000  H
  C347     1.0000 0.92200  0.11670  0.71430  Biso   1.000  C
  H231     1.0000 0.93010  0.13470  0.72230  Biso   1.000  H
  C348     1.0000 0.89330  0.13950  0.77240  Biso   1.000  C
  H232     1.0000 0.90890  0.15290  0.76670  Biso   1.000  H
  N116     1.0000 0.87720  0.14280  0.79620  Biso   1.000  N
  O117     1.0000 0.46918  0.64262  0.68628  Biso   1.000  O
  C349     1.0000 0.43519  0.60291  0.69025  Biso   1.000  C
  C350     1.0000 0.45974  0.61913  0.67460  Biso   1.000  C
  C351     1.0000 0.40590  0.62822  0.78210  Biso   1.000  C
  H233     1.0000 0.42230  0.64050  0.77650  Biso   1.000  H
  N117     1.0000 0.39040  0.63085  0.80802  Biso   1.000  N
  O118     1.0000 0.46920  0.60758  0.65070  Biso   1.000  O
  C352     1.0000 0.42690  0.61006  0.72080  Biso   1.000  C
  H234     1.0000 0.43820  0.62450  0.73160  Biso   1.000  H
  C353     1.0000 0.42200  0.61670  0.71430  Biso   1.000  C
  H235     1.0000 0.43010  0.63470  0.72230  Biso   1.000  H
  C354     1.0000 0.39330  0.63950  0.77240  Biso   1.000  C
  H236     1.0000 0.40890  0.65290  0.76670  Biso   1.000  H
  N118     1.0000 0.37720  0.64280  0.79620  Biso   1.000  N
  O119     1.0000 0.46918  0.14262  0.18628  Biso   1.000  O
  C355     1.0000 0.43519  0.10291  0.19025  Biso   1.000  C
  C356     1.0000 0.45974  0.11913  0.17460  Biso   1.000  C
  C357     1.0000 0.40590  0.12822  0.28210  Biso   1.000  C
  H237     1.0000 0.42230  0.14050  0.27650  Biso   1.000  H
  N119     1.0000 0.39040  0.13085  0.30802  Biso   1.000  N
  O120     1.0000 0.46920  0.10758  0.15070  Biso   1.000  O
  C358     1.0000 0.42690  0.11006  0.22080  Biso   1.000  C
  H238     1.0000 0.43820  0.12450  0.23160  Biso   1.000  H
  C359     1.0000 0.42200  0.11670  0.21430  Biso   1.000  C
  H239     1.0000 0.43010  0.13470  0.22230  Biso   1.000  H
  C360     1.0000 0.39330  0.13950  0.27240  Biso   1.000  C
  H240     1.0000 0.40890  0.15290  0.26670  Biso   1.000  H
  N120     1.0000 0.37720  0.14280  0.29620  Biso   1.000  N
  O121     1.0000 0.03082  0.35738  0.18628  Biso   1.000  O
  C361     1.0000 0.06481  0.39709  0.19025  Biso   1.000  C
  C362     1.0000 0.04026  0.38087  0.17460  Biso   1.000  C
  C363     1.0000 0.09410  0.37178  0.28210  Biso   1.000  C
  H241     1.0000 0.07770  0.35950  0.27650  Biso   1.000  H
  N121     1.0000 0.10960  0.36915  0.30802  Biso   1.000  N
  O122     1.0000 0.03080  0.39242  0.15070  Biso   1.000  O
  C364     1.0000 0.07310  0.38994  0.22080  Biso   1.000  C
  H242     1.0000 0.06180  0.37550  0.23160  Biso   1.000  H
  C365     1.0000 0.07800  0.38330  0.21430  Biso   1.000  C
  H243     1.0000 0.06990  0.36530  0.22230  Biso   1.000  H
  C366     1.0000 0.10670  0.36050  0.27240  Biso   1.000  C
  H244     1.0000 0.09110  0.34710  0.26670  Biso   1.000  H
  N122     1.0000 0.12280  0.35720  0.29620  Biso   1.000  N
  O123     1.0000 0.03082  0.85738  0.68628  Biso   1.000  O
  C367     1.0000 0.06481  0.89709  0.69025  Biso   1.000  C
  C368     1.0000 0.04026  0.88087  0.67460  Biso   1.000  C
  C369     1.0000 0.09410  0.87178  0.78210  Biso   1.000  C
  H245     1.0000 0.07770  0.85950  0.77650  Biso   1.000  H
  N123     1.0000 0.10960  0.86915  0.80802  Biso   1.000  N
  O124     1.0000 0.03080  0.89242  0.65070  Biso   1.000  O
  C370     1.0000 0.07310  0.88994  0.72080  Biso   1.000  C
  H246     1.0000 0.06180  0.87550  0.73160  Biso   1.000  H
  C371     1.0000 0.07800  0.88330  0.71430  Biso   1.000  C
  H247     1.0000 0.06990  0.86530  0.72230  Biso   1.000  H
  C372     1.0000 0.10670  0.86050  0.77240  Biso   1.000  C
  H248     1.0000 0.09110  0.84710  0.76670  Biso   1.000  H
  N124     1.0000 0.12280  0.85720  0.79620  Biso   1.000  N
  O125     1.0000 0.53082  0.35738  0.68628  Biso   1.000  O
  C373     1.0000 0.56481  0.39709  0.69025  Biso   1.000  C
  C374     1.0000 0.54026  0.38087  0.67460  Biso   1.000  C
  C375     1.0000 0.59410  0.37178  0.78210  Biso   1.000  C
  H249     1.0000 0.57770  0.35950  0.77650  Biso   1.000  H
  N125     1.0000 0.60960  0.36915  0.80802  Biso   1.000  N
  O126     1.0000 0.53080  0.39242  0.65070  Biso   1.000  O
  C376     1.0000 0.57310  0.38994  0.72080  Biso   1.000  C
  H250     1.0000 0.56180  0.37550  0.73160  Biso   1.000  H
  C377     1.0000 0.57800  0.38330  0.71430  Biso   1.000  C
  H251     1.0000 0.56990  0.36530  0.72230  Biso   1.000  H
  C378     1.0000 0.60670  0.36050  0.77240  Biso   1.000  C
  H252     1.0000 0.59110  0.34710  0.76670  Biso   1.000  H
  N126     1.0000 0.62280  0.35720  0.79620  Biso   1.000  N
  O127     1.0000 0.53082  0.85738  0.18628  Biso   1.000  O
  C379     1.0000 0.56481  0.89709  0.19025  Biso   1.000  C
  C380     1.0000 0.54026  0.88087  0.17460  Biso   1.000  C
  C381     1.0000 0.59410  0.87178  0.28210  Biso   1.000  C
  H253     1.0000 0.57770  0.85950  0.27650  Biso   1.000  H
  N127     1.0000 0.60960  0.86915  0.30802  Biso   1.000  N
  O128     1.0000 0.53080  0.89242  0.15070  Biso   1.000  O
  C382     1.0000 0.57310  0.88994  0.22080  Biso   1.000  C
  H254     1.0000 0.56180  0.87550  0.23160  Biso   1.000  H
  C383     1.0000 0.57800  0.88330  0.21430  Biso   1.000  C
  H255     1.0000 0.56990  0.86530  0.22230  Biso   1.000  H
  C384     1.0000 0.60670  0.86050  0.27240  Biso   1.000  C
  H256     1.0000 0.59110  0.84710  0.26670  Biso   1.000  H
  N128     1.0000 0.62280  0.85720  0.29620  Biso   1.000  N
  O129     1.0000 0.35738  0.18628  0.03082  Biso   1.000  O
  C385     1.0000 0.39709  0.19025  0.06481  Biso   1.000  C
  C386     1.0000 0.38087  0.17460  0.04026  Biso   1.000  C
  C387     1.0000 0.37178  0.28210  0.09410  Biso   1.000  C
  H257     1.0000 0.35950  0.27650  0.07770  Biso   1.000  H
  N129     1.0000 0.36915  0.30802  0.10960  Biso   1.000  N
  O130     1.0000 0.39242  0.15070  0.03080  Biso   1.000  O
  C388     1.0000 0.38994  0.22080  0.07310  Biso   1.000  C
  H258     1.0000 0.37550  0.23160  0.06180  Biso   1.000  H
  C389     1.0000 0.38330  0.21430  0.07800  Biso   1.000  C
  H259     1.0000 0.36530  0.22230  0.06990  Biso   1.000  H
  C390     1.0000 0.36050  0.27240  0.10670  Biso   1.000  C
  H260     1.0000 0.34710  0.26670  0.09110  Biso   1.000  H
  N130     1.0000 0.35720  0.29620  0.12280  Biso   1.000  N
  O131     1.0000 0.35738  0.68628  0.53082  Biso   1.000  O
  C391     1.0000 0.39709  0.69025  0.56481  Biso   1.000  C
  C392     1.0000 0.38087  0.67460  0.54026  Biso   1.000  C
  C393     1.0000 0.37178  0.78210  0.59410  Biso   1.000  C
  H261     1.0000 0.35950  0.77650  0.57770  Biso   1.000  H
  N131     1.0000 0.36915  0.80802  0.60960  Biso   1.000  N
  O132     1.0000 0.39242  0.65070  0.53080  Biso   1.000  O
  C394     1.0000 0.38994  0.72080  0.57310  Biso   1.000  C
  H262     1.0000 0.37550  0.73160  0.56180  Biso   1.000  H
  C395     1.0000 0.38330  0.71430  0.57800  Biso   1.000  C
  H263     1.0000 0.36530  0.72230  0.56990  Biso   1.000  H
  C396     1.0000 0.36050  0.77240  0.60670  Biso   1.000  C
  H264     1.0000 0.34710  0.76670  0.59110  Biso   1.000  H
  N132     1.0000 0.35720  0.79620  0.62280  Biso   1.000  N
  O133     1.0000 0.85738  0.18628  0.53082  Biso   1.000  O
  C397     1.0000 0.89709  0.19025  0.56481  Biso   1.000  C
  C398     1.0000 0.88087  0.17460  0.54026  Biso   1.000  C
  C399     1.0000 0.87178  0.28210  0.59410  Biso   1.000  C
  H265     1.0000 0.85950  0.27650  0.57770  Biso   1.000  H
  N133     1.0000 0.86915  0.30802  0.60960  Biso   1.000  N
  O134     1.0000 0.89242  0.15070  0.53080  Biso   1.000  O
  C400     1.0000 0.88994  0.22080  0.57310  Biso   1.000  C
  H266     1.0000 0.87550  0.23160  0.56180  Biso   1.000  H
  C401     1.0000 0.88330  0.21430  0.57800  Biso   1.000  C
  H267     1.0000 0.86530  0.22230  0.56990  Biso   1.000  H
  C402     1.0000 0.86050  0.27240  0.60670  Biso   1.000  C
  H268     1.0000 0.84710  0.26670  0.59110  Biso   1.000  H
  N134     1.0000 0.85720  0.29620  0.62280  Biso   1.000  N
  O135     1.0000 0.85738  0.68628  0.03082  Biso   1.000  O
  C403     1.0000 0.89709  0.69025  0.06481  Biso   1.000  C
  C404     1.0000 0.88087  0.67460  0.04026  Biso   1.000  C
  C405     1.0000 0.87178  0.78210  0.09410  Biso   1.000  C
  H269     1.0000 0.85950  0.77650  0.07770  Biso   1.000  H
  N135     1.0000 0.86915  0.80802  0.10960  Biso   1.000  N
  O136     1.0000 0.89242  0.65070  0.03080  Biso   1.000  O
  C406     1.0000 0.88994  0.72080  0.07310  Biso   1.000  C
  H270     1.0000 0.87550  0.73160  0.06180  Biso   1.000  H
  C407     1.0000 0.88330  0.71430  0.07800  Biso   1.000  C
  H271     1.0000 0.86530  0.72230  0.06990  Biso   1.000  H
  C408     1.0000 0.86050  0.77240  0.10670  Biso   1.000  C
  H272     1.0000 0.84710  0.76670  0.09110  Biso   1.000  H
  N136     1.0000 0.85720  0.79620  0.12280  Biso   1.000  N
  O137     1.0000 0.64262  0.18628  0.96918  Biso   1.000  O
  C409     1.0000 0.60291  0.19025  0.93519  Biso   1.000  C
  C410     1.0000 0.61913  0.17460  0.95974  Biso   1.000  C
  C411     1.0000 0.62822  0.28210  0.90590  Biso   1.000  C
  H273     1.0000 0.64050  0.27650  0.92230  Biso   1.000  H
  N137     1.0000 0.63085  0.30802  0.89040  Biso   1.000  N
  O138     1.0000 0.60758  0.15070  0.96920  Biso   1.000  O
  C412     1.0000 0.61006  0.22080  0.92690  Biso   1.000  C
  H274     1.0000 0.62450  0.23160  0.93820  Biso   1.000  H
  C413     1.0000 0.61670  0.21430  0.92200  Biso   1.000  C
  H275     1.0000 0.63470  0.22230  0.93010  Biso   1.000  H
  C414     1.0000 0.63950  0.27240  0.89330  Biso   1.000  C
  H276     1.0000 0.65290  0.26670  0.90890  Biso   1.000  H
  N138     1.0000 0.64280  0.29620  0.87720  Biso   1.000  N
  O139     1.0000 0.64262  0.68628  0.46918  Biso   1.000  O
  C415     1.0000 0.60291  0.69025  0.43519  Biso   1.000  C
  C416     1.0000 0.61913  0.67460  0.45974  Biso   1.000  C
  C417     1.0000 0.62822  0.78210  0.40590  Biso   1.000  C
  H277     1.0000 0.64050  0.77650  0.42230  Biso   1.000  H
  N139     1.0000 0.63085  0.80802  0.39040  Biso   1.000  N
  O140     1.0000 0.60758  0.65070  0.46920  Biso   1.000  O
  C418     1.0000 0.61006  0.72080  0.42690  Biso   1.000  C
  H278     1.0000 0.62450  0.73160  0.43820  Biso   1.000  H
  C419     1.0000 0.61670  0.71430  0.42200  Biso   1.000  C
  H279     1.0000 0.63470  0.72230  0.43010  Biso   1.000  H
  C420     1.0000 0.63950  0.77240  0.39330  Biso   1.000  C
  H280     1.0000 0.65290  0.76670  0.40890  Biso   1.000  H
  N140     1.0000 0.64280  0.79620  0.37720  Biso   1.000  N
  O141     1.0000 0.14262  0.18628  0.46918  Biso   1.000  O
  C421     1.0000 0.10291  0.19025  0.43519  Biso   1.000  C
  C422     1.0000 0.11913  0.17460  0.45974  Biso   1.000  C
  C423     1.0000 0.12822  0.28210  0.40590  Biso   1.000  C
  H281     1.0000 0.14050  0.27650  0.42230  Biso   1.000  H
  N141     1.0000 0.13085  0.30802  0.39040  Biso   1.000  N
  O142     1.0000 0.10758  0.15070  0.46920  Biso   1.000  O
  C424     1.0000 0.11006  0.22080  0.42690  Biso   1.000  C
  H282     1.0000 0.12450  0.23160  0.43820  Biso   1.000  H
  C425     1.0000 0.11670  0.21430  0.42200  Biso   1.000  C
  H283     1.0000 0.13470  0.22230  0.43010  Biso   1.000  H
  C426     1.0000 0.13950  0.27240  0.39330  Biso   1.000  C
  H284     1.0000 0.15290  0.26670  0.40890  Biso   1.000  H
  N142     1.0000 0.14280  0.29620  0.37720  Biso   1.000  N
  O143     1.0000 0.14262  0.68628  0.96918  Biso   1.000  O
  C427     1.0000 0.10291  0.69025  0.93519  Biso   1.000  C
  C428     1.0000 0.11913  0.67460  0.95974  Biso   1.000  C
  C429     1.0000 0.12822  0.78210  0.90590  Biso   1.000  C
  H285     1.0000 0.14050  0.77650  0.92230  Biso   1.000  H
  N143     1.0000 0.13085  0.80802  0.89040  Biso   1.000  N
  O144     1.0000 0.10758  0.65070  0.96920  Biso   1.000  O
  C430     1.0000 0.11006  0.72080  0.92690  Biso   1.000  C
  H286     1.0000 0.12450  0.73160  0.93820  Biso   1.000  H
  C431     1.0000 0.11670  0.71430  0.92200  Biso   1.000  C
  H287     1.0000 0.13470  0.72230  0.93010  Biso   1.000  H
  C432     1.0000 0.13950  0.77240  0.89330  Biso   1.000  C
  H288     1.0000 0.15290  0.76670  0.90890  Biso   1.000  H
  N144     1.0000 0.14280  0.79620  0.87720  Biso   1.000  N
  O145     1.0000 0.64262  0.81372  0.03082  Biso   1.000  O
  C433     1.0000 0.60291  0.80975  0.06481  Biso   1.000  C
  C434     1.0000 0.61913  0.82540  0.04026  Biso   1.000  C
  C435     1.0000 0.62822  0.71790  0.09410  Biso   1.000  C
  H289     1.0000 0.64050  0.72350  0.07770  Biso   1.000  H
  N145     1.0000 0.63085  0.69198  0.10960  Biso   1.000  N
  O146     1.0000 0.60758  0.84930  0.03080  Biso   1.000  O
  C436     1.0000 0.61006  0.77920  0.07310  Biso   1.000  C
  H290     1.0000 0.62450  0.76840  0.06180  Biso   1.000  H
  C437     1.0000 0.61670  0.78570  0.07800  Biso   1.000  C
  H291     1.0000 0.63470  0.77770  0.06990  Biso   1.000  H
  C438     1.0000 0.63950  0.72760  0.10670  Biso   1.000  C
  H292     1.0000 0.65290  0.73330  0.09110  Biso   1.000  H
  N146     1.0000 0.64280  0.70380  0.12280  Biso   1.000  N
  O147     1.0000 0.64262  0.31372  0.53082  Biso   1.000  O
  C439     1.0000 0.60291  0.30975  0.56481  Biso   1.000  C
  C440     1.0000 0.61913  0.32540  0.54026  Biso   1.000  C
  C441     1.0000 0.62822  0.21790  0.59410  Biso   1.000  C
  H293     1.0000 0.64050  0.22350  0.57770  Biso   1.000  H
  N147     1.0000 0.63085  0.19198  0.60960  Biso   1.000  N
  O148     1.0000 0.60758  0.34930  0.53080  Biso   1.000  O
  C442     1.0000 0.61006  0.27920  0.57310  Biso   1.000  C
  H294     1.0000 0.62450  0.26840  0.56180  Biso   1.000  H
  C443     1.0000 0.61670  0.28570  0.57800  Biso   1.000  C
  H295     1.0000 0.63470  0.27770  0.56990  Biso   1.000  H
  C444     1.0000 0.63950  0.22760  0.60670  Biso   1.000  C
  H296     1.0000 0.65290  0.23330  0.59110  Biso   1.000  H
  N148     1.0000 0.64280  0.20380  0.62280  Biso   1.000  N
  O149     1.0000 0.14262  0.81372  0.53082  Biso   1.000  O
  C445     1.0000 0.10291  0.80975  0.56481  Biso   1.000  C
  C446     1.0000 0.11913  0.82540  0.54026  Biso   1.000  C
  C447     1.0000 0.12822  0.71790  0.59410  Biso   1.000  C
  H297     1.0000 0.14050  0.72350  0.57770  Biso   1.000  H
  N149     1.0000 0.13085  0.69198  0.60960  Biso   1.000  N
  O150     1.0000 0.10758  0.84930  0.53080  Biso   1.000  O
  C448     1.0000 0.11006  0.77920  0.57310  Biso   1.000  C
  H298     1.0000 0.12450  0.76840  0.56180  Biso   1.000  H
  C449     1.0000 0.11670  0.78570  0.57800  Biso   1.000  C
  H299     1.0000 0.13470  0.77770  0.56990  Biso   1.000  H
  C450     1.0000 0.13950  0.72760  0.60670  Biso   1.000  C
  H300     1.0000 0.15290  0.73330  0.59110  Biso   1.000  H
  N150     1.0000 0.14280  0.70380  0.62280  Biso   1.000  N
  O151     1.0000 0.14262  0.31372  0.03082  Biso   1.000  O
  C451     1.0000 0.10291  0.30975  0.06481  Biso   1.000  C
  C452     1.0000 0.11913  0.32540  0.04026  Biso   1.000  C
  C453     1.0000 0.12822  0.21790  0.09410  Biso   1.000  C
  H301     1.0000 0.14050  0.22350  0.07770  Biso   1.000  H
  N151     1.0000 0.13085  0.19198  0.10960  Biso   1.000  N
  O152     1.0000 0.10758  0.34930  0.03080  Biso   1.000  O
  C454     1.0000 0.11006  0.27920  0.07310  Biso   1.000  C
  H302     1.0000 0.12450  0.26840  0.06180  Biso   1.000  H
  C455     1.0000 0.11670  0.28570  0.07800  Biso   1.000  C
  H303     1.0000 0.13470  0.27770  0.06990  Biso   1.000  H
  C456     1.0000 0.13950  0.22760  0.10670  Biso   1.000  C
  H304     1.0000 0.15290  0.23330  0.09110  Biso   1.000  H
  N152     1.0000 0.14280  0.20380  0.12280  Biso   1.000  N
  O153     1.0000 0.35738  0.81372  0.96918  Biso   1.000  O
  C457     1.0000 0.39709  0.80975  0.93519  Biso   1.000  C
  C458     1.0000 0.38087  0.82540  0.95974  Biso   1.000  C
  C459     1.0000 0.37178  0.71790  0.90590  Biso   1.000  C
  H305     1.0000 0.35950  0.72350  0.92230  Biso   1.000  H
  N153     1.0000 0.36915  0.69198  0.89040  Biso   1.000  N
  O154     1.0000 0.39242  0.84930  0.96920  Biso   1.000  O
  C460     1.0000 0.38994  0.77920  0.92690  Biso   1.000  C
  H306     1.0000 0.37550  0.76840  0.93820  Biso   1.000  H
  C461     1.0000 0.38330  0.78570  0.92200  Biso   1.000  C
  H307     1.0000 0.36530  0.77770  0.93010  Biso   1.000  H
  C462     1.0000 0.36050  0.72760  0.89330  Biso   1.000  C
  H308     1.0000 0.34710  0.73330  0.90890  Biso   1.000  H
  N154     1.0000 0.35720  0.70380  0.87720  Biso   1.000  N
  O155     1.0000 0.35738  0.31372  0.46918  Biso   1.000  O
  C463     1.0000 0.39709  0.30975  0.43519  Biso   1.000  C
  C464     1.0000 0.38087  0.32540  0.45974  Biso   1.000  C
  C465     1.0000 0.37178  0.21790  0.40590  Biso   1.000  C
  H309     1.0000 0.35950  0.22350  0.42230  Biso   1.000  H
  N155     1.0000 0.36915  0.19198  0.39040  Biso   1.000  N
  O156     1.0000 0.39242  0.34930  0.46920  Biso   1.000  O
  C466     1.0000 0.38994  0.27920  0.42690  Biso   1.000  C
  H310     1.0000 0.37550  0.26840  0.43820  Biso   1.000  H
  C467     1.0000 0.38330  0.28570  0.42200  Biso   1.000  C
  H311     1.0000 0.36530  0.27770  0.43010  Biso   1.000  H
  C468     1.0000 0.36050  0.22760  0.39330  Biso   1.000  C
  H312     1.0000 0.34710  0.23330  0.40890  Biso   1.000  H
  N156     1.0000 0.35720  0.20380  0.37720  Biso   1.000  N
  O157     1.0000 0.85738  0.81372  0.46918  Biso   1.000  O
  C469     1.0000 0.89709  0.80975  0.43519  Biso   1.000  C
  C470     1.0000 0.88087  0.82540  0.45974  Biso   1.000  C
  C471     1.0000 0.87178  0.71790  0.40590  Biso   1.000  C
  H313     1.0000 0.85950  0.72350  0.42230  Biso   1.000  H
  N157     1.0000 0.86915  0.69198  0.39040  Biso   1.000  N
  O158     1.0000 0.89242  0.84930  0.46920  Biso   1.000  O
  C472     1.0000 0.88994  0.77920  0.42690  Biso   1.000  C
  H314     1.0000 0.87550  0.76840  0.43820  Biso   1.000  H
  C473     1.0000 0.88330  0.78570  0.42200  Biso   1.000  C
  H315     1.0000 0.86530  0.77770  0.43010  Biso   1.000  H
  C474     1.0000 0.86050  0.72760  0.39330  Biso   1.000  C
  H316     1.0000 0.84710  0.73330  0.40890  Biso   1.000  H
  N158     1.0000 0.85720  0.70380  0.37720  Biso   1.000  N
  O159     1.0000 0.85738  0.31372  0.96918  Biso   1.000  O
  C475     1.0000 0.89709  0.30975  0.93519  Biso   1.000  C
  C476     1.0000 0.88087  0.32540  0.95974  Biso   1.000  C
  C477     1.0000 0.87178  0.21790  0.90590  Biso   1.000  C
  H317     1.0000 0.85950  0.22350  0.92230  Biso   1.000  H
  N159     1.0000 0.86915  0.19198  0.89040  Biso   1.000  N
  O160     1.0000 0.89242  0.34930  0.96920  Biso   1.000  O
  C478     1.0000 0.88994  0.27920  0.92690  Biso   1.000  C
  H318     1.0000 0.87550  0.26840  0.93820  Biso   1.000  H
  C479     1.0000 0.88330  0.28570  0.92200  Biso   1.000  C
  H319     1.0000 0.86530  0.27770  0.93010  Biso   1.000  H
  C480     1.0000 0.86050  0.22760  0.89330  Biso   1.000  C
  H320     1.0000 0.84710  0.23330  0.90890  Biso   1.000  H
  N160     1.0000 0.85720  0.20380  0.87720  Biso   1.000  N
  O161     1.0000 0.18628  0.96918  0.64262  Biso   1.000  O
  C481     1.0000 0.19025  0.93519  0.60291  Biso   1.000  C
  C482     1.0000 0.17460  0.95974  0.61913  Biso   1.000  C
  C483     1.0000 0.28210  0.90590  0.62822  Biso   1.000  C
  H321     1.0000 0.27650  0.92230  0.64050  Biso   1.000  H
  N161     1.0000 0.30802  0.89040  0.63085  Biso   1.000  N
  O162     1.0000 0.15070  0.96920  0.60758  Biso   1.000  O
  C484     1.0000 0.22080  0.92690  0.61006  Biso   1.000  C
  H322     1.0000 0.23160  0.93820  0.62450  Biso   1.000  H
  C485     1.0000 0.21430  0.92200  0.61670  Biso   1.000  C
  H323     1.0000 0.22230  0.93010  0.63470  Biso   1.000  H
  C486     1.0000 0.27240  0.89330  0.63950  Biso   1.000  C
  H324     1.0000 0.26670  0.90890  0.65290  Biso   1.000  H
  N162     1.0000 0.29620  0.87720  0.64280  Biso   1.000  N
  O163     1.0000 0.18628  0.46918  0.14262  Biso   1.000  O
  C487     1.0000 0.19025  0.43519  0.10291  Biso   1.000  C
  C488     1.0000 0.17460  0.45974  0.11913  Biso   1.000  C
  C489     1.0000 0.28210  0.40590  0.12822  Biso   1.000  C
  H325     1.0000 0.27650  0.42230  0.14050  Biso   1.000  H
  N163     1.0000 0.30802  0.39040  0.13085  Biso   1.000  N
  O164     1.0000 0.15070  0.46920  0.10758  Biso   1.000  O
  C490     1.0000 0.22080  0.42690  0.11006  Biso   1.000  C
  H326     1.0000 0.23160  0.43820  0.12450  Biso   1.000  H
  C491     1.0000 0.21430  0.42200  0.11670  Biso   1.000  C
  H327     1.0000 0.22230  0.43010  0.13470  Biso   1.000  H
  C492     1.0000 0.27240  0.39330  0.13950  Biso   1.000  C
  H328     1.0000 0.26670  0.40890  0.15290  Biso   1.000  H
  N164     1.0000 0.29620  0.37720  0.14280  Biso   1.000  N
  O165     1.0000 0.68628  0.96918  0.14262  Biso   1.000  O
  C493     1.0000 0.69025  0.93519  0.10291  Biso   1.000  C
  C494     1.0000 0.67460  0.95974  0.11913  Biso   1.000  C
  C495     1.0000 0.78210  0.90590  0.12822  Biso   1.000  C
  H329     1.0000 0.77650  0.92230  0.14050  Biso   1.000  H
  N165     1.0000 0.80802  0.89040  0.13085  Biso   1.000  N
  O166     1.0000 0.65070  0.96920  0.10758  Biso   1.000  O
  C496     1.0000 0.72080  0.92690  0.11006  Biso   1.000  C
  H330     1.0000 0.73160  0.93820  0.12450  Biso   1.000  H
  C497     1.0000 0.71430  0.92200  0.11670  Biso   1.000  C
  H331     1.0000 0.72230  0.93010  0.13470  Biso   1.000  H
  C498     1.0000 0.77240  0.89330  0.13950  Biso   1.000  C
  H332     1.0000 0.76670  0.90890  0.15290  Biso   1.000  H
  N166     1.0000 0.79620  0.87720  0.14280  Biso   1.000  N
  O167     1.0000 0.68628  0.46918  0.64262  Biso   1.000  O
  C499     1.0000 0.69025  0.43519  0.60291  Biso   1.000  C
  C500     1.0000 0.67460  0.45974  0.61913  Biso   1.000  C
  C501     1.0000 0.78210  0.40590  0.62822  Biso   1.000  C
  H333     1.0000 0.77650  0.42230  0.64050  Biso   1.000  H
  N167     1.0000 0.80802  0.39040  0.63085  Biso   1.000  N
  O168     1.0000 0.65070  0.46920  0.60758  Biso   1.000  O
  C502     1.0000 0.72080  0.42690  0.61006  Biso   1.000  C
  H334     1.0000 0.73160  0.43820  0.62450  Biso   1.000  H
  C503     1.0000 0.71430  0.42200  0.61670  Biso   1.000  C
  H335     1.0000 0.72230  0.43010  0.63470  Biso   1.000  H
  C504     1.0000 0.77240  0.39330  0.63950  Biso   1.000  C
  H336     1.0000 0.76670  0.40890  0.65290  Biso   1.000  H
  N168     1.0000 0.79620  0.37720  0.64280  Biso   1.000  N
  O169     1.0000 0.18628  0.03082  0.35738  Biso   1.000  O
  C505     1.0000 0.19025  0.06481  0.39709  Biso   1.000  C
  C506     1.0000 0.17460  0.04026  0.38087  Biso   1.000  C
  C507     1.0000 0.28210  0.09410  0.37178  Biso   1.000  C
  H337     1.0000 0.27650  0.07770  0.35950  Biso   1.000  H
  N169     1.0000 0.30802  0.10960  0.36915  Biso   1.000  N
  O170     1.0000 0.15070  0.03080  0.39242  Biso   1.000  O
  C508     1.0000 0.22080  0.07310  0.38994  Biso   1.000  C
  H338     1.0000 0.23160  0.06180  0.37550  Biso   1.000  H
  C509     1.0000 0.21430  0.07800  0.38330  Biso   1.000  C
  H339     1.0000 0.22230  0.06990  0.36530  Biso   1.000  H
  C510     1.0000 0.27240  0.10670  0.36050  Biso   1.000  C
  H340     1.0000 0.26670  0.09110  0.34710  Biso   1.000  H
  N170     1.0000 0.29620  0.12280  0.35720  Biso   1.000  N
  O171     1.0000 0.18628  0.53082  0.85738  Biso   1.000  O
  C511     1.0000 0.19025  0.56481  0.89709  Biso   1.000  C
  C512     1.0000 0.17460  0.54026  0.88087  Biso   1.000  C
  C513     1.0000 0.28210  0.59410  0.87178  Biso   1.000  C
  H341     1.0000 0.27650  0.57770  0.85950  Biso   1.000  H
  N171     1.0000 0.30802  0.60960  0.86915  Biso   1.000  N
  O172     1.0000 0.15070  0.53080  0.89242  Biso   1.000  O
  C514     1.0000 0.22080  0.57310  0.88994  Biso   1.000  C
  H342     1.0000 0.23160  0.56180  0.87550  Biso   1.000  H
  C515     1.0000 0.21430  0.57800  0.88330  Biso   1.000  C
  H343     1.0000 0.22230  0.56990  0.86530  Biso   1.000  H
  C516     1.0000 0.27240  0.60670  0.86050  Biso   1.000  C
  H344     1.0000 0.26670  0.59110  0.84710  Biso   1.000  H
  N172     1.0000 0.29620  0.62280  0.85720  Biso   1.000  N
  O173     1.0000 0.68628  0.03082  0.85738  Biso   1.000  O
  C517     1.0000 0.69025  0.06481  0.89709  Biso   1.000  C
  C518     1.0000 0.67460  0.04026  0.88087  Biso   1.000  C
  C519     1.0000 0.78210  0.09410  0.87178  Biso   1.000  C
  H345     1.0000 0.77650  0.07770  0.85950  Biso   1.000  H
  N173     1.0000 0.80802  0.10960  0.86915  Biso   1.000  N
  O174     1.0000 0.65070  0.03080  0.89242  Biso   1.000  O
  C520     1.0000 0.72080  0.07310  0.88994  Biso   1.000  C
  H346     1.0000 0.73160  0.06180  0.87550  Biso   1.000  H
  C521     1.0000 0.71430  0.07800  0.88330  Biso   1.000  C
  H347     1.0000 0.72230  0.06990  0.86530  Biso   1.000  H
  C522     1.0000 0.77240  0.10670  0.86050  Biso   1.000  C
  H348     1.0000 0.76670  0.09110  0.84710  Biso   1.000  H
  N174     1.0000 0.79620  0.12280  0.85720  Biso   1.000  N
  O175     1.0000 0.68628  0.53082  0.35738  Biso   1.000  O
  C523     1.0000 0.69025  0.56481  0.39709  Biso   1.000  C
  C524     1.0000 0.67460  0.54026  0.38087  Biso   1.000  C
  C525     1.0000 0.78210  0.59410  0.37178  Biso   1.000  C
  H349     1.0000 0.77650  0.57770  0.35950  Biso   1.000  H
  N175     1.0000 0.80802  0.60960  0.36915  Biso   1.000  N
  O176     1.0000 0.65070  0.53080  0.39242  Biso   1.000  O
  C526     1.0000 0.72080  0.57310  0.38994  Biso   1.000  C
  H350     1.0000 0.73160  0.56180  0.37550  Biso   1.000  H
  C527     1.0000 0.71430  0.57800  0.38330  Biso   1.000  C
  H351     1.0000 0.72230  0.56990  0.36530  Biso   1.000  H
  C528     1.0000 0.77240  0.60670  0.36050  Biso   1.000  C
  H352     1.0000 0.76670  0.59110  0.34710  Biso   1.000  H
  N176     1.0000 0.79620  0.62280  0.35720  Biso   1.000  N
  O177     1.0000 0.81372  0.96918  0.35738  Biso   1.000  O
  C529     1.0000 0.80975  0.93519  0.39709  Biso   1.000  C
  C530     1.0000 0.82540  0.95974  0.38087  Biso   1.000  C
  C531     1.0000 0.71790  0.90590  0.37178  Biso   1.000  C
  H353     1.0000 0.72350  0.92230  0.35950  Biso   1.000  H
  N177     1.0000 0.69198  0.89040  0.36915  Biso   1.000  N
  O178     1.0000 0.84930  0.96920  0.39242  Biso   1.000  O
  C532     1.0000 0.77920  0.92690  0.38994  Biso   1.000  C
  H354     1.0000 0.76840  0.93820  0.37550  Biso   1.000  H
  C533     1.0000 0.78570  0.92200  0.38330  Biso   1.000  C
  H355     1.0000 0.77770  0.93010  0.36530  Biso   1.000  H
  C534     1.0000 0.72760  0.89330  0.36050  Biso   1.000  C
  H356     1.0000 0.73330  0.90890  0.34710  Biso   1.000  H
  N178     1.0000 0.70380  0.87720  0.35720  Biso   1.000  N
  O179     1.0000 0.81372  0.46918  0.85738  Biso   1.000  O
  C535     1.0000 0.80975  0.43519  0.89709  Biso   1.000  C
  C536     1.0000 0.82540  0.45974  0.88087  Biso   1.000  C
  C537     1.0000 0.71790  0.40590  0.87178  Biso   1.000  C
  H357     1.0000 0.72350  0.42230  0.85950  Biso   1.000  H
  N179     1.0000 0.69198  0.39040  0.86915  Biso   1.000  N
  O180     1.0000 0.84930  0.46920  0.89242  Biso   1.000  O
  C538     1.0000 0.77920  0.42690  0.88994  Biso   1.000  C
  H358     1.0000 0.76840  0.43820  0.87550  Biso   1.000  H
  C539     1.0000 0.78570  0.42200  0.88330  Biso   1.000  C
  H359     1.0000 0.77770  0.43010  0.86530  Biso   1.000  H
  C540     1.0000 0.72760  0.39330  0.86050  Biso   1.000  C
  H360     1.0000 0.73330  0.40890  0.84710  Biso   1.000  H
  N180     1.0000 0.70380  0.37720  0.85720  Biso   1.000  N
  O181     1.0000 0.31372  0.96918  0.85738  Biso   1.000  O
  C541     1.0000 0.30975  0.93519  0.89709  Biso   1.000  C
  C542     1.0000 0.32540  0.95974  0.88087  Biso   1.000  C
  C543     1.0000 0.21790  0.90590  0.87178  Biso   1.000  C
  H361     1.0000 0.22350  0.92230  0.85950  Biso   1.000  H
  N181     1.0000 0.19198  0.89040  0.86915  Biso   1.000  N
  O182     1.0000 0.34930  0.96920  0.89242  Biso   1.000  O
  C544     1.0000 0.27920  0.92690  0.88994  Biso   1.000  C
  H362     1.0000 0.26840  0.93820  0.87550  Biso   1.000  H
  C545     1.0000 0.28570  0.92200  0.88330  Biso   1.000  C
  H363     1.0000 0.27770  0.93010  0.86530  Biso   1.000  H
  C546     1.0000 0.22760  0.89330  0.86050  Biso   1.000  C
  H364     1.0000 0.23330  0.90890  0.84710  Biso   1.000  H
  N182     1.0000 0.20380  0.87720  0.85720  Biso   1.000  N
  O183     1.0000 0.31372  0.46918  0.35738  Biso   1.000  O
  C547     1.0000 0.30975  0.43519  0.39709  Biso   1.000  C
  C548     1.0000 0.32540  0.45974  0.38087  Biso   1.000  C
  C549     1.0000 0.21790  0.40590  0.37178  Biso   1.000  C
  H365     1.0000 0.22350  0.42230  0.35950  Biso   1.000  H
  N183     1.0000 0.19198  0.39040  0.36915  Biso   1.000  N
  O184     1.0000 0.34930  0.46920  0.39242  Biso   1.000  O
  C550     1.0000 0.27920  0.42690  0.38994  Biso   1.000  C
  H366     1.0000 0.26840  0.43820  0.37550  Biso   1.000  H
  C551     1.0000 0.28570  0.42200  0.38330  Biso   1.000  C
  H367     1.0000 0.27770  0.43010  0.36530  Biso   1.000  H
  C552     1.0000 0.22760  0.39330  0.36050  Biso   1.000  C
  H368     1.0000 0.23330  0.40890  0.34710  Biso   1.000  H
  N184     1.0000 0.20380  0.37720  0.35720  Biso   1.000  N
  O185     1.0000 0.81372  0.03082  0.64262  Biso   1.000  O
  C553     1.0000 0.80975  0.06481  0.60291  Biso   1.000  C
  C554     1.0000 0.82540  0.04026  0.61913  Biso   1.000  C
  C555     1.0000 0.71790  0.09410  0.62822  Biso   1.000  C
  H369     1.0000 0.72350  0.07770  0.64050  Biso   1.000  H
  N185     1.0000 0.69198  0.10960  0.63085  Biso   1.000  N
  O186     1.0000 0.84930  0.03080  0.60758  Biso   1.000  O
  C556     1.0000 0.77920  0.07310  0.61006  Biso   1.000  C
  H370     1.0000 0.76840  0.06180  0.62450  Biso   1.000  H
  C557     1.0000 0.78570  0.07800  0.61670  Biso   1.000  C
  H371     1.0000 0.77770  0.06990  0.63470  Biso   1.000  H
  C558     1.0000 0.72760  0.10670  0.63950  Biso   1.000  C
  H372     1.0000 0.73330  0.09110  0.65290  Biso   1.000  H
  N186     1.0000 0.70380  0.12280  0.64280  Biso   1.000  N
  O187     1.0000 0.81372  0.53082  0.14262  Biso   1.000  O
  C559     1.0000 0.80975  0.56481  0.10291  Biso   1.000  C
  C560     1.0000 0.82540  0.54026  0.11913  Biso   1.000  C
  C561     1.0000 0.71790  0.59410  0.12822  Biso   1.000  C
  H373     1.0000 0.72350  0.57770  0.14050  Biso   1.000  H
  N187     1.0000 0.69198  0.60960  0.13085  Biso   1.000  N
  O188     1.0000 0.84930  0.53080  0.10758  Biso   1.000  O
  C562     1.0000 0.77920  0.57310  0.11006  Biso   1.000  C
  H374     1.0000 0.76840  0.56180  0.12450  Biso   1.000  H
  C563     1.0000 0.78570  0.57800  0.11670  Biso   1.000  C
  H375     1.0000 0.77770  0.56990  0.13470  Biso   1.000  H
  C564     1.0000 0.72760  0.60670  0.13950  Biso   1.000  C
  H376     1.0000 0.73330  0.59110  0.15290  Biso   1.000  H
  N188     1.0000 0.70380  0.62280  0.14280  Biso   1.000  N
  O189     1.0000 0.31372  0.03082  0.14262  Biso   1.000  O
  C565     1.0000 0.30975  0.06481  0.10291  Biso   1.000  C
  C566     1.0000 0.32540  0.04026  0.11913  Biso   1.000  C
  C567     1.0000 0.21790  0.09410  0.12822  Biso   1.000  C
  H377     1.0000 0.22350  0.07770  0.14050  Biso   1.000  H
  N189     1.0000 0.19198  0.10960  0.13085  Biso   1.000  N
  O190     1.0000 0.34930  0.03080  0.10758  Biso   1.000  O
  C568     1.0000 0.27920  0.07310  0.11006  Biso   1.000  C
  H378     1.0000 0.26840  0.06180  0.12450  Biso   1.000  H
  C569     1.0000 0.28570  0.07800  0.11670  Biso   1.000  C
  H379     1.0000 0.27770  0.06990  0.13470  Biso   1.000  H
  C570     1.0000 0.22760  0.10670  0.13950  Biso   1.000  C
  H380     1.0000 0.23330  0.09110  0.15290  Biso   1.000  H
  N190     1.0000 0.20380  0.12280  0.14280  Biso   1.000  N
  O191     1.0000 0.31372  0.53082  0.64262  Biso   1.000  O
  C571     1.0000 0.30975  0.56481  0.60291  Biso   1.000  C
  C572     1.0000 0.32540  0.54026  0.61913  Biso   1.000  C
  C573     1.0000 0.21790  0.59410  0.62822  Biso   1.000  C
  H381     1.0000 0.22350  0.57770  0.64050  Biso   1.000  H
  N191     1.0000 0.19198  0.60960  0.63085  Biso   1.000  N
  O192     1.0000 0.34930  0.53080  0.60758  Biso   1.000  O
  C574     1.0000 0.27920  0.57310  0.61006  Biso   1.000  C
  H382     1.0000 0.26840  0.56180  0.62450  Biso   1.000  H
  C575     1.0000 0.28570  0.57800  0.61670  Biso   1.000  C
  H383     1.0000 0.27770  0.56990  0.63470  Biso   1.000  H
  C576     1.0000 0.22760  0.60670  0.63950  Biso   1.000  C
  H384     1.0000 0.23330  0.59110  0.65290  Biso   1.000  H
  N192     1.0000 0.20380  0.62280  0.64280  Biso   1.000  N
  O193     1.0000 0.64262  0.03082  0.81372  Biso   1.000  O
  C577     1.0000 0.60291  0.06481  0.80975  Biso   1.000  C
  C578     1.0000 0.61913  0.04026  0.82540  Biso   1.000  C
  C579     1.0000 0.62822  0.09410  0.71790  Biso   1.000  C
  H385     1.0000 0.64050  0.07770  0.72350  Biso   1.000  H
  N193     1.0000 0.63085  0.10960  0.69198  Biso   1.000  N
  O194     1.0000 0.60758  0.03080  0.84930  Biso   1.000  O
  C580     1.0000 0.61006  0.07310  0.77920  Biso   1.000  C
  H386     1.0000 0.62450  0.06180  0.76840  Biso   1.000  H
  C581     1.0000 0.61670  0.07800  0.78570  Biso   1.000  C
  H387     1.0000 0.63470  0.06990  0.77770  Biso   1.000  H
  C582     1.0000 0.63950  0.10670  0.72760  Biso   1.000  C
  H388     1.0000 0.65290  0.09110  0.73330  Biso   1.000  H
  N194     1.0000 0.64280  0.12280  0.70380  Biso   1.000  N
  O195     1.0000 0.64262  0.53082  0.31372  Biso   1.000  O
  C583     1.0000 0.60291  0.56481  0.30975  Biso   1.000  C
  C584     1.0000 0.61913  0.54026  0.32540  Biso   1.000  C
  C585     1.0000 0.62822  0.59410  0.21790  Biso   1.000  C
  H389     1.0000 0.64050  0.57770  0.22350  Biso   1.000  H
  N195     1.0000 0.63085  0.60960  0.19198  Biso   1.000  N
  O196     1.0000 0.60758  0.53080  0.34930  Biso   1.000  O
  C586     1.0000 0.61006  0.57310  0.27920  Biso   1.000  C
  H390     1.0000 0.62450  0.56180  0.26840  Biso   1.000  H
  C587     1.0000 0.61670  0.57800  0.28570  Biso   1.000  C
  H391     1.0000 0.63470  0.56990  0.27770  Biso   1.000  H
  C588     1.0000 0.63950  0.60670  0.22760  Biso   1.000  C
  H392     1.0000 0.65290  0.59110  0.23330  Biso   1.000  H
  N196     1.0000 0.64280  0.62280  0.20380  Biso   1.000  N
  O197     1.0000 0.14262  0.03082  0.31372  Biso   1.000  O
  C589     1.0000 0.10291  0.06481  0.30975  Biso   1.000  C
  C590     1.0000 0.11913  0.04026  0.32540  Biso   1.000  C
  C591     1.0000 0.12822  0.09410  0.21790  Biso   1.000  C
  H393     1.0000 0.14050  0.07770  0.22350  Biso   1.000  H
  N197     1.0000 0.13085  0.10960  0.19198  Biso   1.000  N
  O198     1.0000 0.10758  0.03080  0.34930  Biso   1.000  O
  C592     1.0000 0.11006  0.07310  0.27920  Biso   1.000  C
  H394     1.0000 0.12450  0.06180  0.26840  Biso   1.000  H
  C593     1.0000 0.11670  0.07800  0.28570  Biso   1.000  C
  H395     1.0000 0.13470  0.06990  0.27770  Biso   1.000  H
  C594     1.0000 0.13950  0.10670  0.22760  Biso   1.000  C
  H396     1.0000 0.15290  0.09110  0.23330  Biso   1.000  H
  N198     1.0000 0.14280  0.12280  0.20380  Biso   1.000  N
  O199     1.0000 0.14262  0.53082  0.81372  Biso   1.000  O
  C595     1.0000 0.10291  0.56481  0.80975  Biso   1.000  C
  C596     1.0000 0.11913  0.54026  0.82540  Biso   1.000  C
  C597     1.0000 0.12822  0.59410  0.71790  Biso   1.000  C
  H397     1.0000 0.14050  0.57770  0.72350  Biso   1.000  H
  N199     1.0000 0.13085  0.60960  0.69198  Biso   1.000  N
  O200     1.0000 0.10758  0.53080  0.84930  Biso   1.000  O
  C598     1.0000 0.11006  0.57310  0.77920  Biso   1.000  C
  H398     1.0000 0.12450  0.56180  0.76840  Biso   1.000  H
  C599     1.0000 0.11670  0.57800  0.78570  Biso   1.000  C
  H399     1.0000 0.13470  0.56990  0.77770  Biso   1.000  H
  C600     1.0000 0.13950  0.60670  0.72760  Biso   1.000  C
  H400     1.0000 0.15290  0.59110  0.73330  Biso   1.000  H
  N200     1.0000 0.14280  0.62280  0.70380  Biso   1.000  N
  O201     1.0000 0.35738  0.96918  0.81372  Biso   1.000  O
  C601     1.0000 0.39709  0.93519  0.80975  Biso   1.000  C
  C602     1.0000 0.38087  0.95974  0.82540  Biso   1.000  C
  C603     1.0000 0.37178  0.90590  0.71790  Biso   1.000  C
  H401     1.0000 0.35950  0.92230  0.72350  Biso   1.000  H
  N201     1.0000 0.36915  0.89040  0.69198  Biso   1.000  N
  O202     1.0000 0.39242  0.96920  0.84930  Biso   1.000  O
  C604     1.0000 0.38994  0.92690  0.77920  Biso   1.000  C
  H402     1.0000 0.37550  0.93820  0.76840  Biso   1.000  H
  C605     1.0000 0.38330  0.92200  0.78570  Biso   1.000  C
  H403     1.0000 0.36530  0.93010  0.77770  Biso   1.000  H
  C606     1.0000 0.36050  0.89330  0.72760  Biso   1.000  C
  H404     1.0000 0.34710  0.90890  0.73330  Biso   1.000  H
  N202     1.0000 0.35720  0.87720  0.70380  Biso   1.000  N
  O203     1.0000 0.35738  0.46918  0.31372  Biso   1.000  O
  C607     1.0000 0.39709  0.43519  0.30975  Biso   1.000  C
  C608     1.0000 0.38087  0.45974  0.32540  Biso   1.000  C
  C609     1.0000 0.37178  0.40590  0.21790  Biso   1.000  C
  H405     1.0000 0.35950  0.42230  0.22350  Biso   1.000  H
  N203     1.0000 0.36915  0.39040  0.19198  Biso   1.000  N
  O204     1.0000 0.39242  0.46920  0.34930  Biso   1.000  O
  C610     1.0000 0.38994  0.42690  0.27920  Biso   1.000  C
  H406     1.0000 0.37550  0.43820  0.26840  Biso   1.000  H
  C611     1.0000 0.38330  0.42200  0.28570  Biso   1.000  C
  H407     1.0000 0.36530  0.43010  0.27770  Biso   1.000  H
  C612     1.0000 0.36050  0.39330  0.22760  Biso   1.000  C
  H408     1.0000 0.34710  0.40890  0.23330  Biso   1.000  H
  N204     1.0000 0.35720  0.37720  0.20380  Biso   1.000  N
  O205     1.0000 0.85738  0.96918  0.31372  Biso   1.000  O
  C613     1.0000 0.89709  0.93519  0.30975  Biso   1.000  C
  C614     1.0000 0.88087  0.95974  0.32540  Biso   1.000  C
  C615     1.0000 0.87178  0.90590  0.21790  Biso   1.000  C
  H409     1.0000 0.85950  0.92230  0.22350  Biso   1.000  H
  N205     1.0000 0.86915  0.89040  0.19198  Biso   1.000  N
  O206     1.0000 0.89242  0.96920  0.34930  Biso   1.000  O
  C616     1.0000 0.88994  0.92690  0.27920  Biso   1.000  C
  H410     1.0000 0.87550  0.93820  0.26840  Biso   1.000  H
  C617     1.0000 0.88330  0.92200  0.28570  Biso   1.000  C
  H411     1.0000 0.86530  0.93010  0.27770  Biso   1.000  H
  C618     1.0000 0.86050  0.89330  0.22760  Biso   1.000  C
  H412     1.0000 0.84710  0.90890  0.23330  Biso   1.000  H
  N206     1.0000 0.85720  0.87720  0.20380  Biso   1.000  N
  O207     1.0000 0.85738  0.46918  0.81372  Biso   1.000  O
  C619     1.0000 0.89709  0.43519  0.80975  Biso   1.000  C
  C620     1.0000 0.88087  0.45974  0.82540  Biso   1.000  C
  C621     1.0000 0.87178  0.40590  0.71790  Biso   1.000  C
  H413     1.0000 0.85950  0.42230  0.72350  Biso   1.000  H
  N207     1.0000 0.86915  0.39040  0.69198  Biso   1.000  N
  O208     1.0000 0.89242  0.46920  0.84930  Biso   1.000  O
  C622     1.0000 0.88994  0.42690  0.77920  Biso   1.000  C
  H414     1.0000 0.87550  0.43820  0.76840  Biso   1.000  H
  C623     1.0000 0.88330  0.42200  0.78570  Biso   1.000  C
  H415     1.0000 0.86530  0.43010  0.77770  Biso   1.000  H
  C624     1.0000 0.86050  0.39330  0.72760  Biso   1.000  C
  H416     1.0000 0.84710  0.40890  0.73330  Biso   1.000  H
  N208     1.0000 0.85720  0.37720  0.70380  Biso   1.000  N
  O209     1.0000 0.35738  0.03082  0.18628  Biso   1.000  O
  C625     1.0000 0.39709  0.06481  0.19025  Biso   1.000  C
  C626     1.0000 0.38087  0.04026  0.17460  Biso   1.000  C
  C627     1.0000 0.37178  0.09410  0.28210  Biso   1.000  C
  H417     1.0000 0.35950  0.07770  0.27650  Biso   1.000  H
  N209     1.0000 0.36915  0.10960  0.30802  Biso   1.000  N
  O210     1.0000 0.39242  0.03080  0.15070  Biso   1.000  O
  C628     1.0000 0.38994  0.07310  0.22080  Biso   1.000  C
  H418     1.0000 0.37550  0.06180  0.23160  Biso   1.000  H
  C629     1.0000 0.38330  0.07800  0.21430  Biso   1.000  C
  H419     1.0000 0.36530  0.06990  0.22230  Biso   1.000  H
  C630     1.0000 0.36050  0.10670  0.27240  Biso   1.000  C
  H420     1.0000 0.34710  0.09110  0.26670  Biso   1.000  H
  N210     1.0000 0.35720  0.12280  0.29620  Biso   1.000  N
  O211     1.0000 0.35738  0.53082  0.68628  Biso   1.000  O
  C631     1.0000 0.39709  0.56481  0.69025  Biso   1.000  C
  C632     1.0000 0.38087  0.54026  0.67460  Biso   1.000  C
  C633     1.0000 0.37178  0.59410  0.78210  Biso   1.000  C
  H421     1.0000 0.35950  0.57770  0.77650  Biso   1.000  H
  N211     1.0000 0.36915  0.60960  0.80802  Biso   1.000  N
  O212     1.0000 0.39242  0.53080  0.65070  Biso   1.000  O
  C634     1.0000 0.38994  0.57310  0.72080  Biso   1.000  C
  H422     1.0000 0.37550  0.56180  0.73160  Biso   1.000  H
  C635     1.0000 0.38330  0.57800  0.71430  Biso   1.000  C
  H423     1.0000 0.36530  0.56990  0.72230  Biso   1.000  H
  C636     1.0000 0.36050  0.60670  0.77240  Biso   1.000  C
  H424     1.0000 0.34710  0.59110  0.76670  Biso   1.000  H
  N212     1.0000 0.35720  0.62280  0.79620  Biso   1.000  N
  O213     1.0000 0.85738  0.03082  0.68628  Biso   1.000  O
  C637     1.0000 0.89709  0.06481  0.69025  Biso   1.000  C
  C638     1.0000 0.88087  0.04026  0.67460  Biso   1.000  C
  C639     1.0000 0.87178  0.09410  0.78210  Biso   1.000  C
  H425     1.0000 0.85950  0.07770  0.77650  Biso   1.000  H
  N213     1.0000 0.86915  0.10960  0.80802  Biso   1.000  N
  O214     1.0000 0.89242  0.03080  0.65070  Biso   1.000  O
  C640     1.0000 0.88994  0.07310  0.72080  Biso   1.000  C
  H426     1.0000 0.87550  0.06180  0.73160  Biso   1.000  H
  C641     1.0000 0.88330  0.07800  0.71430  Biso   1.000  C
  H427     1.0000 0.86530  0.06990  0.72230  Biso   1.000  H
  C642     1.0000 0.86050  0.10670  0.77240  Biso   1.000  C
  H428     1.0000 0.84710  0.09110  0.76670  Biso   1.000  H
  N214     1.0000 0.85720  0.12280  0.79620  Biso   1.000  N
  O215     1.0000 0.85738  0.53082  0.18628  Biso   1.000  O
  C643     1.0000 0.89709  0.56481  0.19025  Biso   1.000  C
  C644     1.0000 0.88087  0.54026  0.17460  Biso   1.000  C
  C645     1.0000 0.87178  0.59410  0.28210  Biso   1.000  C
  H429     1.0000 0.85950  0.57770  0.27650  Biso   1.000  H
  N215     1.0000 0.86915  0.60960  0.30802  Biso   1.000  N
  O216     1.0000 0.89242  0.53080  0.15070  Biso   1.000  O
  C646     1.0000 0.88994  0.57310  0.22080  Biso   1.000  C
  H430     1.0000 0.87550  0.56180  0.23160  Biso   1.000  H
  C647     1.0000 0.88330  0.57800  0.21430  Biso   1.000  C
  H431     1.0000 0.86530  0.56990  0.22230  Biso   1.000  H
  C648     1.0000 0.86050  0.60670  0.27240  Biso   1.000  C
  H432     1.0000 0.84710  0.59110  0.26670  Biso   1.000  H
  N216     1.0000 0.85720  0.62280  0.29620  Biso   1.000  N
  O217     1.0000 0.64262  0.96918  0.18628  Biso   1.000  O
  C649     1.0000 0.60291  0.93519  0.19025  Biso   1.000  C
  C650     1.0000 0.61913  0.95974  0.17460  Biso   1.000  C
  C651     1.0000 0.62822  0.90590  0.28210  Biso   1.000  C
  H433     1.0000 0.64050  0.92230  0.27650  Biso   1.000  H
  N217     1.0000 0.63085  0.89040  0.30802  Biso   1.000  N
  O218     1.0000 0.60758  0.96920  0.15070  Biso   1.000  O
  C652     1.0000 0.61006  0.92690  0.22080  Biso   1.000  C
  H434     1.0000 0.62450  0.93820  0.23160  Biso   1.000  H
  C653     1.0000 0.61670  0.92200  0.21430  Biso   1.000  C
  H435     1.0000 0.63470  0.93010  0.22230  Biso   1.000  H
  C654     1.0000 0.63950  0.89330  0.27240  Biso   1.000  C
  H436     1.0000 0.65290  0.90890  0.26670  Biso   1.000  H
  N218     1.0000 0.64280  0.87720  0.29620  Biso   1.000  N
  O219     1.0000 0.64262  0.46918  0.68628  Biso   1.000  O
  C655     1.0000 0.60291  0.43519  0.69025  Biso   1.000  C
  C656     1.0000 0.61913  0.45974  0.67460  Biso   1.000  C
  C657     1.0000 0.62822  0.40590  0.78210  Biso   1.000  C
  H437     1.0000 0.64050  0.42230  0.77650  Biso   1.000  H
  N219     1.0000 0.63085  0.39040  0.80802  Biso   1.000  N
  O220     1.0000 0.60758  0.46920  0.65070  Biso   1.000  O
  C658     1.0000 0.61006  0.42690  0.72080  Biso   1.000  C
  H438     1.0000 0.62450  0.43820  0.73160  Biso   1.000  H
  C659     1.0000 0.61670  0.42200  0.71430  Biso   1.000  C
  H439     1.0000 0.63470  0.43010  0.72230  Biso   1.000  H
  C660     1.0000 0.63950  0.39330  0.77240  Biso   1.000  C
  H440     1.0000 0.65290  0.40890  0.76670  Biso   1.000  H
  N220     1.0000 0.64280  0.37720  0.79620  Biso   1.000  N
  O221     1.0000 0.14262  0.96918  0.68628  Biso   1.000  O
  C661     1.0000 0.10291  0.93519  0.69025  Biso   1.000  C
  C662     1.0000 0.11913  0.95974  0.67460  Biso   1.000  C
  C663     1.0000 0.12822  0.90590  0.78210  Biso   1.000  C
  H441     1.0000 0.14050  0.92230  0.77650  Biso   1.000  H
  N221     1.0000 0.13085  0.89040  0.80802  Biso   1.000  N
  O222     1.0000 0.10758  0.96920  0.65070  Biso   1.000  O
  C664     1.0000 0.11006  0.92690  0.72080  Biso   1.000  C
  H442     1.0000 0.12450  0.93820  0.73160  Biso   1.000  H
  C665     1.0000 0.11670  0.92200  0.71430  Biso   1.000  C
  H443     1.0000 0.13470  0.93010  0.72230  Biso   1.000  H
  C666     1.0000 0.13950  0.89330  0.77240  Biso   1.000  C
  H444     1.0000 0.15290  0.90890  0.76670  Biso   1.000  H
  N222     1.0000 0.14280  0.87720  0.79620  Biso   1.000  N
  O223     1.0000 0.14262  0.46918  0.18628  Biso   1.000  O
  C667     1.0000 0.10291  0.43519  0.19025  Biso   1.000  C
  C668     1.0000 0.11913  0.45974  0.17460  Biso   1.000  C
  C669     1.0000 0.12822  0.40590  0.28210  Biso   1.000  C
  H445     1.0000 0.14050  0.42230  0.27650  Biso   1.000  H
  N223     1.0000 0.13085  0.39040  0.30802  Biso   1.000  N
  O224     1.0000 0.10758  0.46920  0.15070  Biso   1.000  O
  C670     1.0000 0.11006  0.42690  0.22080  Biso   1.000  C
  H446     1.0000 0.12450  0.43820  0.23160  Biso   1.000  H
  C671     1.0000 0.11670  0.42200  0.21430  Biso   1.000  C
  H447     1.0000 0.13470  0.43010  0.22230  Biso   1.000  H
  C672     1.0000 0.13950  0.39330  0.27240  Biso   1.000  C
  H448     1.0000 0.15290  0.40890  0.26670  Biso   1.000  H
  N224     1.0000 0.14280  0.37720  0.29620  Biso   1.000  N
  O225     1.0000 0.81372  0.64262  0.03082  Biso   1.000  O
  C673     1.0000 0.80975  0.60291  0.06481  Biso   1.000  C
  C674     1.0000 0.82540  0.61913  0.04026  Biso   1.000  C
  C675     1.0000 0.71790  0.62822  0.09410  Biso   1.000  C
  H449     1.0000 0.72350  0.64050  0.07770  Biso   1.000  H
  N225     1.0000 0.69198  0.63085  0.10960  Biso   1.000  N
  O226     1.0000 0.84930  0.60758  0.03080  Biso   1.000  O
  C676     1.0000 0.77920  0.61006  0.07310  Biso   1.000  C
  H450     1.0000 0.76840  0.62450  0.06180  Biso   1.000  H
  C677     1.0000 0.78570  0.61670  0.07800  Biso   1.000  C
  H451     1.0000 0.77770  0.63470  0.06990  Biso   1.000  H
  C678     1.0000 0.72760  0.63950  0.10670  Biso   1.000  C
  H452     1.0000 0.73330  0.65290  0.09110  Biso   1.000  H
  N226     1.0000 0.70380  0.64280  0.12280  Biso   1.000  N
  O227     1.0000 0.81372  0.14262  0.53082  Biso   1.000  O
  C679     1.0000 0.80975  0.10291  0.56481  Biso   1.000  C
  C680     1.0000 0.82540  0.11913  0.54026  Biso   1.000  C
  C681     1.0000 0.71790  0.12822  0.59410  Biso   1.000  C
  H453     1.0000 0.72350  0.14050  0.57770  Biso   1.000  H
  N227     1.0000 0.69198  0.13085  0.60960  Biso   1.000  N
  O228     1.0000 0.84930  0.10758  0.53080  Biso   1.000  O
  C682     1.0000 0.77920  0.11006  0.57310  Biso   1.000  C
  H454     1.0000 0.76840  0.12450  0.56180  Biso   1.000  H
  C683     1.0000 0.78570  0.11670  0.57800  Biso   1.000  C
  H455     1.0000 0.77770  0.13470  0.56990  Biso   1.000  H
  C684     1.0000 0.72760  0.13950  0.60670  Biso   1.000  C
  H456     1.0000 0.73330  0.15290  0.59110  Biso   1.000  H
  N228     1.0000 0.70380  0.14280  0.62280  Biso   1.000  N
  O229     1.0000 0.31372  0.64262  0.53082  Biso   1.000  O
  C685     1.0000 0.30975  0.60291  0.56481  Biso   1.000  C
  C686     1.0000 0.32540  0.61913  0.54026  Biso   1.000  C
  C687     1.0000 0.21790  0.62822  0.59410  Biso   1.000  C
  H457     1.0000 0.22350  0.64050  0.57770  Biso   1.000  H
  N229     1.0000 0.19198  0.63085  0.60960  Biso   1.000  N
  O230     1.0000 0.34930  0.60758  0.53080  Biso   1.000  O
  C688     1.0000 0.27920  0.61006  0.57310  Biso   1.000  C
  H458     1.0000 0.26840  0.62450  0.56180  Biso   1.000  H
  C689     1.0000 0.28570  0.61670  0.57800  Biso   1.000  C
  H459     1.0000 0.27770  0.63470  0.56990  Biso   1.000  H
  C690     1.0000 0.22760  0.63950  0.60670  Biso   1.000  C
  H460     1.0000 0.23330  0.65290  0.59110  Biso   1.000  H
  N230     1.0000 0.20380  0.64280  0.62280  Biso   1.000  N
  O231     1.0000 0.31372  0.14262  0.03082  Biso   1.000  O
  C691     1.0000 0.30975  0.10291  0.06481  Biso   1.000  C
  C692     1.0000 0.32540  0.11913  0.04026  Biso   1.000  C
  C693     1.0000 0.21790  0.12822  0.09410  Biso   1.000  C
  H461     1.0000 0.22350  0.14050  0.07770  Biso   1.000  H
  N231     1.0000 0.19198  0.13085  0.10960  Biso   1.000  N
  O232     1.0000 0.34930  0.10758  0.03080  Biso   1.000  O
  C694     1.0000 0.27920  0.11006  0.07310  Biso   1.000  C
  H462     1.0000 0.26840  0.12450  0.06180  Biso   1.000  H
  C695     1.0000 0.28570  0.11670  0.07800  Biso   1.000  C
  H463     1.0000 0.27770  0.13470  0.06990  Biso   1.000  H
  C696     1.0000 0.22760  0.13950  0.10670  Biso   1.000  C
  H464     1.0000 0.23330  0.15290  0.09110  Biso   1.000  H
  N232     1.0000 0.20380  0.14280  0.12280  Biso   1.000  N
  O233     1.0000 0.81372  0.35738  0.96918  Biso   1.000  O
  C697     1.0000 0.80975  0.39709  0.93519  Biso   1.000  C
  C698     1.0000 0.82540  0.38087  0.95974  Biso   1.000  C
  C699     1.0000 0.71790  0.37178  0.90590  Biso   1.000  C
  H465     1.0000 0.72350  0.35950  0.92230  Biso   1.000  H
  N233     1.0000 0.69198  0.36915  0.89040  Biso   1.000  N
  O234     1.0000 0.84930  0.39242  0.96920  Biso   1.000  O
  C700     1.0000 0.77920  0.38994  0.92690  Biso   1.000  C
  H466     1.0000 0.76840  0.37550  0.93820  Biso   1.000  H
  C701     1.0000 0.78570  0.38330  0.92200  Biso   1.000  C
  H467     1.0000 0.77770  0.36530  0.93010  Biso   1.000  H
  C702     1.0000 0.72760  0.36050  0.89330  Biso   1.000  C
  H468     1.0000 0.73330  0.34710  0.90890  Biso   1.000  H
  N234     1.0000 0.70380  0.35720  0.87720  Biso   1.000  N
  O235     1.0000 0.81372  0.85738  0.46918  Biso   1.000  O
  C703     1.0000 0.80975  0.89709  0.43519  Biso   1.000  C
  C704     1.0000 0.82540  0.88087  0.45974  Biso   1.000  C
  C705     1.0000 0.71790  0.87178  0.40590  Biso   1.000  C
  H469     1.0000 0.72350  0.85950  0.42230  Biso   1.000  H
  N235     1.0000 0.69198  0.86915  0.39040  Biso   1.000  N
  O236     1.0000 0.84930  0.89242  0.46920  Biso   1.000  O
  C706     1.0000 0.77920  0.88994  0.42690  Biso   1.000  C
  H470     1.0000 0.76840  0.87550  0.43820  Biso   1.000  H
  C707     1.0000 0.78570  0.88330  0.42200  Biso   1.000  C
  H471     1.0000 0.77770  0.86530  0.43010  Biso   1.000  H
  C708     1.0000 0.72760  0.86050  0.39330  Biso   1.000  C
  H472     1.0000 0.73330  0.84710  0.40890  Biso   1.000  H
  N236     1.0000 0.70380  0.85720  0.37720  Biso   1.000  N
  O237     1.0000 0.31372  0.35738  0.46918  Biso   1.000  O
  C709     1.0000 0.30975  0.39709  0.43519  Biso   1.000  C
  C710     1.0000 0.32540  0.38087  0.45974  Biso   1.000  C
  C711     1.0000 0.21790  0.37178  0.40590  Biso   1.000  C
  H473     1.0000 0.22350  0.35950  0.42230  Biso   1.000  H
  N237     1.0000 0.19198  0.36915  0.39040  Biso   1.000  N
  O238     1.0000 0.34930  0.39242  0.46920  Biso   1.000  O
  C712     1.0000 0.27920  0.38994  0.42690  Biso   1.000  C
  H474     1.0000 0.26840  0.37550  0.43820  Biso   1.000  H
  C713     1.0000 0.28570  0.38330  0.42200  Biso   1.000  C
  H475     1.0000 0.27770  0.36530  0.43010  Biso   1.000  H
  C714     1.0000 0.22760  0.36050  0.39330  Biso   1.000  C
  H476     1.0000 0.23330  0.34710  0.40890  Biso   1.000  H
  N238     1.0000 0.20380  0.35720  0.37720  Biso   1.000  N
  O239     1.0000 0.31372  0.85738  0.96918  Biso   1.000  O
  C715     1.0000 0.30975  0.89709  0.93519  Biso   1.000  C
  C716     1.0000 0.32540  0.88087  0.95974  Biso   1.000  C
  C717     1.0000 0.21790  0.87178  0.90590  Biso   1.000  C
  H477     1.0000 0.22350  0.85950  0.92230  Biso   1.000  H
  N239     1.0000 0.19198  0.86915  0.89040  Biso   1.000  N
  O240     1.0000 0.34930  0.89242  0.96920  Biso   1.000  O
  C718     1.0000 0.27920  0.88994  0.92690  Biso   1.000  C
  H478     1.0000 0.26840  0.87550  0.93820  Biso   1.000  H
  C719     1.0000 0.28570  0.88330  0.92200  Biso   1.000  C
  H479     1.0000 0.27770  0.86530  0.93010  Biso   1.000  H
  C720     1.0000 0.22760  0.86050  0.89330  Biso   1.000  C
  H480     1.0000 0.23330  0.84710  0.90890  Biso   1.000  H
  N240     1.0000 0.20380  0.85720  0.87720  Biso   1.000  N
  O241     1.0000 0.18628  0.35738  0.03082  Biso   1.000  O
  C721     1.0000 0.19025  0.39709  0.06481  Biso   1.000  C
  C722     1.0000 0.17460  0.38087  0.04026  Biso   1.000  C
  C723     1.0000 0.28210  0.37178  0.09410  Biso   1.000  C
  H481     1.0000 0.27650  0.35950  0.07770  Biso   1.000  H
  N241     1.0000 0.30802  0.36915  0.10960  Biso   1.000  N
  O242     1.0000 0.15070  0.39242  0.03080  Biso   1.000  O
  C724     1.0000 0.22080  0.38994  0.07310  Biso   1.000  C
  H482     1.0000 0.23160  0.37550  0.06180  Biso   1.000  H
  C725     1.0000 0.21430  0.38330  0.07800  Biso   1.000  C
  H483     1.0000 0.22230  0.36530  0.06990  Biso   1.000  H
  C726     1.0000 0.27240  0.36050  0.10670  Biso   1.000  C
  H484     1.0000 0.26670  0.34710  0.09110  Biso   1.000  H
  N242     1.0000 0.29620  0.35720  0.12280  Biso   1.000  N
  O243     1.0000 0.18628  0.85738  0.53082  Biso   1.000  O
  C727     1.0000 0.19025  0.89709  0.56481  Biso   1.000  C
  C728     1.0000 0.17460  0.88087  0.54026  Biso   1.000  C
  C729     1.0000 0.28210  0.87178  0.59410  Biso   1.000  C
  H485     1.0000 0.27650  0.85950  0.57770  Biso   1.000  H
  N243     1.0000 0.30802  0.86915  0.60960  Biso   1.000  N
  O244     1.0000 0.15070  0.89242  0.53080  Biso   1.000  O
  C730     1.0000 0.22080  0.88994  0.57310  Biso   1.000  C
  H486     1.0000 0.23160  0.87550  0.56180  Biso   1.000  H
  C731     1.0000 0.21430  0.88330  0.57800  Biso   1.000  C
  H487     1.0000 0.22230  0.86530  0.56990  Biso   1.000  H
  C732     1.0000 0.27240  0.86050  0.60670  Biso   1.000  C
  H488     1.0000 0.26670  0.84710  0.59110  Biso   1.000  H
  N244     1.0000 0.29620  0.85720  0.62280  Biso   1.000  N
  O245     1.0000 0.68628  0.35738  0.53082  Biso   1.000  O
  C733     1.0000 0.69025  0.39709  0.56481  Biso   1.000  C
  C734     1.0000 0.67460  0.38087  0.54026  Biso   1.000  C
  C735     1.0000 0.78210  0.37178  0.59410  Biso   1.000  C
  H489     1.0000 0.77650  0.35950  0.57770  Biso   1.000  H
  N245     1.0000 0.80802  0.36915  0.60960  Biso   1.000  N
  O246     1.0000 0.65070  0.39242  0.53080  Biso   1.000  O
  C736     1.0000 0.72080  0.38994  0.57310  Biso   1.000  C
  H490     1.0000 0.73160  0.37550  0.56180  Biso   1.000  H
  C737     1.0000 0.71430  0.38330  0.57800  Biso   1.000  C
  H491     1.0000 0.72230  0.36530  0.56990  Biso   1.000  H
  C738     1.0000 0.77240  0.36050  0.60670  Biso   1.000  C
  H492     1.0000 0.76670  0.34710  0.59110  Biso   1.000  H
  N246     1.0000 0.79620  0.35720  0.62280  Biso   1.000  N
  O247     1.0000 0.68628  0.85738  0.03082  Biso   1.000  O
  C739     1.0000 0.69025  0.89709  0.06481  Biso   1.000  C
  C740     1.0000 0.67460  0.88087  0.04026  Biso   1.000  C
  C741     1.0000 0.78210  0.87178  0.09410  Biso   1.000  C
  H493     1.0000 0.77650  0.85950  0.07770  Biso   1.000  H
  N247     1.0000 0.80802  0.86915  0.10960  Biso   1.000  N
  O248     1.0000 0.65070  0.89242  0.03080  Biso   1.000  O
  C742     1.0000 0.72080  0.88994  0.07310  Biso   1.000  C
  H494     1.0000 0.73160  0.87550  0.06180  Biso   1.000  H
  C743     1.0000 0.71430  0.88330  0.07800  Biso   1.000  C
  H495     1.0000 0.72230  0.86530  0.06990  Biso   1.000  H
  C744     1.0000 0.77240  0.86050  0.10670  Biso   1.000  C
  H496     1.0000 0.76670  0.84710  0.09110  Biso   1.000  H
  N248     1.0000 0.79620  0.85720  0.12280  Biso   1.000  N
  O249     1.0000 0.18628  0.64262  0.96918  Biso   1.000  O
  C745     1.0000 0.19025  0.60291  0.93519  Biso   1.000  C
  C746     1.0000 0.17460  0.61913  0.95974  Biso   1.000  C
  C747     1.0000 0.28210  0.62822  0.90590  Biso   1.000  C
  H497     1.0000 0.27650  0.64050  0.92230  Biso   1.000  H
  N249     1.0000 0.30802  0.63085  0.89040  Biso   1.000  N
  O250     1.0000 0.15070  0.60758  0.96920  Biso   1.000  O
  C748     1.0000 0.22080  0.61006  0.92690  Biso   1.000  C
  H498     1.0000 0.23160  0.62450  0.93820  Biso   1.000  H
  C749     1.0000 0.21430  0.61670  0.92200  Biso   1.000  C
  H499     1.0000 0.22230  0.63470  0.93010  Biso   1.000  H
  C750     1.0000 0.27240  0.63950  0.89330  Biso   1.000  C
  H500     1.0000 0.26670  0.65290  0.90890  Biso   1.000  H
  N250     1.0000 0.29620  0.64280  0.87720  Biso   1.000  N
  O251     1.0000 0.18628  0.14262  0.46918  Biso   1.000  O
  C751     1.0000 0.19025  0.10291  0.43519  Biso   1.000  C
  C752     1.0000 0.17460  0.11913  0.45974  Biso   1.000  C
  C753     1.0000 0.28210  0.12822  0.40590  Biso   1.000  C
  H501     1.0000 0.27650  0.14050  0.42230  Biso   1.000  H
  N251     1.0000 0.30802  0.13085  0.39040  Biso   1.000  N
  O252     1.0000 0.15070  0.10758  0.46920  Biso   1.000  O
  C754     1.0000 0.22080  0.11006  0.42690  Biso   1.000  C
  H502     1.0000 0.23160  0.12450  0.43820  Biso   1.000  H
  C755     1.0000 0.21430  0.11670  0.42200  Biso   1.000  C
  H503     1.0000 0.22230  0.13470  0.43010  Biso   1.000  H
  C756     1.0000 0.27240  0.13950  0.39330  Biso   1.000  C
  H504     1.0000 0.26670  0.15290  0.40890  Biso   1.000  H
  N252     1.0000 0.29620  0.14280  0.37720  Biso   1.000  N
  O253     1.0000 0.68628  0.64262  0.46918  Biso   1.000  O
  C757     1.0000 0.69025  0.60291  0.43519  Biso   1.000  C
  C758     1.0000 0.67460  0.61913  0.45974  Biso   1.000  C
  C759     1.0000 0.78210  0.62822  0.40590  Biso   1.000  C
  H505     1.0000 0.77650  0.64050  0.42230  Biso   1.000  H
  N253     1.0000 0.80802  0.63085  0.39040  Biso   1.000  N
  O254     1.0000 0.65070  0.60758  0.46920  Biso   1.000  O
  C760     1.0000 0.72080  0.61006  0.42690  Biso   1.000  C
  H506     1.0000 0.73160  0.62450  0.43820  Biso   1.000  H
  C761     1.0000 0.71430  0.61670  0.42200  Biso   1.000  C
  H507     1.0000 0.72230  0.63470  0.43010  Biso   1.000  H
  C762     1.0000 0.77240  0.63950  0.39330  Biso   1.000  C
  H508     1.0000 0.76670  0.65290  0.40890  Biso   1.000  H
  N254     1.0000 0.79620  0.64280  0.37720  Biso   1.000  N
  O255     1.0000 0.68628  0.14262  0.96918  Biso   1.000  O
  C763     1.0000 0.69025  0.10291  0.93519  Biso   1.000  C
  C764     1.0000 0.67460  0.11913  0.95974  Biso   1.000  C
  C765     1.0000 0.78210  0.12822  0.90590  Biso   1.000  C
  H509     1.0000 0.77650  0.14050  0.92230  Biso   1.000  H
  N255     1.0000 0.80802  0.13085  0.89040  Biso   1.000  N
  O256     1.0000 0.65070  0.10758  0.96920  Biso   1.000  O
  C766     1.0000 0.72080  0.11006  0.92690  Biso   1.000  C
  H510     1.0000 0.73160  0.12450  0.93820  Biso   1.000  H
  C767     1.0000 0.71430  0.11670  0.92200  Biso   1.000  C
  H511     1.0000 0.72230  0.13470  0.93010  Biso   1.000  H
  C768     1.0000 0.77240  0.13950  0.89330  Biso   1.000  C
  H512     1.0000 0.76670  0.15290  0.90890  Biso   1.000  H
  N256     1.0000 0.79620  0.14280  0.87720  Biso   1.000  N
  O257     1.0000 0.03082  0.81372  0.64262  Biso   1.000  O
  C769     1.0000 0.06481  0.80975  0.60291  Biso   1.000  C
  C770     1.0000 0.04026  0.82540  0.61913  Biso   1.000  C
  C771     1.0000 0.09410  0.71790  0.62822  Biso   1.000  C
  H513     1.0000 0.07770  0.72350  0.64050  Biso   1.000  H
  N257     1.0000 0.10960  0.69198  0.63085  Biso   1.000  N
  O258     1.0000 0.03080  0.84930  0.60758  Biso   1.000  O
  C772     1.0000 0.07310  0.77920  0.61006  Biso   1.000  C
  H514     1.0000 0.06180  0.76840  0.62450  Biso   1.000  H
  C773     1.0000 0.07800  0.78570  0.61670  Biso   1.000  C
  H515     1.0000 0.06990  0.77770  0.63470  Biso   1.000  H
  C774     1.0000 0.10670  0.72760  0.63950  Biso   1.000  C
  H516     1.0000 0.09110  0.73330  0.65290  Biso   1.000  H
  N258     1.0000 0.12280  0.70380  0.64280  Biso   1.000  N
  O259     1.0000 0.03082  0.31372  0.14262  Biso   1.000  O
  C775     1.0000 0.06481  0.30975  0.10291  Biso   1.000  C
  C776     1.0000 0.04026  0.32540  0.11913  Biso   1.000  C
  C777     1.0000 0.09410  0.21790  0.12822  Biso   1.000  C
  H517     1.0000 0.07770  0.22350  0.14050  Biso   1.000  H
  N259     1.0000 0.10960  0.19198  0.13085  Biso   1.000  N
  O260     1.0000 0.03080  0.34930  0.10758  Biso   1.000  O
  C778     1.0000 0.07310  0.27920  0.11006  Biso   1.000  C
  H518     1.0000 0.06180  0.26840  0.12450  Biso   1.000  H
  C779     1.0000 0.07800  0.28570  0.11670  Biso   1.000  C
  H519     1.0000 0.06990  0.27770  0.13470  Biso   1.000  H
  C780     1.0000 0.10670  0.22760  0.13950  Biso   1.000  C
  H520     1.0000 0.09110  0.23330  0.15290  Biso   1.000  H
  N260     1.0000 0.12280  0.20380  0.14280  Biso   1.000  N
  O261     1.0000 0.53082  0.81372  0.14262  Biso   1.000  O
  C781     1.0000 0.56481  0.80975  0.10291  Biso   1.000  C
  C782     1.0000 0.54026  0.82540  0.11913  Biso   1.000  C
  C783     1.0000 0.59410  0.71790  0.12822  Biso   1.000  C
  H521     1.0000 0.57770  0.72350  0.14050  Biso   1.000  H
  N261     1.0000 0.60960  0.69198  0.13085  Biso   1.000  N
  O262     1.0000 0.53080  0.84930  0.10758  Biso   1.000  O
  C784     1.0000 0.57310  0.77920  0.11006  Biso   1.000  C
  H522     1.0000 0.56180  0.76840  0.12450  Biso   1.000  H
  C785     1.0000 0.57800  0.78570  0.11670  Biso   1.000  C
  H523     1.0000 0.56990  0.77770  0.13470  Biso   1.000  H
  C786     1.0000 0.60670  0.72760  0.13950  Biso   1.000  C
  H524     1.0000 0.59110  0.73330  0.15290  Biso   1.000  H
  N262     1.0000 0.62280  0.70380  0.14280  Biso   1.000  N
  O263     1.0000 0.53082  0.31372  0.64262  Biso   1.000  O
  C787     1.0000 0.56481  0.30975  0.60291  Biso   1.000  C
  C788     1.0000 0.54026  0.32540  0.61913  Biso   1.000  C
  C789     1.0000 0.59410  0.21790  0.62822  Biso   1.000  C
  H525     1.0000 0.57770  0.22350  0.64050  Biso   1.000  H
  N263     1.0000 0.60960  0.19198  0.63085  Biso   1.000  N
  O264     1.0000 0.53080  0.34930  0.60758  Biso   1.000  O
  C790     1.0000 0.57310  0.27920  0.61006  Biso   1.000  C
  H526     1.0000 0.56180  0.26840  0.62450  Biso   1.000  H
  C791     1.0000 0.57800  0.28570  0.61670  Biso   1.000  C
  H527     1.0000 0.56990  0.27770  0.63470  Biso   1.000  H
  C792     1.0000 0.60670  0.22760  0.63950  Biso   1.000  C
  H528     1.0000 0.59110  0.23330  0.65290  Biso   1.000  H
  N264     1.0000 0.62280  0.20380  0.64280  Biso   1.000  N
  O265     1.0000 0.96918  0.81372  0.35738  Biso   1.000  O
  C793     1.0000 0.93519  0.80975  0.39709  Biso   1.000  C
  C794     1.0000 0.95974  0.82540  0.38087  Biso   1.000  C
  C795     1.0000 0.90590  0.71790  0.37178  Biso   1.000  C
  H529     1.0000 0.92230  0.72350  0.35950  Biso   1.000  H
  N265     1.0000 0.89040  0.69198  0.36915  Biso   1.000  N
  O266     1.0000 0.96920  0.84930  0.39242  Biso   1.000  O
  C796     1.0000 0.92690  0.77920  0.38994  Biso   1.000  C
  H530     1.0000 0.93820  0.76840  0.37550  Biso   1.000  H
  C797     1.0000 0.92200  0.78570  0.38330  Biso   1.000  C
  H531     1.0000 0.93010  0.77770  0.36530  Biso   1.000  H
  C798     1.0000 0.89330  0.72760  0.36050  Biso   1.000  C
  H532     1.0000 0.90890  0.73330  0.34710  Biso   1.000  H
  N266     1.0000 0.87720  0.70380  0.35720  Biso   1.000  N
  O267     1.0000 0.96918  0.31372  0.85738  Biso   1.000  O
  C799     1.0000 0.93519  0.30975  0.89709  Biso   1.000  C
  C800     1.0000 0.95974  0.32540  0.88087  Biso   1.000  C
  C801     1.0000 0.90590  0.21790  0.87178  Biso   1.000  C
  H533     1.0000 0.92230  0.22350  0.85950  Biso   1.000  H
  N267     1.0000 0.89040  0.19198  0.86915  Biso   1.000  N
  O268     1.0000 0.96920  0.34930  0.89242  Biso   1.000  O
  C802     1.0000 0.92690  0.27920  0.88994  Biso   1.000  C
  H534     1.0000 0.93820  0.26840  0.87550  Biso   1.000  H
  C803     1.0000 0.92200  0.28570  0.88330  Biso   1.000  C
  H535     1.0000 0.93010  0.27770  0.86530  Biso   1.000  H
  C804     1.0000 0.89330  0.22760  0.86050  Biso   1.000  C
  H536     1.0000 0.90890  0.23330  0.84710  Biso   1.000  H
  N268     1.0000 0.87720  0.20380  0.85720  Biso   1.000  N
  O269     1.0000 0.46918  0.81372  0.85738  Biso   1.000  O
  C805     1.0000 0.43519  0.80975  0.89709  Biso   1.000  C
  C806     1.0000 0.45974  0.82540  0.88087  Biso   1.000  C
  C807     1.0000 0.40590  0.71790  0.87178  Biso   1.000  C
  H537     1.0000 0.42230  0.72350  0.85950  Biso   1.000  H
  N269     1.0000 0.39040  0.69198  0.86915  Biso   1.000  N
  O270     1.0000 0.46920  0.84930  0.89242  Biso   1.000  O
  C808     1.0000 0.42690  0.77920  0.88994  Biso   1.000  C
  H538     1.0000 0.43820  0.76840  0.87550  Biso   1.000  H
  C809     1.0000 0.42200  0.78570  0.88330  Biso   1.000  C
  H539     1.0000 0.43010  0.77770  0.86530  Biso   1.000  H
  C810     1.0000 0.39330  0.72760  0.86050  Biso   1.000  C
  H540     1.0000 0.40890  0.73330  0.84710  Biso   1.000  H
  N270     1.0000 0.37720  0.70380  0.85720  Biso   1.000  N
  O271     1.0000 0.46918  0.31372  0.35738  Biso   1.000  O
  C811     1.0000 0.43519  0.30975  0.39709  Biso   1.000  C
  C812     1.0000 0.45974  0.32540  0.38087  Biso   1.000  C
  C813     1.0000 0.40590  0.21790  0.37178  Biso   1.000  C
  H541     1.0000 0.42230  0.22350  0.35950  Biso   1.000  H
  N271     1.0000 0.39040  0.19198  0.36915  Biso   1.000  N
  O272     1.0000 0.46920  0.34930  0.39242  Biso   1.000  O
  C814     1.0000 0.42690  0.27920  0.38994  Biso   1.000  C
  H542     1.0000 0.43820  0.26840  0.37550  Biso   1.000  H
  C815     1.0000 0.42200  0.28570  0.38330  Biso   1.000  C
  H543     1.0000 0.43010  0.27770  0.36530  Biso   1.000  H
  C816     1.0000 0.39330  0.22760  0.36050  Biso   1.000  C
  H544     1.0000 0.40890  0.23330  0.34710  Biso   1.000  H
  N272     1.0000 0.37720  0.20380  0.35720  Biso   1.000  N
  O273     1.0000 0.03082  0.18628  0.35738  Biso   1.000  O
  C817     1.0000 0.06481  0.19025  0.39709  Biso   1.000  C
  C818     1.0000 0.04026  0.17460  0.38087  Biso   1.000  C
  C819     1.0000 0.09410  0.28210  0.37178  Biso   1.000  C
  H545     1.0000 0.07770  0.27650  0.35950  Biso   1.000  H
  N273     1.0000 0.10960  0.30802  0.36915  Biso   1.000  N
  O274     1.0000 0.03080  0.15070  0.39242  Biso   1.000  O
  C820     1.0000 0.07310  0.22080  0.38994  Biso   1.000  C
  H546     1.0000 0.06180  0.23160  0.37550  Biso   1.000  H
  C821     1.0000 0.07800  0.21430  0.38330  Biso   1.000  C
  H547     1.0000 0.06990  0.22230  0.36530  Biso   1.000  H
  C822     1.0000 0.10670  0.27240  0.36050  Biso   1.000  C
  H548     1.0000 0.09110  0.26670  0.34710  Biso   1.000  H
  N274     1.0000 0.12280  0.29620  0.35720  Biso   1.000  N
  O275     1.0000 0.03082  0.68628  0.85738  Biso   1.000  O
  C823     1.0000 0.06481  0.69025  0.89709  Biso   1.000  C
  C824     1.0000 0.04026  0.67460  0.88087  Biso   1.000  C
  C825     1.0000 0.09410  0.78210  0.87178  Biso   1.000  C
  H549     1.0000 0.07770  0.77650  0.85950  Biso   1.000  H
  N275     1.0000 0.10960  0.80802  0.86915  Biso   1.000  N
  O276     1.0000 0.03080  0.65070  0.89242  Biso   1.000  O
  C826     1.0000 0.07310  0.72080  0.88994  Biso   1.000  C
  H550     1.0000 0.06180  0.73160  0.87550  Biso   1.000  H
  C827     1.0000 0.07800  0.71430  0.88330  Biso   1.000  C
  H551     1.0000 0.06990  0.72230  0.86530  Biso   1.000  H
  C828     1.0000 0.10670  0.77240  0.86050  Biso   1.000  C
  H552     1.0000 0.09110  0.76670  0.84710  Biso   1.000  H
  N276     1.0000 0.12280  0.79620  0.85720  Biso   1.000  N
  O277     1.0000 0.53082  0.18628  0.85738  Biso   1.000  O
  C829     1.0000 0.56481  0.19025  0.89709  Biso   1.000  C
  C830     1.0000 0.54026  0.17460  0.88087  Biso   1.000  C
  C831     1.0000 0.59410  0.28210  0.87178  Biso   1.000  C
  H553     1.0000 0.57770  0.27650  0.85950  Biso   1.000  H
  N277     1.0000 0.60960  0.30802  0.86915  Biso   1.000  N
  O278     1.0000 0.53080  0.15070  0.89242  Biso   1.000  O
  C832     1.0000 0.57310  0.22080  0.88994  Biso   1.000  C
  H554     1.0000 0.56180  0.23160  0.87550  Biso   1.000  H
  C833     1.0000 0.57800  0.21430  0.88330  Biso   1.000  C
  H555     1.0000 0.56990  0.22230  0.86530  Biso   1.000  H
  C834     1.0000 0.60670  0.27240  0.86050  Biso   1.000  C
  H556     1.0000 0.59110  0.26670  0.84710  Biso   1.000  H
  N278     1.0000 0.62280  0.29620  0.85720  Biso   1.000  N
  O279     1.0000 0.53082  0.68628  0.35738  Biso   1.000  O
  C835     1.0000 0.56481  0.69025  0.39709  Biso   1.000  C
  C836     1.0000 0.54026  0.67460  0.38087  Biso   1.000  C
  C837     1.0000 0.59410  0.78210  0.37178  Biso   1.000  C
  H557     1.0000 0.57770  0.77650  0.35950  Biso   1.000  H
  N279     1.0000 0.60960  0.80802  0.36915  Biso   1.000  N
  O280     1.0000 0.53080  0.65070  0.39242  Biso   1.000  O
  C838     1.0000 0.57310  0.72080  0.38994  Biso   1.000  C
  H558     1.0000 0.56180  0.73160  0.37550  Biso   1.000  H
  C839     1.0000 0.57800  0.71430  0.38330  Biso   1.000  C
  H559     1.0000 0.56990  0.72230  0.36530  Biso   1.000  H
  C840     1.0000 0.60670  0.77240  0.36050  Biso   1.000  C
  H560     1.0000 0.59110  0.76670  0.34710  Biso   1.000  H
  N280     1.0000 0.62280  0.79620  0.35720  Biso   1.000  N
  O281     1.0000 0.96918  0.18628  0.64262  Biso   1.000  O
  C841     1.0000 0.93519  0.19025  0.60291  Biso   1.000  C
  C842     1.0000 0.95974  0.17460  0.61913  Biso   1.000  C
  C843     1.0000 0.90590  0.28210  0.62822  Biso   1.000  C
  H561     1.0000 0.92230  0.27650  0.64050  Biso   1.000  H
  N281     1.0000 0.89040  0.30802  0.63085  Biso   1.000  N
  O282     1.0000 0.96920  0.15070  0.60758  Biso   1.000  O
  C844     1.0000 0.92690  0.22080  0.61006  Biso   1.000  C
  H562     1.0000 0.93820  0.23160  0.62450  Biso   1.000  H
  C845     1.0000 0.92200  0.21430  0.61670  Biso   1.000  C
  H563     1.0000 0.93010  0.22230  0.63470  Biso   1.000  H
  C846     1.0000 0.89330  0.27240  0.63950  Biso   1.000  C
  H564     1.0000 0.90890  0.26670  0.65290  Biso   1.000  H
  N282     1.0000 0.87720  0.29620  0.64280  Biso   1.000  N
  O283     1.0000 0.96918  0.68628  0.14262  Biso   1.000  O
  C847     1.0000 0.93519  0.69025  0.10291  Biso   1.000  C
  C848     1.0000 0.95974  0.67460  0.11913  Biso   1.000  C
  C849     1.0000 0.90590  0.78210  0.12822  Biso   1.000  C
  H565     1.0000 0.92230  0.77650  0.14050  Biso   1.000  H
  N283     1.0000 0.89040  0.80802  0.13085  Biso   1.000  N
  O284     1.0000 0.96920  0.65070  0.10758  Biso   1.000  O
  C850     1.0000 0.92690  0.72080  0.11006  Biso   1.000  C
  H566     1.0000 0.93820  0.73160  0.12450  Biso   1.000  H
  C851     1.0000 0.92200  0.71430  0.11670  Biso   1.000  C
  H567     1.0000 0.93010  0.72230  0.13470  Biso   1.000  H
  C852     1.0000 0.89330  0.77240  0.13950  Biso   1.000  C
  H568     1.0000 0.90890  0.76670  0.15290  Biso   1.000  H
  N284     1.0000 0.87720  0.79620  0.14280  Biso   1.000  N
  O285     1.0000 0.46918  0.18628  0.14262  Biso   1.000  O
  C853     1.0000 0.43519  0.19025  0.10291  Biso   1.000  C
  C854     1.0000 0.45974  0.17460  0.11913  Biso   1.000  C
  C855     1.0000 0.40590  0.28210  0.12822  Biso   1.000  C
  H569     1.0000 0.42230  0.27650  0.14050  Biso   1.000  H
  N285     1.0000 0.39040  0.30802  0.13085  Biso   1.000  N
  O286     1.0000 0.46920  0.15070  0.10758  Biso   1.000  O
  C856     1.0000 0.42690  0.22080  0.11006  Biso   1.000  C
  H570     1.0000 0.43820  0.23160  0.12450  Biso   1.000  H
  C857     1.0000 0.42200  0.21430  0.11670  Biso   1.000  C
  H571     1.0000 0.43010  0.22230  0.13470  Biso   1.000  H
  C858     1.0000 0.39330  0.27240  0.13950  Biso   1.000  C
  H572     1.0000 0.40890  0.26670  0.15290  Biso   1.000  H
  N286     1.0000 0.37720  0.29620  0.14280  Biso   1.000  N
  O287     1.0000 0.46918  0.68628  0.64262  Biso   1.000  O
  C859     1.0000 0.43519  0.69025  0.60291  Biso   1.000  C
  C860     1.0000 0.45974  0.67460  0.61913  Biso   1.000  C
  C861     1.0000 0.40590  0.78210  0.62822  Biso   1.000  C
  H573     1.0000 0.42230  0.77650  0.64050  Biso   1.000  H
  N287     1.0000 0.39040  0.80802  0.63085  Biso   1.000  N
  O288     1.0000 0.46920  0.65070  0.60758  Biso   1.000  O
  C862     1.0000 0.42690  0.72080  0.61006  Biso   1.000  C
  H574     1.0000 0.43820  0.73160  0.62450  Biso   1.000  H
  C863     1.0000 0.42200  0.71430  0.61670  Biso   1.000  C
  H575     1.0000 0.43010  0.72230  0.63470  Biso   1.000  H
  C864     1.0000 0.39330  0.77240  0.63950  Biso   1.000  C
  H576     1.0000 0.40890  0.76670  0.65290  Biso   1.000  H
  N288     1.0000 0.37720  0.79620  0.64280  Biso   1.000  N
  O289     1.0000 0.03082  0.64262  0.18628  Biso   1.000  O
  C865     1.0000 0.06481  0.60291  0.19025  Biso   1.000  C
  C866     1.0000 0.04026  0.61913  0.17460  Biso   1.000  C
  C867     1.0000 0.09410  0.62822  0.28210  Biso   1.000  C
  H577     1.0000 0.07770  0.64050  0.27650  Biso   1.000  H
  N289     1.0000 0.10960  0.63085  0.30802  Biso   1.000  N
  O290     1.0000 0.03080  0.60758  0.15070  Biso   1.000  O
  C868     1.0000 0.07310  0.61006  0.22080  Biso   1.000  C
  H578     1.0000 0.06180  0.62450  0.23160  Biso   1.000  H
  C869     1.0000 0.07800  0.61670  0.21430  Biso   1.000  C
  H579     1.0000 0.06990  0.63470  0.22230  Biso   1.000  H
  C870     1.0000 0.10670  0.63950  0.27240  Biso   1.000  C
  H580     1.0000 0.09110  0.65290  0.26670  Biso   1.000  H
  N290     1.0000 0.12280  0.64280  0.29620  Biso   1.000  N
  O291     1.0000 0.03082  0.14262  0.68628  Biso   1.000  O
  C871     1.0000 0.06481  0.10291  0.69025  Biso   1.000  C
  C872     1.0000 0.04026  0.11913  0.67460  Biso   1.000  C
  C873     1.0000 0.09410  0.12822  0.78210  Biso   1.000  C
  H581     1.0000 0.07770  0.14050  0.77650  Biso   1.000  H
  N291     1.0000 0.10960  0.13085  0.80802  Biso   1.000  N
  O292     1.0000 0.03080  0.10758  0.65070  Biso   1.000  O
  C874     1.0000 0.07310  0.11006  0.72080  Biso   1.000  C
  H582     1.0000 0.06180  0.12450  0.73160  Biso   1.000  H
  C875     1.0000 0.07800  0.11670  0.71430  Biso   1.000  C
  H583     1.0000 0.06990  0.13470  0.72230  Biso   1.000  H
  C876     1.0000 0.10670  0.13950  0.77240  Biso   1.000  C
  H584     1.0000 0.09110  0.15290  0.76670  Biso   1.000  H
  N292     1.0000 0.12280  0.14280  0.79620  Biso   1.000  N
  O293     1.0000 0.53082  0.64262  0.68628  Biso   1.000  O
  C877     1.0000 0.56481  0.60291  0.69025  Biso   1.000  C
  C878     1.0000 0.54026  0.61913  0.67460  Biso   1.000  C
  C879     1.0000 0.59410  0.62822  0.78210  Biso   1.000  C
  H585     1.0000 0.57770  0.64050  0.77650  Biso   1.000  H
  N293     1.0000 0.60960  0.63085  0.80802  Biso   1.000  N
  O294     1.0000 0.53080  0.60758  0.65070  Biso   1.000  O
  C880     1.0000 0.57310  0.61006  0.72080  Biso   1.000  C
  H586     1.0000 0.56180  0.62450  0.73160  Biso   1.000  H
  C881     1.0000 0.57800  0.61670  0.71430  Biso   1.000  C
  H587     1.0000 0.56990  0.63470  0.72230  Biso   1.000  H
  C882     1.0000 0.60670  0.63950  0.77240  Biso   1.000  C
  H588     1.0000 0.59110  0.65290  0.76670  Biso   1.000  H
  N294     1.0000 0.62280  0.64280  0.79620  Biso   1.000  N
  O295     1.0000 0.53082  0.14262  0.18628  Biso   1.000  O
  C883     1.0000 0.56481  0.10291  0.19025  Biso   1.000  C
  C884     1.0000 0.54026  0.11913  0.17460  Biso   1.000  C
  C885     1.0000 0.59410  0.12822  0.28210  Biso   1.000  C
  H589     1.0000 0.57770  0.14050  0.27650  Biso   1.000  H
  N295     1.0000 0.60960  0.13085  0.30802  Biso   1.000  N
  O296     1.0000 0.53080  0.10758  0.15070  Biso   1.000  O
  C886     1.0000 0.57310  0.11006  0.22080  Biso   1.000  C
  H590     1.0000 0.56180  0.12450  0.23160  Biso   1.000  H
  C887     1.0000 0.57800  0.11670  0.21430  Biso   1.000  C
  H591     1.0000 0.56990  0.13470  0.22230  Biso   1.000  H
  C888     1.0000 0.60670  0.13950  0.27240  Biso   1.000  C
  H592     1.0000 0.59110  0.15290  0.26670  Biso   1.000  H
  N296     1.0000 0.62280  0.14280  0.29620  Biso   1.000  N
  O297     1.0000 0.96918  0.35738  0.18628  Biso   1.000  O
  C889     1.0000 0.93519  0.39709  0.19025  Biso   1.000  C
  C890     1.0000 0.95974  0.38087  0.17460  Biso   1.000  C
  C891     1.0000 0.90590  0.37178  0.28210  Biso   1.000  C
  H593     1.0000 0.92230  0.35950  0.27650  Biso   1.000  H
  N297     1.0000 0.89040  0.36915  0.30802  Biso   1.000  N
  O298     1.0000 0.96920  0.39242  0.15070  Biso   1.000  O
  C892     1.0000 0.92690  0.38994  0.22080  Biso   1.000  C
  H594     1.0000 0.93820  0.37550  0.23160  Biso   1.000  H
  C893     1.0000 0.92200  0.38330  0.21430  Biso   1.000  C
  H595     1.0000 0.93010  0.36530  0.22230  Biso   1.000  H
  C894     1.0000 0.89330  0.36050  0.27240  Biso   1.000  C
  H596     1.0000 0.90890  0.34710  0.26670  Biso   1.000  H
  N298     1.0000 0.87720  0.35720  0.29620  Biso   1.000  N
  O299     1.0000 0.96918  0.85738  0.68628  Biso   1.000  O
  C895     1.0000 0.93519  0.89709  0.69025  Biso   1.000  C
  C896     1.0000 0.95974  0.88087  0.67460  Biso   1.000  C
  C897     1.0000 0.90590  0.87178  0.78210  Biso   1.000  C
  H597     1.0000 0.92230  0.85950  0.77650  Biso   1.000  H
  N299     1.0000 0.89040  0.86915  0.80802  Biso   1.000  N
  O300     1.0000 0.96920  0.89242  0.65070  Biso   1.000  O
  C898     1.0000 0.92690  0.88994  0.72080  Biso   1.000  C
  H598     1.0000 0.93820  0.87550  0.73160  Biso   1.000  H
  C899     1.0000 0.92200  0.88330  0.71430  Biso   1.000  C
  H599     1.0000 0.93010  0.86530  0.72230  Biso   1.000  H
  C900     1.0000 0.89330  0.86050  0.77240  Biso   1.000  C
  H600     1.0000 0.90890  0.84710  0.76670  Biso   1.000  H
  N300     1.0000 0.87720  0.85720  0.79620  Biso   1.000  N
  O301     1.0000 0.46918  0.35738  0.68628  Biso   1.000  O
  C901     1.0000 0.43519  0.39709  0.69025  Biso   1.000  C
  C902     1.0000 0.45974  0.38087  0.67460  Biso   1.000  C
  C903     1.0000 0.40590  0.37178  0.78210  Biso   1.000  C
  H601     1.0000 0.42230  0.35950  0.77650  Biso   1.000  H
  N301     1.0000 0.39040  0.36915  0.80802  Biso   1.000  N
  O302     1.0000 0.46920  0.39242  0.65070  Biso   1.000  O
  C904     1.0000 0.42690  0.38994  0.72080  Biso   1.000  C
  H602     1.0000 0.43820  0.37550  0.73160  Biso   1.000  H
  C905     1.0000 0.42200  0.38330  0.71430  Biso   1.000  C
  H603     1.0000 0.43010  0.36530  0.72230  Biso   1.000  H
  C906     1.0000 0.39330  0.36050  0.77240  Biso   1.000  C
  H604     1.0000 0.40890  0.34710  0.76670  Biso   1.000  H
  N302     1.0000 0.37720  0.35720  0.79620  Biso   1.000  N
  O303     1.0000 0.46918  0.85738  0.18628  Biso   1.000  O
  C907     1.0000 0.43519  0.89709  0.19025  Biso   1.000  C
  C908     1.0000 0.45974  0.88087  0.17460  Biso   1.000  C
  C909     1.0000 0.40590  0.87178  0.28210  Biso   1.000  C
  H605     1.0000 0.42230  0.85950  0.27650  Biso   1.000  H
  N303     1.0000 0.39040  0.86915  0.30802  Biso   1.000  N
  O304     1.0000 0.46920  0.89242  0.15070  Biso   1.000  O
  C910     1.0000 0.42690  0.88994  0.22080  Biso   1.000  C
  H606     1.0000 0.43820  0.87550  0.23160  Biso   1.000  H
  C911     1.0000 0.42200  0.88330  0.21430  Biso   1.000  C
  H607     1.0000 0.43010  0.86530  0.22230  Biso   1.000  H
  C912     1.0000 0.39330  0.86050  0.27240  Biso   1.000  C
  H608     1.0000 0.40890  0.84710  0.26670  Biso   1.000  H
  N304     1.0000 0.37720  0.85720  0.29620  Biso   1.000  N
  O305     1.0000 0.03082  0.35738  0.81372  Biso   1.000  O
  C913     1.0000 0.06481  0.39709  0.80975  Biso   1.000  C
  C914     1.0000 0.04026  0.38087  0.82540  Biso   1.000  C
  C915     1.0000 0.09410  0.37178  0.71790  Biso   1.000  C
  H609     1.0000 0.07770  0.35950  0.72350  Biso   1.000  H
  N305     1.0000 0.10960  0.36915  0.69198  Biso   1.000  N
  O306     1.0000 0.03080  0.39242  0.84930  Biso   1.000  O
  C916     1.0000 0.07310  0.38994  0.77920  Biso   1.000  C
  H610     1.0000 0.06180  0.37550  0.76840  Biso   1.000  H
  C917     1.0000 0.07800  0.38330  0.78570  Biso   1.000  C
  H611     1.0000 0.06990  0.36530  0.77770  Biso   1.000  H
  C918     1.0000 0.10670  0.36050  0.72760  Biso   1.000  C
  H612     1.0000 0.09110  0.34710  0.73330  Biso   1.000  H
  N306     1.0000 0.12280  0.35720  0.70380  Biso   1.000  N
  O307     1.0000 0.03082  0.85738  0.31372  Biso   1.000  O
  C919     1.0000 0.06481  0.89709  0.30975  Biso   1.000  C
  C920     1.0000 0.04026  0.88087  0.32540  Biso   1.000  C
  C921     1.0000 0.09410  0.87178  0.21790  Biso   1.000  C
  H613     1.0000 0.07770  0.85950  0.22350  Biso   1.000  H
  N307     1.0000 0.10960  0.86915  0.19198  Biso   1.000  N
  O308     1.0000 0.03080  0.89242  0.34930  Biso   1.000  O
  C922     1.0000 0.07310  0.88994  0.27920  Biso   1.000  C
  H614     1.0000 0.06180  0.87550  0.26840  Biso   1.000  H
  C923     1.0000 0.07800  0.88330  0.28570  Biso   1.000  C
  H615     1.0000 0.06990  0.86530  0.27770  Biso   1.000  H
  C924     1.0000 0.10670  0.86050  0.22760  Biso   1.000  C
  H616     1.0000 0.09110  0.84710  0.23330  Biso   1.000  H
  N308     1.0000 0.12280  0.85720  0.20380  Biso   1.000  N
  O309     1.0000 0.53082  0.35738  0.31372  Biso   1.000  O
  C925     1.0000 0.56481  0.39709  0.30975  Biso   1.000  C
  C926     1.0000 0.54026  0.38087  0.32540  Biso   1.000  C
  C927     1.0000 0.59410  0.37178  0.21790  Biso   1.000  C
  H617     1.0000 0.57770  0.35950  0.22350  Biso   1.000  H
  N309     1.0000 0.60960  0.36915  0.19198  Biso   1.000  N
  O310     1.0000 0.53080  0.39242  0.34930  Biso   1.000  O
  C928     1.0000 0.57310  0.38994  0.27920  Biso   1.000  C
  H618     1.0000 0.56180  0.37550  0.26840  Biso   1.000  H
  C929     1.0000 0.57800  0.38330  0.28570  Biso   1.000  C
  H619     1.0000 0.56990  0.36530  0.27770  Biso   1.000  H
  C930     1.0000 0.60670  0.36050  0.22760  Biso   1.000  C
  H620     1.0000 0.59110  0.34710  0.23330  Biso   1.000  H
  N310     1.0000 0.62280  0.35720  0.20380  Biso   1.000  N
  O311     1.0000 0.53082  0.85738  0.81372  Biso   1.000  O
  C931     1.0000 0.56481  0.89709  0.80975  Biso   1.000  C
  C932     1.0000 0.54026  0.88087  0.82540  Biso   1.000  C
  C933     1.0000 0.59410  0.87178  0.71790  Biso   1.000  C
  H621     1.0000 0.57770  0.85950  0.72350  Biso   1.000  H
  N311     1.0000 0.60960  0.86915  0.69198  Biso   1.000  N
  O312     1.0000 0.53080  0.89242  0.84930  Biso   1.000  O
  C934     1.0000 0.57310  0.88994  0.77920  Biso   1.000  C
  H622     1.0000 0.56180  0.87550  0.76840  Biso   1.000  H
  C935     1.0000 0.57800  0.88330  0.78570  Biso   1.000  C
  H623     1.0000 0.56990  0.86530  0.77770  Biso   1.000  H
  C936     1.0000 0.60670  0.86050  0.72760  Biso   1.000  C
  H624     1.0000 0.59110  0.84710  0.73330  Biso   1.000  H
  N312     1.0000 0.62280  0.85720  0.70380  Biso   1.000  N
  O313     1.0000 0.96918  0.64262  0.81372  Biso   1.000  O
  C937     1.0000 0.93519  0.60291  0.80975  Biso   1.000  C
  C938     1.0000 0.95974  0.61913  0.82540  Biso   1.000  C
  C939     1.0000 0.90590  0.62822  0.71790  Biso   1.000  C
  H625     1.0000 0.92230  0.64050  0.72350  Biso   1.000  H
  N313     1.0000 0.89040  0.63085  0.69198  Biso   1.000  N
  O314     1.0000 0.96920  0.60758  0.84930  Biso   1.000  O
  C940     1.0000 0.92690  0.61006  0.77920  Biso   1.000  C
  H626     1.0000 0.93820  0.62450  0.76840  Biso   1.000  H
  C941     1.0000 0.92200  0.61670  0.78570  Biso   1.000  C
  H627     1.0000 0.93010  0.63470  0.77770  Biso   1.000  H
  C942     1.0000 0.89330  0.63950  0.72760  Biso   1.000  C
  H628     1.0000 0.90890  0.65290  0.73330  Biso   1.000  H
  N314     1.0000 0.87720  0.64280  0.70380  Biso   1.000  N
  O315     1.0000 0.96918  0.14262  0.31372  Biso   1.000  O
  C943     1.0000 0.93519  0.10291  0.30975  Biso   1.000  C
  C944     1.0000 0.95974  0.11913  0.32540  Biso   1.000  C
  C945     1.0000 0.90590  0.12822  0.21790  Biso   1.000  C
  H629     1.0000 0.92230  0.14050  0.22350  Biso   1.000  H
  N315     1.0000 0.89040  0.13085  0.19198  Biso   1.000  N
  O316     1.0000 0.96920  0.10758  0.34930  Biso   1.000  O
  C946     1.0000 0.92690  0.11006  0.27920  Biso   1.000  C
  H630     1.0000 0.93820  0.12450  0.26840  Biso   1.000  H
  C947     1.0000 0.92200  0.11670  0.28570  Biso   1.000  C
  H631     1.0000 0.93010  0.13470  0.27770  Biso   1.000  H
  C948     1.0000 0.89330  0.13950  0.22760  Biso   1.000  C
  H632     1.0000 0.90890  0.15290  0.23330  Biso   1.000  H
  N316     1.0000 0.87720  0.14280  0.20380  Biso   1.000  N
  O317     1.0000 0.46918  0.64262  0.31372  Biso   1.000  O
  C949     1.0000 0.43519  0.60291  0.30975  Biso   1.000  C
  C950     1.0000 0.45974  0.61913  0.32540  Biso   1.000  C
  C951     1.0000 0.40590  0.62822  0.21790  Biso   1.000  C
  H633     1.0000 0.42230  0.64050  0.22350  Biso   1.000  H
  N317     1.0000 0.39040  0.63085  0.19198  Biso   1.000  N
  O318     1.0000 0.46920  0.60758  0.34930  Biso   1.000  O
  C952     1.0000 0.42690  0.61006  0.27920  Biso   1.000  C
  H634     1.0000 0.43820  0.62450  0.26840  Biso   1.000  H
  C953     1.0000 0.42200  0.61670  0.28570  Biso   1.000  C
  H635     1.0000 0.43010  0.63470  0.27770  Biso   1.000  H
  C954     1.0000 0.39330  0.63950  0.22760  Biso   1.000  C
  H636     1.0000 0.40890  0.65290  0.23330  Biso   1.000  H
  N318     1.0000 0.37720  0.64280  0.20380  Biso   1.000  N
  O319     1.0000 0.46918  0.14262  0.81372  Biso   1.000  O
  C955     1.0000 0.43519  0.10291  0.80975  Biso   1.000  C
  C956     1.0000 0.45974  0.11913  0.82540  Biso   1.000  C
  C957     1.0000 0.40590  0.12822  0.71790  Biso   1.000  C
  H637     1.0000 0.42230  0.14050  0.72350  Biso   1.000  H
  N319     1.0000 0.39040  0.13085  0.69198  Biso   1.000  N
  O320     1.0000 0.46920  0.10758  0.84930  Biso   1.000  O
  C958     1.0000 0.42690  0.11006  0.77920  Biso   1.000  C
  H638     1.0000 0.43820  0.12450  0.76840  Biso   1.000  H
  C959     1.0000 0.42200  0.11670  0.78570  Biso   1.000  C
  H639     1.0000 0.43010  0.13470  0.77770  Biso   1.000  H
  C960     1.0000 0.39330  0.13950  0.72760  Biso   1.000  C
  H640     1.0000 0.40890  0.15290  0.73330  Biso   1.000  H
  N320     1.0000 0.37720  0.14280  0.70380  Biso   1.000  N
  O321     1.0000 0.64262  0.81372  0.96918  Biso   1.000  O
  C961     1.0000 0.60291  0.80975  0.93519  Biso   1.000  C
  C962     1.0000 0.61913  0.82540  0.95974  Biso   1.000  C
  C963     1.0000 0.62822  0.71790  0.90590  Biso   1.000  C
  H641     1.0000 0.64050  0.72350  0.92230  Biso   1.000  H
  N321     1.0000 0.63085  0.69198  0.89040  Biso   1.000  N
  O322     1.0000 0.60758  0.84930  0.96920  Biso   1.000  O
  C964     1.0000 0.61006  0.77920  0.92690  Biso   1.000  C
  H642     1.0000 0.62450  0.76840  0.93820  Biso   1.000  H
  C965     1.0000 0.61670  0.78570  0.92200  Biso   1.000  C
  H643     1.0000 0.63470  0.77770  0.93010  Biso   1.000  H
  C966     1.0000 0.63950  0.72760  0.89330  Biso   1.000  C
  H644     1.0000 0.65290  0.73330  0.90890  Biso   1.000  H
  N322     1.0000 0.64280  0.70380  0.87720  Biso   1.000  N
  O323     1.0000 0.64262  0.31372  0.46918  Biso   1.000  O
  C967     1.0000 0.60291  0.30975  0.43519  Biso   1.000  C
  C968     1.0000 0.61913  0.32540  0.45974  Biso   1.000  C
  C969     1.0000 0.62822  0.21790  0.40590  Biso   1.000  C
  H645     1.0000 0.64050  0.22350  0.42230  Biso   1.000  H
  N323     1.0000 0.63085  0.19198  0.39040  Biso   1.000  N
  O324     1.0000 0.60758  0.34930  0.46920  Biso   1.000  O
  C970     1.0000 0.61006  0.27920  0.42690  Biso   1.000  C
  H646     1.0000 0.62450  0.26840  0.43820  Biso   1.000  H
  C971     1.0000 0.61670  0.28570  0.42200  Biso   1.000  C
  H647     1.0000 0.63470  0.27770  0.43010  Biso   1.000  H
  C972     1.0000 0.63950  0.22760  0.39330  Biso   1.000  C
  H648     1.0000 0.65290  0.23330  0.40890  Biso   1.000  H
  N324     1.0000 0.64280  0.20380  0.37720  Biso   1.000  N
  O325     1.0000 0.14262  0.81372  0.46918  Biso   1.000  O
  C973     1.0000 0.10291  0.80975  0.43519  Biso   1.000  C
  C974     1.0000 0.11913  0.82540  0.45974  Biso   1.000  C
  C975     1.0000 0.12822  0.71790  0.40590  Biso   1.000  C
  H649     1.0000 0.14050  0.72350  0.42230  Biso   1.000  H
  N325     1.0000 0.13085  0.69198  0.39040  Biso   1.000  N
  O326     1.0000 0.10758  0.84930  0.46920  Biso   1.000  O
  C976     1.0000 0.11006  0.77920  0.42690  Biso   1.000  C
  H650     1.0000 0.12450  0.76840  0.43820  Biso   1.000  H
  C977     1.0000 0.11670  0.78570  0.42200  Biso   1.000  C
  H651     1.0000 0.13470  0.77770  0.43010  Biso   1.000  H
  C978     1.0000 0.13950  0.72760  0.39330  Biso   1.000  C
  H652     1.0000 0.15290  0.73330  0.40890  Biso   1.000  H
  N326     1.0000 0.14280  0.70380  0.37720  Biso   1.000  N
  O327     1.0000 0.14262  0.31372  0.96918  Biso   1.000  O
  C979     1.0000 0.10291  0.30975  0.93519  Biso   1.000  C
  C980     1.0000 0.11913  0.32540  0.95974  Biso   1.000  C
  C981     1.0000 0.12822  0.21790  0.90590  Biso   1.000  C
  H653     1.0000 0.14050  0.22350  0.92230  Biso   1.000  H
  N327     1.0000 0.13085  0.19198  0.89040  Biso   1.000  N
  O328     1.0000 0.10758  0.34930  0.96920  Biso   1.000  O
  C982     1.0000 0.11006  0.27920  0.92690  Biso   1.000  C
  H654     1.0000 0.12450  0.26840  0.93820  Biso   1.000  H
  C983     1.0000 0.11670  0.28570  0.92200  Biso   1.000  C
  H655     1.0000 0.13470  0.27770  0.93010  Biso   1.000  H
  C984     1.0000 0.13950  0.22760  0.89330  Biso   1.000  C
  H656     1.0000 0.15290  0.23330  0.90890  Biso   1.000  H
  N328     1.0000 0.14280  0.20380  0.87720  Biso   1.000  N
  O329     1.0000 0.35738  0.81372  0.03082  Biso   1.000  O
  C985     1.0000 0.39709  0.80975  0.06481  Biso   1.000  C
  C986     1.0000 0.38087  0.82540  0.04026  Biso   1.000  C
  C987     1.0000 0.37178  0.71790  0.09410  Biso   1.000  C
  H657     1.0000 0.35950  0.72350  0.07770  Biso   1.000  H
  N329     1.0000 0.36915  0.69198  0.10960  Biso   1.000  N
  O330     1.0000 0.39242  0.84930  0.03080  Biso   1.000  O
  C988     1.0000 0.38994  0.77920  0.07310  Biso   1.000  C
  H658     1.0000 0.37550  0.76840  0.06180  Biso   1.000  H
  C989     1.0000 0.38330  0.78570  0.07800  Biso   1.000  C
  H659     1.0000 0.36530  0.77770  0.06990  Biso   1.000  H
  C990     1.0000 0.36050  0.72760  0.10670  Biso   1.000  C
  H660     1.0000 0.34710  0.73330  0.09110  Biso   1.000  H
  N330     1.0000 0.35720  0.70380  0.12280  Biso   1.000  N
  O331     1.0000 0.35738  0.31372  0.53082  Biso   1.000  O
  C991     1.0000 0.39709  0.30975  0.56481  Biso   1.000  C
  C992     1.0000 0.38087  0.32540  0.54026  Biso   1.000  C
  C993     1.0000 0.37178  0.21790  0.59410  Biso   1.000  C
  H661     1.0000 0.35950  0.22350  0.57770  Biso   1.000  H
  N331     1.0000 0.36915  0.19198  0.60960  Biso   1.000  N
  O332     1.0000 0.39242  0.34930  0.53080  Biso   1.000  O
  C994     1.0000 0.38994  0.27920  0.57310  Biso   1.000  C
  H662     1.0000 0.37550  0.26840  0.56180  Biso   1.000  H
  C995     1.0000 0.38330  0.28570  0.57800  Biso   1.000  C
  H663     1.0000 0.36530  0.27770  0.56990  Biso   1.000  H
  C996     1.0000 0.36050  0.22760  0.60670  Biso   1.000  C
  H664     1.0000 0.34710  0.23330  0.59110  Biso   1.000  H
  N332     1.0000 0.35720  0.20380  0.62280  Biso   1.000  N
  O333     1.0000 0.85738  0.81372  0.53082  Biso   1.000  O
  C997     1.0000 0.89709  0.80975  0.56481  Biso   1.000  C
  C998     1.0000 0.88087  0.82540  0.54026  Biso   1.000  C
  C999     1.0000 0.87178  0.71790  0.59410  Biso   1.000  C
  H665     1.0000 0.85950  0.72350  0.57770  Biso   1.000  H
  N333     1.0000 0.86915  0.69198  0.60960  Biso   1.000  N
  O334     1.0000 0.89242  0.84930  0.53080  Biso   1.000  O
  C1000    1.0000 0.88994  0.77920  0.57310  Biso   1.000  C
  H666     1.0000 0.87550  0.76840  0.56180  Biso   1.000  H
  C1001    1.0000 0.88330  0.78570  0.57800  Biso   1.000  C
  H667     1.0000 0.86530  0.77770  0.56990  Biso   1.000  H
  C1002    1.0000 0.86050  0.72760  0.60670  Biso   1.000  C
  H668     1.0000 0.84710  0.73330  0.59110  Biso   1.000  H
  N334     1.0000 0.85720  0.70380  0.62280  Biso   1.000  N
  O335     1.0000 0.85738  0.31372  0.03082  Biso   1.000  O
  C1003    1.0000 0.89709  0.30975  0.06481  Biso   1.000  C
  C1004    1.0000 0.88087  0.32540  0.04026  Biso   1.000  C
  C1005    1.0000 0.87178  0.21790  0.09410  Biso   1.000  C
  H669     1.0000 0.85950  0.22350  0.07770  Biso   1.000  H
  N335     1.0000 0.86915  0.19198  0.10960  Biso   1.000  N
  O336     1.0000 0.89242  0.34930  0.03080  Biso   1.000  O
  C1006    1.0000 0.88994  0.27920  0.07310  Biso   1.000  C
  H670     1.0000 0.87550  0.26840  0.06180  Biso   1.000  H
  C1007    1.0000 0.88330  0.28570  0.07800  Biso   1.000  C
  H671     1.0000 0.86530  0.27770  0.06990  Biso   1.000  H
  C1008    1.0000 0.86050  0.22760  0.10670  Biso   1.000  C
  H672     1.0000 0.84710  0.23330  0.09110  Biso   1.000  H
  N336     1.0000 0.85720  0.20380  0.12280  Biso   1.000  N
  O337     1.0000 0.35738  0.18628  0.96918  Biso   1.000  O
  C1009    1.0000 0.39709  0.19025  0.93519  Biso   1.000  C
  C1010    1.0000 0.38087  0.17460  0.95974  Biso   1.000  C
  C1011    1.0000 0.37178  0.28210  0.90590  Biso   1.000  C
  H673     1.0000 0.35950  0.27650  0.92230  Biso   1.000  H
  N337     1.0000 0.36915  0.30802  0.89040  Biso   1.000  N
  O338     1.0000 0.39242  0.15070  0.96920  Biso   1.000  O
  C1012    1.0000 0.38994  0.22080  0.92690  Biso   1.000  C
  H674     1.0000 0.37550  0.23160  0.93820  Biso   1.000  H
  C1013    1.0000 0.38330  0.21430  0.92200  Biso   1.000  C
  H675     1.0000 0.36530  0.22230  0.93010  Biso   1.000  H
  C1014    1.0000 0.36050  0.27240  0.89330  Biso   1.000  C
  H676     1.0000 0.34710  0.26670  0.90890  Biso   1.000  H
  N338     1.0000 0.35720  0.29620  0.87720  Biso   1.000  N
  O339     1.0000 0.35738  0.68628  0.46918  Biso   1.000  O
  C1015    1.0000 0.39709  0.69025  0.43519  Biso   1.000  C
  C1016    1.0000 0.38087  0.67460  0.45974  Biso   1.000  C
  C1017    1.0000 0.37178  0.78210  0.40590  Biso   1.000  C
  H677     1.0000 0.35950  0.77650  0.42230  Biso   1.000  H
  N339     1.0000 0.36915  0.80802  0.39040  Biso   1.000  N
  O340     1.0000 0.39242  0.65070  0.46920  Biso   1.000  O
  C1018    1.0000 0.38994  0.72080  0.42690  Biso   1.000  C
  H678     1.0000 0.37550  0.73160  0.43820  Biso   1.000  H
  C1019    1.0000 0.38330  0.71430  0.42200  Biso   1.000  C
  H679     1.0000 0.36530  0.72230  0.43010  Biso   1.000  H
  C1020    1.0000 0.36050  0.77240  0.39330  Biso   1.000  C
  H680     1.0000 0.34710  0.76670  0.40890  Biso   1.000  H
  N340     1.0000 0.35720  0.79620  0.37720  Biso   1.000  N
  O341     1.0000 0.85738  0.18628  0.46918  Biso   1.000  O
  C1021    1.0000 0.89709  0.19025  0.43519  Biso   1.000  C
  C1022    1.0000 0.88087  0.17460  0.45974  Biso   1.000  C
  C1023    1.0000 0.87178  0.28210  0.40590  Biso   1.000  C
  H681     1.0000 0.85950  0.27650  0.42230  Biso   1.000  H
  N341     1.0000 0.86915  0.30802  0.39040  Biso   1.000  N
  O342     1.0000 0.89242  0.15070  0.46920  Biso   1.000  O
  C1024    1.0000 0.88994  0.22080  0.42690  Biso   1.000  C
  H682     1.0000 0.87550  0.23160  0.43820  Biso   1.000  H
  C1025    1.0000 0.88330  0.21430  0.42200  Biso   1.000  C
  H683     1.0000 0.86530  0.22230  0.43010  Biso   1.000  H
  C1026    1.0000 0.86050  0.27240  0.39330  Biso   1.000  C
  H684     1.0000 0.84710  0.26670  0.40890  Biso   1.000  H
  N342     1.0000 0.85720  0.29620  0.37720  Biso   1.000  N
  O343     1.0000 0.85738  0.68628  0.96918  Biso   1.000  O
  C1027    1.0000 0.89709  0.69025  0.93519  Biso   1.000  C
  C1028    1.0000 0.88087  0.67460  0.95974  Biso   1.000  C
  C1029    1.0000 0.87178  0.78210  0.90590  Biso   1.000  C
  H685     1.0000 0.85950  0.77650  0.92230  Biso   1.000  H
  N343     1.0000 0.86915  0.80802  0.89040  Biso   1.000  N
  O344     1.0000 0.89242  0.65070  0.96920  Biso   1.000  O
  C1030    1.0000 0.88994  0.72080  0.92690  Biso   1.000  C
  H686     1.0000 0.87550  0.73160  0.93820  Biso   1.000  H
  C1031    1.0000 0.88330  0.71430  0.92200  Biso   1.000  C
  H687     1.0000 0.86530  0.72230  0.93010  Biso   1.000  H
  C1032    1.0000 0.86050  0.77240  0.89330  Biso   1.000  C
  H688     1.0000 0.84710  0.76670  0.90890  Biso   1.000  H
  N344     1.0000 0.85720  0.79620  0.87720  Biso   1.000  N
  O345     1.0000 0.64262  0.18628  0.03082  Biso   1.000  O
  C1033    1.0000 0.60291  0.19025  0.06481  Biso   1.000  C
  C1034    1.0000 0.61913  0.17460  0.04026  Biso   1.000  C
  C1035    1.0000 0.62822  0.28210  0.09410  Biso   1.000  C
  H689     1.0000 0.64050  0.27650  0.07770  Biso   1.000  H
  N345     1.0000 0.63085  0.30802  0.10960  Biso   1.000  N
  O346     1.0000 0.60758  0.15070  0.03080  Biso   1.000  O
  C1036    1.0000 0.61006  0.22080  0.07310  Biso   1.000  C
  H690     1.0000 0.62450  0.23160  0.06180  Biso   1.000  H
  C1037    1.0000 0.61670  0.21430  0.07800  Biso   1.000  C
  H691     1.0000 0.63470  0.22230  0.06990  Biso   1.000  H
  C1038    1.0000 0.63950  0.27240  0.10670  Biso   1.000  C
  H692     1.0000 0.65290  0.26670  0.09110  Biso   1.000  H
  N346     1.0000 0.64280  0.29620  0.12280  Biso   1.000  N
  O347     1.0000 0.64262  0.68628  0.53082  Biso   1.000  O
  C1039    1.0000 0.60291  0.69025  0.56481  Biso   1.000  C
  C1040    1.0000 0.61913  0.67460  0.54026  Biso   1.000  C
  C1041    1.0000 0.62822  0.78210  0.59410  Biso   1.000  C
  H693     1.0000 0.64050  0.77650  0.57770  Biso   1.000  H
  N347     1.0000 0.63085  0.80802  0.60960  Biso   1.000  N
  O348     1.0000 0.60758  0.65070  0.53080  Biso   1.000  O
  C1042    1.0000 0.61006  0.72080  0.57310  Biso   1.000  C
  H694     1.0000 0.62450  0.73160  0.56180  Biso   1.000  H
  C1043    1.0000 0.61670  0.71430  0.57800  Biso   1.000  C
  H695     1.0000 0.63470  0.72230  0.56990  Biso   1.000  H
  C1044    1.0000 0.63950  0.77240  0.60670  Biso   1.000  C
  H696     1.0000 0.65290  0.76670  0.59110  Biso   1.000  H
  N348     1.0000 0.64280  0.79620  0.62280  Biso   1.000  N
  O349     1.0000 0.14262  0.18628  0.53082  Biso   1.000  O
  C1045    1.0000 0.10291  0.19025  0.56481  Biso   1.000  C
  C1046    1.0000 0.11913  0.17460  0.54026  Biso   1.000  C
  C1047    1.0000 0.12822  0.28210  0.59410  Biso   1.000  C
  H697     1.0000 0.14050  0.27650  0.57770  Biso   1.000  H
  N349     1.0000 0.13085  0.30802  0.60960  Biso   1.000  N
  O350     1.0000 0.10758  0.15070  0.53080  Biso   1.000  O
  C1048    1.0000 0.11006  0.22080  0.57310  Biso   1.000  C
  H698     1.0000 0.12450  0.23160  0.56180  Biso   1.000  H
  C1049    1.0000 0.11670  0.21430  0.57800  Biso   1.000  C
  H699     1.0000 0.13470  0.22230  0.56990  Biso   1.000  H
  C1050    1.0000 0.13950  0.27240  0.60670  Biso   1.000  C
  H700     1.0000 0.15290  0.26670  0.59110  Biso   1.000  H
  N350     1.0000 0.14280  0.29620  0.62280  Biso   1.000  N
  O351     1.0000 0.14262  0.68628  0.03082  Biso   1.000  O
  C1051    1.0000 0.10291  0.69025  0.06481  Biso   1.000  C
  C1052    1.0000 0.11913  0.67460  0.04026  Biso   1.000  C
  C1053    1.0000 0.12822  0.78210  0.09410  Biso   1.000  C
  H701     1.0000 0.14050  0.77650  0.07770  Biso   1.000  H
  N351     1.0000 0.13085  0.80802  0.10960  Biso   1.000  N
  O352     1.0000 0.10758  0.65070  0.03080  Biso   1.000  O
  C1054    1.0000 0.11006  0.72080  0.07310  Biso   1.000  C
  H702     1.0000 0.12450  0.73160  0.06180  Biso   1.000  H
  C1055    1.0000 0.11670  0.71430  0.07800  Biso   1.000  C
  H703     1.0000 0.13470  0.72230  0.06990  Biso   1.000  H
  C1056    1.0000 0.13950  0.77240  0.10670  Biso   1.000  C
  H704     1.0000 0.15290  0.76670  0.09110  Biso   1.000  H
  N352     1.0000 0.14280  0.79620  0.12280  Biso   1.000  N
  O353     1.0000 0.81372  0.03082  0.35738  Biso   1.000  O
  C1057    1.0000 0.80975  0.06481  0.39709  Biso   1.000  C
  C1058    1.0000 0.82540  0.04026  0.38087  Biso   1.000  C
  C1059    1.0000 0.71790  0.09410  0.37178  Biso   1.000  C
  H705     1.0000 0.72350  0.07770  0.35950  Biso   1.000  H
  N353     1.0000 0.69198  0.10960  0.36915  Biso   1.000  N
  O354     1.0000 0.84930  0.03080  0.39242  Biso   1.000  O
  C1060    1.0000 0.77920  0.07310  0.38994  Biso   1.000  C
  H706     1.0000 0.76840  0.06180  0.37550  Biso   1.000  H
  C1061    1.0000 0.78570  0.07800  0.38330  Biso   1.000  C
  H707     1.0000 0.77770  0.06990  0.36530  Biso   1.000  H
  C1062    1.0000 0.72760  0.10670  0.36050  Biso   1.000  C
  H708     1.0000 0.73330  0.09110  0.34710  Biso   1.000  H
  N354     1.0000 0.70380  0.12280  0.35720  Biso   1.000  N
  O355     1.0000 0.81372  0.53082  0.85738  Biso   1.000  O
  C1063    1.0000 0.80975  0.56481  0.89709  Biso   1.000  C
  C1064    1.0000 0.82540  0.54026  0.88087  Biso   1.000  C
  C1065    1.0000 0.71790  0.59410  0.87178  Biso   1.000  C
  H709     1.0000 0.72350  0.57770  0.85950  Biso   1.000  H
  N355     1.0000 0.69198  0.60960  0.86915  Biso   1.000  N
  O356     1.0000 0.84930  0.53080  0.89242  Biso   1.000  O
  C1066    1.0000 0.77920  0.57310  0.88994  Biso   1.000  C
  H710     1.0000 0.76840  0.56180  0.87550  Biso   1.000  H
  C1067    1.0000 0.78570  0.57800  0.88330  Biso   1.000  C
  H711     1.0000 0.77770  0.56990  0.86530  Biso   1.000  H
  C1068    1.0000 0.72760  0.60670  0.86050  Biso   1.000  C
  H712     1.0000 0.73330  0.59110  0.84710  Biso   1.000  H
  N356     1.0000 0.70380  0.62280  0.85720  Biso   1.000  N
  O357     1.0000 0.31372  0.03082  0.85738  Biso   1.000  O
  C1069    1.0000 0.30975  0.06481  0.89709  Biso   1.000  C
  C1070    1.0000 0.32540  0.04026  0.88087  Biso   1.000  C
  C1071    1.0000 0.21790  0.09410  0.87178  Biso   1.000  C
  H713     1.0000 0.22350  0.07770  0.85950  Biso   1.000  H
  N357     1.0000 0.19198  0.10960  0.86915  Biso   1.000  N
  O358     1.0000 0.34930  0.03080  0.89242  Biso   1.000  O
  C1072    1.0000 0.27920  0.07310  0.88994  Biso   1.000  C
  H714     1.0000 0.26840  0.06180  0.87550  Biso   1.000  H
  C1073    1.0000 0.28570  0.07800  0.88330  Biso   1.000  C
  H715     1.0000 0.27770  0.06990  0.86530  Biso   1.000  H
  C1074    1.0000 0.22760  0.10670  0.86050  Biso   1.000  C
  H716     1.0000 0.23330  0.09110  0.84710  Biso   1.000  H
  N358     1.0000 0.20380  0.12280  0.85720  Biso   1.000  N
  O359     1.0000 0.31372  0.53082  0.35738  Biso   1.000  O
  C1075    1.0000 0.30975  0.56481  0.39709  Biso   1.000  C
  C1076    1.0000 0.32540  0.54026  0.38087  Biso   1.000  C
  C1077    1.0000 0.21790  0.59410  0.37178  Biso   1.000  C
  H717     1.0000 0.22350  0.57770  0.35950  Biso   1.000  H
  N359     1.0000 0.19198  0.60960  0.36915  Biso   1.000  N
  O360     1.0000 0.34930  0.53080  0.39242  Biso   1.000  O
  C1078    1.0000 0.27920  0.57310  0.38994  Biso   1.000  C
  H718     1.0000 0.26840  0.56180  0.37550  Biso   1.000  H
  C1079    1.0000 0.28570  0.57800  0.38330  Biso   1.000  C
  H719     1.0000 0.27770  0.56990  0.36530  Biso   1.000  H
  C1080    1.0000 0.22760  0.60670  0.36050  Biso   1.000  C
  H720     1.0000 0.23330  0.59110  0.34710  Biso   1.000  H
  N360     1.0000 0.20380  0.62280  0.35720  Biso   1.000  N
  O361     1.0000 0.81372  0.96918  0.64262  Biso   1.000  O
  C1081    1.0000 0.80975  0.93519  0.60291  Biso   1.000  C
  C1082    1.0000 0.82540  0.95974  0.61913  Biso   1.000  C
  C1083    1.0000 0.71790  0.90590  0.62822  Biso   1.000  C
  H721     1.0000 0.72350  0.92230  0.64050  Biso   1.000  H
  N361     1.0000 0.69198  0.89040  0.63085  Biso   1.000  N
  O362     1.0000 0.84930  0.96920  0.60758  Biso   1.000  O
  C1084    1.0000 0.77920  0.92690  0.61006  Biso   1.000  C
  H722     1.0000 0.76840  0.93820  0.62450  Biso   1.000  H
  C1085    1.0000 0.78570  0.92200  0.61670  Biso   1.000  C
  H723     1.0000 0.77770  0.93010  0.63470  Biso   1.000  H
  C1086    1.0000 0.72760  0.89330  0.63950  Biso   1.000  C
  H724     1.0000 0.73330  0.90890  0.65290  Biso   1.000  H
  N362     1.0000 0.70380  0.87720  0.64280  Biso   1.000  N
  O363     1.0000 0.81372  0.46918  0.14262  Biso   1.000  O
  C1087    1.0000 0.80975  0.43519  0.10291  Biso   1.000  C
  C1088    1.0000 0.82540  0.45974  0.11913  Biso   1.000  C
  C1089    1.0000 0.71790  0.40590  0.12822  Biso   1.000  C
  H725     1.0000 0.72350  0.42230  0.14050  Biso   1.000  H
  N363     1.0000 0.69198  0.39040  0.13085  Biso   1.000  N
  O364     1.0000 0.84930  0.46920  0.10758  Biso   1.000  O
  C1090    1.0000 0.77920  0.42690  0.11006  Biso   1.000  C
  H726     1.0000 0.76840  0.43820  0.12450  Biso   1.000  H
  C1091    1.0000 0.78570  0.42200  0.11670  Biso   1.000  C
  H727     1.0000 0.77770  0.43010  0.13470  Biso   1.000  H
  C1092    1.0000 0.72760  0.39330  0.13950  Biso   1.000  C
  H728     1.0000 0.73330  0.40890  0.15290  Biso   1.000  H
  N364     1.0000 0.70380  0.37720  0.14280  Biso   1.000  N
  O365     1.0000 0.31372  0.96918  0.14262  Biso   1.000  O
  C1093    1.0000 0.30975  0.93519  0.10291  Biso   1.000  C
  C1094    1.0000 0.32540  0.95974  0.11913  Biso   1.000  C
  C1095    1.0000 0.21790  0.90590  0.12822  Biso   1.000  C
  H729     1.0000 0.22350  0.92230  0.14050  Biso   1.000  H
  N365     1.0000 0.19198  0.89040  0.13085  Biso   1.000  N
  O366     1.0000 0.34930  0.96920  0.10758  Biso   1.000  O
  C1096    1.0000 0.27920  0.92690  0.11006  Biso   1.000  C
  H730     1.0000 0.26840  0.93820  0.12450  Biso   1.000  H
  C1097    1.0000 0.28570  0.92200  0.11670  Biso   1.000  C
  H731     1.0000 0.27770  0.93010  0.13470  Biso   1.000  H
  C1098    1.0000 0.22760  0.89330  0.13950  Biso   1.000  C
  H732     1.0000 0.23330  0.90890  0.15290  Biso   1.000  H
  N366     1.0000 0.20380  0.87720  0.14280  Biso   1.000  N
  O367     1.0000 0.31372  0.46918  0.64262  Biso   1.000  O
  C1099    1.0000 0.30975  0.43519  0.60291  Biso   1.000  C
  C1100    1.0000 0.32540  0.45974  0.61913  Biso   1.000  C
  C1101    1.0000 0.21790  0.40590  0.62822  Biso   1.000  C
  H733     1.0000 0.22350  0.42230  0.64050  Biso   1.000  H
  N367     1.0000 0.19198  0.39040  0.63085  Biso   1.000  N
  O368     1.0000 0.34930  0.46920  0.60758  Biso   1.000  O
  C1102    1.0000 0.27920  0.42690  0.61006  Biso   1.000  C
  H734     1.0000 0.26840  0.43820  0.62450  Biso   1.000  H
  C1103    1.0000 0.28570  0.42200  0.61670  Biso   1.000  C
  H735     1.0000 0.27770  0.43010  0.63470  Biso   1.000  H
  C1104    1.0000 0.22760  0.39330  0.63950  Biso   1.000  C
  H736     1.0000 0.23330  0.40890  0.65290  Biso   1.000  H
  N368     1.0000 0.20380  0.37720  0.64280  Biso   1.000  N
  O369     1.0000 0.18628  0.03082  0.64262  Biso   1.000  O
  C1105    1.0000 0.19025  0.06481  0.60291  Biso   1.000  C
  C1106    1.0000 0.17460  0.04026  0.61913  Biso   1.000  C
  C1107    1.0000 0.28210  0.09410  0.62822  Biso   1.000  C
  H737     1.0000 0.27650  0.07770  0.64050  Biso   1.000  H
  N369     1.0000 0.30802  0.10960  0.63085  Biso   1.000  N
  O370     1.0000 0.15070  0.03080  0.60758  Biso   1.000  O
  C1108    1.0000 0.22080  0.07310  0.61006  Biso   1.000  C
  H738     1.0000 0.23160  0.06180  0.62450  Biso   1.000  H
  C1109    1.0000 0.21430  0.07800  0.61670  Biso   1.000  C
  H739     1.0000 0.22230  0.06990  0.63470  Biso   1.000  H
  C1110    1.0000 0.27240  0.10670  0.63950  Biso   1.000  C
  H740     1.0000 0.26670  0.09110  0.65290  Biso   1.000  H
  N370     1.0000 0.29620  0.12280  0.64280  Biso   1.000  N
  O371     1.0000 0.18628  0.53082  0.14262  Biso   1.000  O
  C1111    1.0000 0.19025  0.56481  0.10291  Biso   1.000  C
  C1112    1.0000 0.17460  0.54026  0.11913  Biso   1.000  C
  C1113    1.0000 0.28210  0.59410  0.12822  Biso   1.000  C
  H741     1.0000 0.27650  0.57770  0.14050  Biso   1.000  H
  N371     1.0000 0.30802  0.60960  0.13085  Biso   1.000  N
  O372     1.0000 0.15070  0.53080  0.10758  Biso   1.000  O
  C1114    1.0000 0.22080  0.57310  0.11006  Biso   1.000  C
  H742     1.0000 0.23160  0.56180  0.12450  Biso   1.000  H
  C1115    1.0000 0.21430  0.57800  0.11670  Biso   1.000  C
  H743     1.0000 0.22230  0.56990  0.13470  Biso   1.000  H
  C1116    1.0000 0.27240  0.60670  0.13950  Biso   1.000  C
  H744     1.0000 0.26670  0.59110  0.15290  Biso   1.000  H
  N372     1.0000 0.29620  0.62280  0.14280  Biso   1.000  N
  O373     1.0000 0.68628  0.03082  0.14262  Biso   1.000  O
  C1117    1.0000 0.69025  0.06481  0.10291  Biso   1.000  C
  C1118    1.0000 0.67460  0.04026  0.11913  Biso   1.000  C
  C1119    1.0000 0.78210  0.09410  0.12822  Biso   1.000  C
  H745     1.0000 0.77650  0.07770  0.14050  Biso   1.000  H
  N373     1.0000 0.80802  0.10960  0.13085  Biso   1.000  N
  O374     1.0000 0.65070  0.03080  0.10758  Biso   1.000  O
  C1120    1.0000 0.72080  0.07310  0.11006  Biso   1.000  C
  H746     1.0000 0.73160  0.06180  0.12450  Biso   1.000  H
  C1121    1.0000 0.71430  0.07800  0.11670  Biso   1.000  C
  H747     1.0000 0.72230  0.06990  0.13470  Biso   1.000  H
  C1122    1.0000 0.77240  0.10670  0.13950  Biso   1.000  C
  H748     1.0000 0.76670  0.09110  0.15290  Biso   1.000  H
  N374     1.0000 0.79620  0.12280  0.14280  Biso   1.000  N
  O375     1.0000 0.68628  0.53082  0.64262  Biso   1.000  O
  C1123    1.0000 0.69025  0.56481  0.60291  Biso   1.000  C
  C1124    1.0000 0.67460  0.54026  0.61913  Biso   1.000  C
  C1125    1.0000 0.78210  0.59410  0.62822  Biso   1.000  C
  H749     1.0000 0.77650  0.57770  0.64050  Biso   1.000  H
  N375     1.0000 0.80802  0.60960  0.63085  Biso   1.000  N
  O376     1.0000 0.65070  0.53080  0.60758  Biso   1.000  O
  C1126    1.0000 0.72080  0.57310  0.61006  Biso   1.000  C
  H750     1.0000 0.73160  0.56180  0.62450  Biso   1.000  H
  C1127    1.0000 0.71430  0.57800  0.61670  Biso   1.000  C
  H751     1.0000 0.72230  0.56990  0.63470  Biso   1.000  H
  C1128    1.0000 0.77240  0.60670  0.63950  Biso   1.000  C
  H752     1.0000 0.76670  0.59110  0.65290  Biso   1.000  H
  N376     1.0000 0.79620  0.62280  0.64280  Biso   1.000  N
  O377     1.0000 0.18628  0.96918  0.35738  Biso   1.000  O
  C1129    1.0000 0.19025  0.93519  0.39709  Biso   1.000  C
  C1130    1.0000 0.17460  0.95974  0.38087  Biso   1.000  C
  C1131    1.0000 0.28210  0.90590  0.37178  Biso   1.000  C
  H753     1.0000 0.27650  0.92230  0.35950  Biso   1.000  H
  N377     1.0000 0.30802  0.89040  0.36915  Biso   1.000  N
  O378     1.0000 0.15070  0.96920  0.39242  Biso   1.000  O
  C1132    1.0000 0.22080  0.92690  0.38994  Biso   1.000  C
  H754     1.0000 0.23160  0.93820  0.37550  Biso   1.000  H
  C1133    1.0000 0.21430  0.92200  0.38330  Biso   1.000  C
  H755     1.0000 0.22230  0.93010  0.36530  Biso   1.000  H
  C1134    1.0000 0.27240  0.89330  0.36050  Biso   1.000  C
  H756     1.0000 0.26670  0.90890  0.34710  Biso   1.000  H
  N378     1.0000 0.29620  0.87720  0.35720  Biso   1.000  N
  O379     1.0000 0.18628  0.46918  0.85738  Biso   1.000  O
  C1135    1.0000 0.19025  0.43519  0.89709  Biso   1.000  C
  C1136    1.0000 0.17460  0.45974  0.88087  Biso   1.000  C
  C1137    1.0000 0.28210  0.40590  0.87178  Biso   1.000  C
  H757     1.0000 0.27650  0.42230  0.85950  Biso   1.000  H
  N379     1.0000 0.30802  0.39040  0.86915  Biso   1.000  N
  O380     1.0000 0.15070  0.46920  0.89242  Biso   1.000  O
  C1138    1.0000 0.22080  0.42690  0.88994  Biso   1.000  C
  H758     1.0000 0.23160  0.43820  0.87550  Biso   1.000  H
  C1139    1.0000 0.21430  0.42200  0.88330  Biso   1.000  C
  H759     1.0000 0.22230  0.43010  0.86530  Biso   1.000  H
  C1140    1.0000 0.27240  0.39330  0.86050  Biso   1.000  C
  H760     1.0000 0.26670  0.40890  0.84710  Biso   1.000  H
  N380     1.0000 0.29620  0.37720  0.85720  Biso   1.000  N
  O381     1.0000 0.68628  0.96918  0.85738  Biso   1.000  O
  C1141    1.0000 0.69025  0.93519  0.89709  Biso   1.000  C
  C1142    1.0000 0.67460  0.95974  0.88087  Biso   1.000  C
  C1143    1.0000 0.78210  0.90590  0.87178  Biso   1.000  C
  H761     1.0000 0.77650  0.92230  0.85950  Biso   1.000  H
  N381     1.0000 0.80802  0.89040  0.86915  Biso   1.000  N
  O382     1.0000 0.65070  0.96920  0.89242  Biso   1.000  O
  C1144    1.0000 0.72080  0.92690  0.88994  Biso   1.000  C
  H762     1.0000 0.73160  0.93820  0.87550  Biso   1.000  H
  C1145    1.0000 0.71430  0.92200  0.88330  Biso   1.000  C
  H763     1.0000 0.72230  0.93010  0.86530  Biso   1.000  H
  C1146    1.0000 0.77240  0.89330  0.86050  Biso   1.000  C
  H764     1.0000 0.76670  0.90890  0.84710  Biso   1.000  H
  N382     1.0000 0.79620  0.87720  0.85720  Biso   1.000  N
  O383     1.0000 0.68628  0.46918  0.35738  Biso   1.000  O
  C1147    1.0000 0.69025  0.43519  0.39709  Biso   1.000  C
  C1148    1.0000 0.67460  0.45974  0.38087  Biso   1.000  C
  C1149    1.0000 0.78210  0.40590  0.37178  Biso   1.000  C
  H765     1.0000 0.77650  0.42230  0.35950  Biso   1.000  H
  N383     1.0000 0.80802  0.39040  0.36915  Biso   1.000  N
  O384     1.0000 0.65070  0.46920  0.39242  Biso   1.000  O
  C1150    1.0000 0.72080  0.42690  0.38994  Biso   1.000  C
  H766     1.0000 0.73160  0.43820  0.37550  Biso   1.000  H
  C1151    1.0000 0.71430  0.42200  0.38330  Biso   1.000  C
  H767     1.0000 0.72230  0.43010  0.36530  Biso   1.000  H
  C1152    1.0000 0.77240  0.39330  0.36050  Biso   1.000  C
  H768     1.0000 0.76670  0.40890  0.34710  Biso   1.000  H
  N384     1.0000 0.79620  0.37720  0.35720  Biso   1.000  N
  Cu1      1.0000 0.33225  0.00000  0.16775  Biso   1.000  Cu
  Cu2      1.0000 0.37414  0.00000  0.12586  Biso   1.000  Cu
  Cu3      1.0000 0.33225  0.50000  0.66775  Biso   1.000  Cu
  Cu4      1.0000 0.37414  0.50000  0.62586  Biso   1.000  Cu
  Cu5      1.0000 0.66775  0.00000  0.16775  Biso   1.000  Cu
  Cu6      1.0000 0.62586  0.00000  0.12586  Biso   1.000  Cu
  Cu7      1.0000 0.66775  0.50000  0.66775  Biso   1.000  Cu
  Cu8      1.0000 0.62586  0.50000  0.62586  Biso   1.000  Cu
  Cu9      1.0000 0.16775  0.50000  0.16775  Biso   1.000  Cu
  Cu10     1.0000 0.12586  0.50000  0.12586  Biso   1.000  Cu
  Cu11     1.0000 0.66775  0.00000  0.83225  Biso   1.000  Cu
  Cu12     1.0000 0.62586  0.00000  0.87414  Biso   1.000  Cu
  Cu13     1.0000 0.66775  0.50000  0.33225  Biso   1.000  Cu
  Cu14     1.0000 0.62586  0.50000  0.37414  Biso   1.000  Cu
  Cu15     1.0000 0.16775  0.00000  0.33225  Biso   1.000  Cu
  Cu16     1.0000 0.12586  0.00000  0.37414  Biso   1.000  Cu
  Cu17     1.0000 0.33225  0.00000  0.83225  Biso   1.000  Cu
  Cu18     1.0000 0.37414  0.00000  0.87414  Biso   1.000  Cu
  Cu19     1.0000 0.33225  0.50000  0.33225  Biso   1.000  Cu
  Cu20     1.0000 0.37414  0.50000  0.37414  Biso   1.000  Cu
  Cu21     1.0000 0.16775  0.33225  0.00000  Biso   1.000  Cu
  Cu22     1.0000 0.12586  0.37414  0.00000  Biso   1.000  Cu
  Cu23     1.0000 0.16775  0.83225  0.50000  Biso   1.000  Cu
  Cu24     1.0000 0.12586  0.87414  0.50000  Biso   1.000  Cu
  Cu25     1.0000 0.16775  0.66775  0.00000  Biso   1.000  Cu
  Cu26     1.0000 0.12586  0.62586  0.00000  Biso   1.000  Cu
  Cu27     1.0000 0.16775  0.16775  0.50000  Biso   1.000  Cu
  Cu28     1.0000 0.12586  0.12586  0.50000  Biso   1.000  Cu
  Cu29     1.0000 0.83225  0.66775  0.00000  Biso   1.000  Cu
  Cu30     1.0000 0.87414  0.62586  0.00000  Biso   1.000  Cu
  Cu31     1.0000 0.83225  0.16775  0.50000  Biso   1.000  Cu
  Cu32     1.0000 0.87414  0.12586  0.50000  Biso   1.000  Cu
  Cu33     1.0000 0.33225  0.16775  0.00000  Biso   1.000  Cu
  Cu34     1.0000 0.37414  0.12586  0.00000  Biso   1.000  Cu
  Cu35     1.0000 0.83225  0.33225  0.00000  Biso   1.000  Cu
  Cu36     1.0000 0.87414  0.37414  0.00000  Biso   1.000  Cu
  Cu37     1.0000 0.83225  0.83225  0.50000  Biso   1.000  Cu
  Cu38     1.0000 0.87414  0.87414  0.50000  Biso   1.000  Cu
  Cu39     1.0000 0.33225  0.33225  0.50000  Biso   1.000  Cu
  Cu40     1.0000 0.37414  0.37414  0.50000  Biso   1.000  Cu
  Cu41     1.0000 0.00000  0.16775  0.33225  Biso   1.000  Cu
  Cu42     1.0000 0.00000  0.12586  0.37414  Biso   1.000  Cu
  Cu43     1.0000 0.50000  0.16775  0.83225  Biso   1.000  Cu
  Cu44     1.0000 0.50000  0.12586  0.87414  Biso   1.000  Cu
  Cu45     1.0000 0.00000  0.16775  0.66775  Biso   1.000  Cu
  Cu46     1.0000 0.00000  0.12586  0.62586  Biso   1.000  Cu
  Cu47     1.0000 0.50000  0.16775  0.16775  Biso   1.000  Cu
  Cu48     1.0000 0.50000  0.12586  0.12586  Biso   1.000  Cu
  Cu49     1.0000 0.00000  0.83225  0.66775  Biso   1.000  Cu
  Cu50     1.0000 0.00000  0.87414  0.62586  Biso   1.000  Cu
  Cu51     1.0000 0.00000  0.33225  0.16775  Biso   1.000  Cu
  Cu52     1.0000 0.00000  0.37414  0.12586  Biso   1.000  Cu
  Cu53     1.0000 0.50000  0.83225  0.16775  Biso   1.000  Cu
  Cu54     1.0000 0.50000  0.87414  0.12586  Biso   1.000  Cu
  Cu55     1.0000 0.00000  0.83225  0.33225  Biso   1.000  Cu
  Cu56     1.0000 0.00000  0.87414  0.37414  Biso   1.000  Cu
  Cu57     1.0000 0.50000  0.83225  0.83225  Biso   1.000  Cu
  Cu58     1.0000 0.50000  0.87414  0.87414  Biso   1.000  Cu
  Cu59     1.0000 0.50000  0.33225  0.33225  Biso   1.000  Cu
  Cu60     1.0000 0.50000  0.37414  0.37414  Biso   1.000  Cu
  Cu61     1.0000 0.00000  0.33225  0.83225  Biso   1.000  Cu
  Cu62     1.0000 0.00000  0.37414  0.87414  Biso   1.000  Cu
  Cu63     1.0000 0.00000  0.66775  0.83225  Biso   1.000  Cu
  Cu64     1.0000 0.00000  0.62586  0.87414  Biso   1.000  Cu
  Cu65     1.0000 0.50000  0.66775  0.33225  Biso   1.000  Cu
  Cu66     1.0000 0.50000  0.62586  0.37414  Biso   1.000  Cu
  Cu67     1.0000 0.00000  0.66775  0.16775  Biso   1.000  Cu
  Cu68     1.0000 0.00000  0.62586  0.12586  Biso   1.000  Cu
  Cu69     1.0000 0.50000  0.66775  0.66775  Biso   1.000  Cu
  Cu70     1.0000 0.50000  0.62586  0.62586  Biso   1.000  Cu
  Cu71     1.0000 0.50000  0.33225  0.66775  Biso   1.000  Cu
  Cu72     1.0000 0.50000  0.37414  0.62586  Biso   1.000  Cu
  Cu73     1.0000 0.33225  0.66775  0.50000  Biso   1.000  Cu
  Cu74     1.0000 0.37414  0.62586  0.50000  Biso   1.000  Cu
  Cu75     1.0000 0.66775  0.16775  0.00000  Biso   1.000  Cu
  Cu76     1.0000 0.62586  0.12586  0.00000  Biso   1.000  Cu
  Cu77     1.0000 0.66775  0.66775  0.50000  Biso   1.000  Cu
  Cu78     1.0000 0.62586  0.62586  0.50000  Biso   1.000  Cu
  Cu79     1.0000 0.66775  0.83225  0.00000  Biso   1.000  Cu
  Cu80     1.0000 0.62586  0.87414  0.00000  Biso   1.000  Cu
  Cu81     1.0000 0.66775  0.33225  0.50000  Biso   1.000  Cu
  Cu82     1.0000 0.62586  0.37414  0.50000  Biso   1.000  Cu
  Cu83     1.0000 0.33225  0.83225  0.00000  Biso   1.000  Cu
  Cu84     1.0000 0.37414  0.87414  0.00000  Biso   1.000  Cu
  Cu85     1.0000 0.16775  0.00000  0.66775  Biso   1.000  Cu
  Cu86     1.0000 0.12586  0.00000  0.62586  Biso   1.000  Cu
  Cu87     1.0000 0.16775  0.50000  0.83225  Biso   1.000  Cu
  Cu88     1.0000 0.12586  0.50000  0.87414  Biso   1.000  Cu
  Cu89     1.0000 0.83225  0.00000  0.33225  Biso   1.000  Cu
  Cu90     1.0000 0.87414  0.00000  0.37414  Biso   1.000  Cu
  Cu91     1.0000 0.83225  0.50000  0.83225  Biso   1.000  Cu
  Cu92     1.0000 0.87414  0.50000  0.87414  Biso   1.000  Cu
  Cu93     1.0000 0.83225  0.00000  0.66775  Biso   1.000  Cu
  Cu94     1.0000 0.87414  0.00000  0.62586  Biso   1.000  Cu
  Cu95     1.0000 0.83225  0.50000  0.16775  Biso   1.000  Cu
  Cu96     1.0000 0.87414  0.50000  0.12586  Biso   1.000  Cu
  C1153    1.0000 0.42107  0.92107  0.17641  Biso   1.000  C
  H769     1.0000 0.42790  0.92790  0.15740  Biso   1.000  H
  C1154    1.0000 0.39460  0.89460  0.26530  Biso   1.000  C
  C1155    1.0000 0.40340  0.90340  0.23430  Biso   1.000  C
  C1156    1.0000 0.39620  0.89620  0.22690  Biso   1.000  C
  C1157    1.0000 0.38550  0.88550  0.25590  Biso   1.000  C
  C1158    1.0000 0.42107  0.42107  0.67641  Biso   1.000  C
  H770     1.0000 0.42790  0.42790  0.65740  Biso   1.000  H
  C1159    1.0000 0.39460  0.39460  0.76530  Biso   1.000  C
  C1160    1.0000 0.40340  0.40340  0.73430  Biso   1.000  C
  C1161    1.0000 0.39620  0.39620  0.72690  Biso   1.000  C
  C1162    1.0000 0.38550  0.38550  0.75590  Biso   1.000  C
  C1163    1.0000 0.57893  0.07893  0.17641  Biso   1.000  C
  H771     1.0000 0.57210  0.07210  0.15740  Biso   1.000  H
  C1164    1.0000 0.60540  0.10540  0.26530  Biso   1.000  C
  C1165    1.0000 0.59660  0.09660  0.23430  Biso   1.000  C
  C1166    1.0000 0.60380  0.10380  0.22690  Biso   1.000  C
  C1167    1.0000 0.61450  0.11450  0.25590  Biso   1.000  C
  C1168    1.0000 0.57893  0.57893  0.67641  Biso   1.000  C
  H772     1.0000 0.57210  0.57210  0.65740  Biso   1.000  H
  C1169    1.0000 0.60540  0.60540  0.76530  Biso   1.000  C
  C1170    1.0000 0.59660  0.59660  0.73430  Biso   1.000  C
  C1171    1.0000 0.60380  0.60380  0.72690  Biso   1.000  C
  C1172    1.0000 0.61450  0.61450  0.75590  Biso   1.000  C
  C1173    1.0000 0.07893  0.07893  0.67641  Biso   1.000  C
  H773     1.0000 0.07210  0.07210  0.65740  Biso   1.000  H
  C1174    1.0000 0.10540  0.10540  0.76530  Biso   1.000  C
  C1175    1.0000 0.09660  0.09660  0.73430  Biso   1.000  C
  C1176    1.0000 0.10380  0.10380  0.72690  Biso   1.000  C
  C1177    1.0000 0.11450  0.11450  0.75590  Biso   1.000  C
  C1178    1.0000 0.57893  0.92107  0.82359  Biso   1.000  C
  H774     1.0000 0.57210  0.92790  0.84260  Biso   1.000  H
  C1179    1.0000 0.60540  0.89460  0.73470  Biso   1.000  C
  C1180    1.0000 0.59660  0.90340  0.76570  Biso   1.000  C
  C1181    1.0000 0.60380  0.89620  0.77310  Biso   1.000  C
  C1182    1.0000 0.61450  0.88550  0.74410  Biso   1.000  C
  C1183    1.0000 0.57893  0.42107  0.32359  Biso   1.000  C
  H775     1.0000 0.57210  0.42790  0.34260  Biso   1.000  H
  C1184    1.0000 0.60540  0.39460  0.23470  Biso   1.000  C
  C1185    1.0000 0.59660  0.40340  0.26570  Biso   1.000  C
  C1186    1.0000 0.60380  0.39620  0.27310  Biso   1.000  C
  C1187    1.0000 0.61450  0.38550  0.24410  Biso   1.000  C
  C1188    1.0000 0.07893  0.42107  0.82359  Biso   1.000  C
  H776     1.0000 0.07210  0.42790  0.84260  Biso   1.000  H
  C1189    1.0000 0.10540  0.39460  0.73470  Biso   1.000  C
  C1190    1.0000 0.09660  0.40340  0.76570  Biso   1.000  C
  C1191    1.0000 0.10380  0.39620  0.77310  Biso   1.000  C
  C1192    1.0000 0.11450  0.38550  0.74410  Biso   1.000  C
  C1193    1.0000 0.42107  0.07893  0.82359  Biso   1.000  C
  H777     1.0000 0.42790  0.07210  0.84260  Biso   1.000  H
  C1194    1.0000 0.39460  0.10540  0.73470  Biso   1.000  C
  C1195    1.0000 0.40340  0.09660  0.76570  Biso   1.000  C
  C1196    1.0000 0.39620  0.10380  0.77310  Biso   1.000  C
  C1197    1.0000 0.38550  0.11450  0.74410  Biso   1.000  C
  C1198    1.0000 0.42107  0.57893  0.32359  Biso   1.000  C
  H778     1.0000 0.42790  0.57210  0.34260  Biso   1.000  H
  C1199    1.0000 0.39460  0.60540  0.23470  Biso   1.000  C
  C1200    1.0000 0.40340  0.59660  0.26570  Biso   1.000  C
  C1201    1.0000 0.39620  0.60380  0.27310  Biso   1.000  C
  C1202    1.0000 0.38550  0.61450  0.24410  Biso   1.000  C
  C1203    1.0000 0.17641  0.42107  0.92107  Biso   1.000  C
  H779     1.0000 0.15740  0.42790  0.92790  Biso   1.000  H
  C1204    1.0000 0.26530  0.39460  0.89460  Biso   1.000  C
  C1205    1.0000 0.23430  0.40340  0.90340  Biso   1.000  C
  C1206    1.0000 0.22690  0.39620  0.89620  Biso   1.000  C
  C1207    1.0000 0.25590  0.38550  0.88550  Biso   1.000  C
  C1208    1.0000 0.67641  0.42107  0.42107  Biso   1.000  C
  H780     1.0000 0.65740  0.42790  0.42790  Biso   1.000  H
  C1209    1.0000 0.76530  0.39460  0.39460  Biso   1.000  C
  C1210    1.0000 0.73430  0.40340  0.40340  Biso   1.000  C
  C1211    1.0000 0.72690  0.39620  0.39620  Biso   1.000  C
  C1212    1.0000 0.75590  0.38550  0.38550  Biso   1.000  C
  C1213    1.0000 0.17641  0.57893  0.07893  Biso   1.000  C
  H781     1.0000 0.15740  0.57210  0.07210  Biso   1.000  H
  C1214    1.0000 0.26530  0.60540  0.10540  Biso   1.000  C
  C1215    1.0000 0.23430  0.59660  0.09660  Biso   1.000  C
  C1216    1.0000 0.22690  0.60380  0.10380  Biso   1.000  C
  C1217    1.0000 0.25590  0.61450  0.11450  Biso   1.000  C
  C1218    1.0000 0.67641  0.57893  0.57893  Biso   1.000  C
  H782     1.0000 0.65740  0.57210  0.57210  Biso   1.000  H
  C1219    1.0000 0.76530  0.60540  0.60540  Biso   1.000  C
  C1220    1.0000 0.73430  0.59660  0.59660  Biso   1.000  C
  C1221    1.0000 0.72690  0.60380  0.60380  Biso   1.000  C
  C1222    1.0000 0.75590  0.61450  0.61450  Biso   1.000  C
  C1223    1.0000 0.67641  0.07893  0.07893  Biso   1.000  C
  H783     1.0000 0.65740  0.07210  0.07210  Biso   1.000  H
  C1224    1.0000 0.76530  0.10540  0.10540  Biso   1.000  C
  C1225    1.0000 0.73430  0.09660  0.09660  Biso   1.000  C
  C1226    1.0000 0.72690  0.10380  0.10380  Biso   1.000  C
  C1227    1.0000 0.75590  0.11450  0.11450  Biso   1.000  C
  C1228    1.0000 0.82359  0.57893  0.92107  Biso   1.000  C
  H784     1.0000 0.84260  0.57210  0.92790  Biso   1.000  H
  C1229    1.0000 0.73470  0.60540  0.89460  Biso   1.000  C
  C1230    1.0000 0.76570  0.59660  0.90340  Biso   1.000  C
  C1231    1.0000 0.77310  0.60380  0.89620  Biso   1.000  C
  C1232    1.0000 0.74410  0.61450  0.88550  Biso   1.000  C
  C1233    1.0000 0.82359  0.07893  0.42107  Biso   1.000  C
  H785     1.0000 0.84260  0.07210  0.42790  Biso   1.000  H
  C1234    1.0000 0.73470  0.10540  0.39460  Biso   1.000  C
  C1235    1.0000 0.76570  0.09660  0.40340  Biso   1.000  C
  C1236    1.0000 0.77310  0.10380  0.39620  Biso   1.000  C
  C1237    1.0000 0.74410  0.11450  0.38550  Biso   1.000  C
  C1238    1.0000 0.32359  0.57893  0.42107  Biso   1.000  C
  H786     1.0000 0.34260  0.57210  0.42790  Biso   1.000  H
  C1239    1.0000 0.23470  0.60540  0.39460  Biso   1.000  C
  C1240    1.0000 0.26570  0.59660  0.40340  Biso   1.000  C
  C1241    1.0000 0.27310  0.60380  0.39620  Biso   1.000  C
  C1242    1.0000 0.24410  0.61450  0.38550  Biso   1.000  C
  C1243    1.0000 0.82359  0.42107  0.07893  Biso   1.000  C
  H787     1.0000 0.84260  0.42790  0.07210  Biso   1.000  H
  C1244    1.0000 0.73470  0.39460  0.10540  Biso   1.000  C
  C1245    1.0000 0.76570  0.40340  0.09660  Biso   1.000  C
  C1246    1.0000 0.77310  0.39620  0.10380  Biso   1.000  C
  C1247    1.0000 0.74410  0.38550  0.11450  Biso   1.000  C
  C1248    1.0000 0.32359  0.42107  0.57893  Biso   1.000  C
  H788     1.0000 0.34260  0.42790  0.57210  Biso   1.000  H
  C1249    1.0000 0.23470  0.39460  0.60540  Biso   1.000  C
  C1250    1.0000 0.26570  0.40340  0.59660  Biso   1.000  C
  C1251    1.0000 0.27310  0.39620  0.60380  Biso   1.000  C
  C1252    1.0000 0.24410  0.38550  0.61450  Biso   1.000  C
  C1253    1.0000 0.92107  0.17641  0.42107  Biso   1.000  C
  H789     1.0000 0.92790  0.15740  0.42790  Biso   1.000  H
  C1254    1.0000 0.89460  0.26530  0.39460  Biso   1.000  C
  C1255    1.0000 0.90340  0.23430  0.40340  Biso   1.000  C
  C1256    1.0000 0.89620  0.22690  0.39620  Biso   1.000  C
  C1257    1.0000 0.88550  0.25590  0.38550  Biso   1.000  C
  C1258    1.0000 0.92107  0.67641  0.92107  Biso   1.000  C
  H790     1.0000 0.92790  0.65740  0.92790  Biso   1.000  H
  C1259    1.0000 0.89460  0.76530  0.89460  Biso   1.000  C
  C1260    1.0000 0.90340  0.73430  0.90340  Biso   1.000  C
  C1261    1.0000 0.89620  0.72690  0.89620  Biso   1.000  C
  C1262    1.0000 0.88550  0.75590  0.88550  Biso   1.000  C
  C1263    1.0000 0.42107  0.67641  0.42107  Biso   1.000  C
  H791     1.0000 0.42790  0.65740  0.42790  Biso   1.000  H
  C1264    1.0000 0.39460  0.76530  0.39460  Biso   1.000  C
  C1265    1.0000 0.40340  0.73430  0.40340  Biso   1.000  C
  C1266    1.0000 0.39620  0.72690  0.39620  Biso   1.000  C
  C1267    1.0000 0.38550  0.75590  0.38550  Biso   1.000  C
  C1268    1.0000 0.07893  0.17641  0.57893  Biso   1.000  C
  H792     1.0000 0.07210  0.15740  0.57210  Biso   1.000  H
  C1269    1.0000 0.10540  0.26530  0.60540  Biso   1.000  C
  C1270    1.0000 0.09660  0.23430  0.59660  Biso   1.000  C
  C1271    1.0000 0.10380  0.22690  0.60380  Biso   1.000  C
  C1272    1.0000 0.11450  0.25590  0.61450  Biso   1.000  C
  C1273    1.0000 0.07893  0.67641  0.07893  Biso   1.000  C
  H793     1.0000 0.07210  0.65740  0.07210  Biso   1.000  H
  C1274    1.0000 0.10540  0.76530  0.10540  Biso   1.000  C
  C1275    1.0000 0.09660  0.73430  0.09660  Biso   1.000  C
  C1276    1.0000 0.10380  0.72690  0.10380  Biso   1.000  C
  C1277    1.0000 0.11450  0.75590  0.11450  Biso   1.000  C
  C1278    1.0000 0.92107  0.82359  0.57893  Biso   1.000  C
  H794     1.0000 0.92790  0.84260  0.57210  Biso   1.000  H
  C1279    1.0000 0.89460  0.73470  0.60540  Biso   1.000  C
  C1280    1.0000 0.90340  0.76570  0.59660  Biso   1.000  C
  C1281    1.0000 0.89620  0.77310  0.60380  Biso   1.000  C
  C1282    1.0000 0.88550  0.74410  0.61450  Biso   1.000  C
  C1283    1.0000 0.92107  0.32359  0.07893  Biso   1.000  C
  H795     1.0000 0.92790  0.34260  0.07210  Biso   1.000  H
  C1284    1.0000 0.89460  0.23470  0.10540  Biso   1.000  C
  C1285    1.0000 0.90340  0.26570  0.09660  Biso   1.000  C
  C1286    1.0000 0.89620  0.27310  0.10380  Biso   1.000  C
  C1287    1.0000 0.88550  0.24410  0.11450  Biso   1.000  C
  C1288    1.0000 0.42107  0.82359  0.07893  Biso   1.000  C
  H796     1.0000 0.42790  0.84260  0.07210  Biso   1.000  H
  C1289    1.0000 0.39460  0.73470  0.10540  Biso   1.000  C
  C1290    1.0000 0.40340  0.76570  0.09660  Biso   1.000  C
  C1291    1.0000 0.39620  0.77310  0.10380  Biso   1.000  C
  C1292    1.0000 0.38550  0.74410  0.11450  Biso   1.000  C
  C1293    1.0000 0.07893  0.82359  0.42107  Biso   1.000  C
  H797     1.0000 0.07210  0.84260  0.42790  Biso   1.000  H
  C1294    1.0000 0.10540  0.73470  0.39460  Biso   1.000  C
  C1295    1.0000 0.09660  0.76570  0.40340  Biso   1.000  C
  C1296    1.0000 0.10380  0.77310  0.39620  Biso   1.000  C
  C1297    1.0000 0.11450  0.74410  0.38550  Biso   1.000  C
  C1298    1.0000 0.07893  0.32359  0.92107  Biso   1.000  C
  H798     1.0000 0.07210  0.34260  0.92790  Biso   1.000  H
  C1299    1.0000 0.10540  0.23470  0.89460  Biso   1.000  C
  C1300    1.0000 0.09660  0.26570  0.90340  Biso   1.000  C
  C1301    1.0000 0.10380  0.27310  0.89620  Biso   1.000  C
  C1302    1.0000 0.11450  0.24410  0.88550  Biso   1.000  C
  C1303    1.0000 0.92107  0.42107  0.82359  Biso   1.000  C
  H799     1.0000 0.92790  0.42790  0.84260  Biso   1.000  H
  C1304    1.0000 0.89460  0.39460  0.73470  Biso   1.000  C
  C1305    1.0000 0.90340  0.40340  0.76570  Biso   1.000  C
  C1306    1.0000 0.89620  0.39620  0.77310  Biso   1.000  C
  C1307    1.0000 0.88550  0.38550  0.74410  Biso   1.000  C
  C1308    1.0000 0.92107  0.92107  0.32359  Biso   1.000  C
  H800     1.0000 0.92790  0.92790  0.34260  Biso   1.000  H
  C1309    1.0000 0.89460  0.89460  0.23470  Biso   1.000  C
  C1310    1.0000 0.90340  0.90340  0.26570  Biso   1.000  C
  C1311    1.0000 0.89620  0.89620  0.27310  Biso   1.000  C
  C1312    1.0000 0.88550  0.88550  0.24410  Biso   1.000  C
  C1313    1.0000 0.42107  0.42107  0.32359  Biso   1.000  C
  H801     1.0000 0.42790  0.42790  0.34260  Biso   1.000  H
  C1314    1.0000 0.39460  0.39460  0.23470  Biso   1.000  C
  C1315    1.0000 0.40340  0.40340  0.26570  Biso   1.000  C
  C1316    1.0000 0.39620  0.39620  0.27310  Biso   1.000  C
  C1317    1.0000 0.38550  0.38550  0.24410  Biso   1.000  C
  C1318    1.0000 0.07893  0.57893  0.82359  Biso   1.000  C
  H802     1.0000 0.07210  0.57210  0.84260  Biso   1.000  H
  C1319    1.0000 0.10540  0.60540  0.73470  Biso   1.000  C
  C1320    1.0000 0.09660  0.59660  0.76570  Biso   1.000  C
  C1321    1.0000 0.10380  0.60380  0.77310  Biso   1.000  C
  C1322    1.0000 0.11450  0.61450  0.74410  Biso   1.000  C
  C1323    1.0000 0.07893  0.07893  0.32359  Biso   1.000  C
  H803     1.0000 0.07210  0.07210  0.34260  Biso   1.000  H
  C1324    1.0000 0.10540  0.10540  0.23470  Biso   1.000  C
  C1325    1.0000 0.09660  0.09660  0.26570  Biso   1.000  C
  C1326    1.0000 0.10380  0.10380  0.27310  Biso   1.000  C
  C1327    1.0000 0.11450  0.11450  0.24410  Biso   1.000  C
  C1328    1.0000 0.92107  0.57893  0.17641  Biso   1.000  C
  H804     1.0000 0.92790  0.57210  0.15740  Biso   1.000  H
  C1329    1.0000 0.89460  0.60540  0.26530  Biso   1.000  C
  C1330    1.0000 0.90340  0.59660  0.23430  Biso   1.000  C
  C1331    1.0000 0.89620  0.60380  0.22690  Biso   1.000  C
  C1332    1.0000 0.88550  0.61450  0.25590  Biso   1.000  C
  C1333    1.0000 0.92107  0.07893  0.67641  Biso   1.000  C
  H805     1.0000 0.92790  0.07210  0.65740  Biso   1.000  H
  C1334    1.0000 0.89460  0.10540  0.76530  Biso   1.000  C
  C1335    1.0000 0.90340  0.09660  0.73430  Biso   1.000  C
  C1336    1.0000 0.89620  0.10380  0.72690  Biso   1.000  C
  C1337    1.0000 0.88550  0.11450  0.75590  Biso   1.000  C
  C1338    1.0000 0.42107  0.07893  0.17641  Biso   1.000  C
  H806     1.0000 0.42790  0.07210  0.15740  Biso   1.000  H
  C1339    1.0000 0.39460  0.10540  0.26530  Biso   1.000  C
  C1340    1.0000 0.40340  0.09660  0.23430  Biso   1.000  C
  C1341    1.0000 0.39620  0.10380  0.22690  Biso   1.000  C
  C1342    1.0000 0.38550  0.11450  0.25590  Biso   1.000  C
  C1343    1.0000 0.07893  0.42107  0.17641  Biso   1.000  C
  H807     1.0000 0.07210  0.42790  0.15740  Biso   1.000  H
  C1344    1.0000 0.10540  0.39460  0.26530  Biso   1.000  C
  C1345    1.0000 0.09660  0.40340  0.23430  Biso   1.000  C
  C1346    1.0000 0.10380  0.39620  0.22690  Biso   1.000  C
  C1347    1.0000 0.11450  0.38550  0.25590  Biso   1.000  C
  C1348    1.0000 0.07893  0.92107  0.67641  Biso   1.000  C
  H808     1.0000 0.07210  0.92790  0.65740  Biso   1.000  H
  C1349    1.0000 0.10540  0.89460  0.76530  Biso   1.000  C
  C1350    1.0000 0.09660  0.90340  0.73430  Biso   1.000  C
  C1351    1.0000 0.10380  0.89620  0.72690  Biso   1.000  C
  C1352    1.0000 0.11450  0.88550  0.75590  Biso   1.000  C
  C1353    1.0000 0.42107  0.17641  0.07893  Biso   1.000  C
  H809     1.0000 0.42790  0.15740  0.07210  Biso   1.000  H
  C1354    1.0000 0.39460  0.26530  0.10540  Biso   1.000  C
  C1355    1.0000 0.40340  0.23430  0.09660  Biso   1.000  C
  C1356    1.0000 0.39620  0.22690  0.10380  Biso   1.000  C
  C1357    1.0000 0.38550  0.25590  0.11450  Biso   1.000  C
  C1358    1.0000 0.42107  0.67641  0.57893  Biso   1.000  C
  H810     1.0000 0.42790  0.65740  0.57210  Biso   1.000  H
  C1359    1.0000 0.39460  0.76530  0.60540  Biso   1.000  C
  C1360    1.0000 0.40340  0.73430  0.59660  Biso   1.000  C
  C1361    1.0000 0.39620  0.72690  0.60380  Biso   1.000  C
  C1362    1.0000 0.38550  0.75590  0.61450  Biso   1.000  C
  C1363    1.0000 0.57893  0.17641  0.92107  Biso   1.000  C
  H811     1.0000 0.57210  0.15740  0.92790  Biso   1.000  H
  C1364    1.0000 0.60540  0.26530  0.89460  Biso   1.000  C
  C1365    1.0000 0.59660  0.23430  0.90340  Biso   1.000  C
  C1366    1.0000 0.60380  0.22690  0.89620  Biso   1.000  C
  C1367    1.0000 0.61450  0.25590  0.88550  Biso   1.000  C
  C1368    1.0000 0.57893  0.67641  0.42107  Biso   1.000  C
  H812     1.0000 0.57210  0.65740  0.42790  Biso   1.000  H
  C1369    1.0000 0.60540  0.76530  0.39460  Biso   1.000  C
  C1370    1.0000 0.59660  0.73430  0.40340  Biso   1.000  C
  C1371    1.0000 0.60380  0.72690  0.39620  Biso   1.000  C
  C1372    1.0000 0.61450  0.75590  0.38550  Biso   1.000  C
  C1373    1.0000 0.07893  0.17641  0.42107  Biso   1.000  C
  H813     1.0000 0.07210  0.15740  0.42790  Biso   1.000  H
  C1374    1.0000 0.10540  0.26530  0.39460  Biso   1.000  C
  C1375    1.0000 0.09660  0.23430  0.40340  Biso   1.000  C
  C1376    1.0000 0.10380  0.22690  0.39620  Biso   1.000  C
  C1377    1.0000 0.11450  0.25590  0.38550  Biso   1.000  C
  C1378    1.0000 0.57893  0.82359  0.07893  Biso   1.000  C
  H814     1.0000 0.57210  0.84260  0.07210  Biso   1.000  H
  C1379    1.0000 0.60540  0.73470  0.10540  Biso   1.000  C
  C1380    1.0000 0.59660  0.76570  0.09660  Biso   1.000  C
  C1381    1.0000 0.60380  0.77310  0.10380  Biso   1.000  C
  C1382    1.0000 0.61450  0.74410  0.11450  Biso   1.000  C
  C1383    1.0000 0.57893  0.32359  0.57893  Biso   1.000  C
  H815     1.0000 0.57210  0.34260  0.57210  Biso   1.000  H
  C1384    1.0000 0.60540  0.23470  0.60540  Biso   1.000  C
  C1385    1.0000 0.59660  0.26570  0.59660  Biso   1.000  C
  C1386    1.0000 0.60380  0.27310  0.60380  Biso   1.000  C
  C1387    1.0000 0.61450  0.24410  0.61450  Biso   1.000  C
  C1388    1.0000 0.07893  0.32359  0.07893  Biso   1.000  C
  H816     1.0000 0.07210  0.34260  0.07210  Biso   1.000  H
  C1389    1.0000 0.10540  0.23470  0.10540  Biso   1.000  C
  C1390    1.0000 0.09660  0.26570  0.09660  Biso   1.000  C
  C1391    1.0000 0.10380  0.27310  0.10380  Biso   1.000  C
  C1392    1.0000 0.11450  0.24410  0.11450  Biso   1.000  C
  C1393    1.0000 0.42107  0.82359  0.92107  Biso   1.000  C
  H817     1.0000 0.42790  0.84260  0.92790  Biso   1.000  H
  C1394    1.0000 0.39460  0.73470  0.89460  Biso   1.000  C
  C1395    1.0000 0.40340  0.76570  0.90340  Biso   1.000  C
  C1396    1.0000 0.39620  0.77310  0.89620  Biso   1.000  C
  C1397    1.0000 0.38550  0.74410  0.88550  Biso   1.000  C
  C1398    1.0000 0.42107  0.32359  0.42107  Biso   1.000  C
  H818     1.0000 0.42790  0.34260  0.42790  Biso   1.000  H
  C1399    1.0000 0.39460  0.23470  0.39460  Biso   1.000  C
  C1400    1.0000 0.40340  0.26570  0.40340  Biso   1.000  C
  C1401    1.0000 0.39620  0.27310  0.39620  Biso   1.000  C
  C1402    1.0000 0.38550  0.24410  0.38550  Biso   1.000  C
  C1403    1.0000 0.17641  0.92107  0.57893  Biso   1.000  C
  H819     1.0000 0.15740  0.92790  0.57210  Biso   1.000  H
  C1404    1.0000 0.26530  0.89460  0.60540  Biso   1.000  C
  C1405    1.0000 0.23430  0.90340  0.59660  Biso   1.000  C
  C1406    1.0000 0.22690  0.89620  0.60380  Biso   1.000  C
  C1407    1.0000 0.25590  0.88550  0.61450  Biso   1.000  C
  C1408    1.0000 0.17641  0.42107  0.07893  Biso   1.000  C
  H820     1.0000 0.15740  0.42790  0.07210  Biso   1.000  H
  C1409    1.0000 0.26530  0.39460  0.10540  Biso   1.000  C
  C1410    1.0000 0.23430  0.40340  0.09660  Biso   1.000  C
  C1411    1.0000 0.22690  0.39620  0.10380  Biso   1.000  C
  C1412    1.0000 0.25590  0.38550  0.11450  Biso   1.000  C
  C1413    1.0000 0.67641  0.92107  0.07893  Biso   1.000  C
  H821     1.0000 0.65740  0.92790  0.07210  Biso   1.000  H
  C1414    1.0000 0.76530  0.89460  0.10540  Biso   1.000  C
  C1415    1.0000 0.73430  0.90340  0.09660  Biso   1.000  C
  C1416    1.0000 0.72690  0.89620  0.10380  Biso   1.000  C
  C1417    1.0000 0.75590  0.88550  0.11450  Biso   1.000  C
  C1418    1.0000 0.17641  0.07893  0.42107  Biso   1.000  C
  H822     1.0000 0.15740  0.07210  0.42790  Biso   1.000  H
  C1419    1.0000 0.26530  0.10540  0.39460  Biso   1.000  C
  C1420    1.0000 0.23430  0.09660  0.40340  Biso   1.000  C
  C1421    1.0000 0.22690  0.10380  0.39620  Biso   1.000  C
  C1422    1.0000 0.25590  0.11450  0.38550  Biso   1.000  C
  C1423    1.0000 0.67641  0.07893  0.92107  Biso   1.000  C
  H823     1.0000 0.65740  0.07210  0.92790  Biso   1.000  H
  C1424    1.0000 0.76530  0.10540  0.89460  Biso   1.000  C
  C1425    1.0000 0.73430  0.09660  0.90340  Biso   1.000  C
  C1426    1.0000 0.72690  0.10380  0.89620  Biso   1.000  C
  C1427    1.0000 0.75590  0.11450  0.88550  Biso   1.000  C
  C1428    1.0000 0.82359  0.92107  0.42107  Biso   1.000  C
  H824     1.0000 0.84260  0.92790  0.42790  Biso   1.000  H
  C1429    1.0000 0.73470  0.89460  0.39460  Biso   1.000  C
  C1430    1.0000 0.76570  0.90340  0.40340  Biso   1.000  C
  C1431    1.0000 0.77310  0.89620  0.39620  Biso   1.000  C
  C1432    1.0000 0.74410  0.88550  0.38550  Biso   1.000  C
  C1433    1.0000 0.32359  0.92107  0.92107  Biso   1.000  C
  H825     1.0000 0.34260  0.92790  0.92790  Biso   1.000  H
  C1434    1.0000 0.23470  0.89460  0.89460  Biso   1.000  C
  C1435    1.0000 0.26570  0.90340  0.90340  Biso   1.000  C
  C1436    1.0000 0.27310  0.89620  0.89620  Biso   1.000  C
  C1437    1.0000 0.24410  0.88550  0.88550  Biso   1.000  C
  C1438    1.0000 0.32359  0.42107  0.42107  Biso   1.000  C
  H826     1.0000 0.34260  0.42790  0.42790  Biso   1.000  H
  C1439    1.0000 0.23470  0.39460  0.39460  Biso   1.000  C
  C1440    1.0000 0.26570  0.40340  0.40340  Biso   1.000  C
  C1441    1.0000 0.27310  0.39620  0.39620  Biso   1.000  C
  C1442    1.0000 0.24410  0.38550  0.38550  Biso   1.000  C
  C1443    1.0000 0.82359  0.07893  0.57893  Biso   1.000  C
  H827     1.0000 0.84260  0.07210  0.57210  Biso   1.000  H
  C1444    1.0000 0.73470  0.10540  0.60540  Biso   1.000  C
  C1445    1.0000 0.76570  0.09660  0.59660  Biso   1.000  C
  C1446    1.0000 0.77310  0.10380  0.60380  Biso   1.000  C
  C1447    1.0000 0.74410  0.11450  0.61450  Biso   1.000  C
  C1448    1.0000 0.32359  0.07893  0.07893  Biso   1.000  C
  H828     1.0000 0.34260  0.07210  0.07210  Biso   1.000  H
  C1449    1.0000 0.23470  0.10540  0.10540  Biso   1.000  C
  C1450    1.0000 0.26570  0.09660  0.09660  Biso   1.000  C
  C1451    1.0000 0.27310  0.10380  0.10380  Biso   1.000  C
  C1452    1.0000 0.24410  0.11450  0.11450  Biso   1.000  C
  C1453    1.0000 0.57893  0.07893  0.82359  Biso   1.000  C
  H829     1.0000 0.57210  0.07210  0.84260  Biso   1.000  H
  C1454    1.0000 0.60540  0.10540  0.73470  Biso   1.000  C
  C1455    1.0000 0.59660  0.09660  0.76570  Biso   1.000  C
  C1456    1.0000 0.60380  0.10380  0.77310  Biso   1.000  C
  C1457    1.0000 0.61450  0.11450  0.74410  Biso   1.000  C
  C1458    1.0000 0.57893  0.57893  0.32359  Biso   1.000  C
  H830     1.0000 0.57210  0.57210  0.34260  Biso   1.000  H
  C1459    1.0000 0.60540  0.60540  0.23470  Biso   1.000  C
  C1460    1.0000 0.59660  0.59660  0.26570  Biso   1.000  C
  C1461    1.0000 0.60380  0.60380  0.27310  Biso   1.000  C
  C1462    1.0000 0.61450  0.61450  0.24410  Biso   1.000  C
  C1463    1.0000 0.42107  0.92107  0.82359  Biso   1.000  C
  H831     1.0000 0.42790  0.92790  0.84260  Biso   1.000  H
  C1464    1.0000 0.39460  0.89460  0.73470  Biso   1.000  C
  C1465    1.0000 0.40340  0.90340  0.76570  Biso   1.000  C
  C1466    1.0000 0.39620  0.89620  0.77310  Biso   1.000  C
  C1467    1.0000 0.38550  0.88550  0.74410  Biso   1.000  C
  C1468    1.0000 0.42107  0.57893  0.67641  Biso   1.000  C
  H832     1.0000 0.42790  0.57210  0.65740  Biso   1.000  H
  C1469    1.0000 0.39460  0.60540  0.76530  Biso   1.000  C
  C1470    1.0000 0.40340  0.59660  0.73430  Biso   1.000  C
  C1471    1.0000 0.39620  0.60380  0.72690  Biso   1.000  C
  C1472    1.0000 0.38550  0.61450  0.75590  Biso   1.000  C
  C1473    1.0000 0.57893  0.92107  0.17641  Biso   1.000  C
  H833     1.0000 0.57210  0.92790  0.15740  Biso   1.000  H
  C1474    1.0000 0.60540  0.89460  0.26530  Biso   1.000  C
  C1475    1.0000 0.59660  0.90340  0.23430  Biso   1.000  C
  C1476    1.0000 0.60380  0.89620  0.22690  Biso   1.000  C
  C1477    1.0000 0.61450  0.88550  0.25590  Biso   1.000  C
  C1478    1.0000 0.57893  0.42107  0.67641  Biso   1.000  C
  H834     1.0000 0.57210  0.42790  0.65740  Biso   1.000  H
  C1479    1.0000 0.60540  0.39460  0.76530  Biso   1.000  C
  C1480    1.0000 0.59660  0.40340  0.73430  Biso   1.000  C
  C1481    1.0000 0.60380  0.39620  0.72690  Biso   1.000  C
  C1482    1.0000 0.61450  0.38550  0.75590  Biso   1.000  C
  C1483    1.0000 0.82359  0.57893  0.07893  Biso   1.000  C
  H835     1.0000 0.84260  0.57210  0.07210  Biso   1.000  H
  C1484    1.0000 0.73470  0.60540  0.10540  Biso   1.000  C
  C1485    1.0000 0.76570  0.59660  0.09660  Biso   1.000  C
  C1486    1.0000 0.77310  0.60380  0.10380  Biso   1.000  C
  C1487    1.0000 0.74410  0.61450  0.11450  Biso   1.000  C
  C1488    1.0000 0.32359  0.57893  0.57893  Biso   1.000  C
  H836     1.0000 0.34260  0.57210  0.57210  Biso   1.000  H
  C1489    1.0000 0.23470  0.60540  0.60540  Biso   1.000  C
  C1490    1.0000 0.26570  0.59660  0.59660  Biso   1.000  C
  C1491    1.0000 0.27310  0.60380  0.60380  Biso   1.000  C
  C1492    1.0000 0.24410  0.61450  0.61450  Biso   1.000  C
  C1493    1.0000 0.82359  0.42107  0.92107  Biso   1.000  C
  H837     1.0000 0.84260  0.42790  0.92790  Biso   1.000  H
  C1494    1.0000 0.73470  0.39460  0.89460  Biso   1.000  C
  C1495    1.0000 0.76570  0.40340  0.90340  Biso   1.000  C
  C1496    1.0000 0.77310  0.39620  0.89620  Biso   1.000  C
  C1497    1.0000 0.74410  0.38550  0.88550  Biso   1.000  C
  C1498    1.0000 0.67641  0.42107  0.57893  Biso   1.000  C
  H838     1.0000 0.65740  0.42790  0.57210  Biso   1.000  H
  C1499    1.0000 0.76530  0.39460  0.60540  Biso   1.000  C
  C1500    1.0000 0.73430  0.40340  0.59660  Biso   1.000  C
  C1501    1.0000 0.72690  0.39620  0.60380  Biso   1.000  C
  C1502    1.0000 0.75590  0.38550  0.61450  Biso   1.000  C
  C1503    1.0000 0.17641  0.57893  0.92107  Biso   1.000  C
  H839     1.0000 0.15740  0.57210  0.92790  Biso   1.000  H
  C1504    1.0000 0.26530  0.60540  0.89460  Biso   1.000  C
  C1505    1.0000 0.23430  0.59660  0.90340  Biso   1.000  C
  C1506    1.0000 0.22690  0.60380  0.89620  Biso   1.000  C
  C1507    1.0000 0.25590  0.61450  0.88550  Biso   1.000  C
  C1508    1.0000 0.67641  0.57893  0.42107  Biso   1.000  C
  H840     1.0000 0.65740  0.57210  0.42790  Biso   1.000  H
  C1509    1.0000 0.76530  0.60540  0.39460  Biso   1.000  C
  C1510    1.0000 0.73430  0.59660  0.40340  Biso   1.000  C
  C1511    1.0000 0.72690  0.60380  0.39620  Biso   1.000  C
  C1512    1.0000 0.75590  0.61450  0.38550  Biso   1.000  C
  C1513    1.0000 0.07893  0.82359  0.57893  Biso   1.000  C
  H841     1.0000 0.07210  0.84260  0.57210  Biso   1.000  H
  C1514    1.0000 0.10540  0.73470  0.60540  Biso   1.000  C
  C1515    1.0000 0.09660  0.76570  0.59660  Biso   1.000  C
  C1516    1.0000 0.10380  0.77310  0.60380  Biso   1.000  C
  C1517    1.0000 0.11450  0.74410  0.61450  Biso   1.000  C
  C1518    1.0000 0.92107  0.82359  0.42107  Biso   1.000  C
  H842     1.0000 0.92790  0.84260  0.42790  Biso   1.000  H
  C1519    1.0000 0.89460  0.73470  0.39460  Biso   1.000  C
  C1520    1.0000 0.90340  0.76570  0.40340  Biso   1.000  C
  C1521    1.0000 0.89620  0.77310  0.39620  Biso   1.000  C
  C1522    1.0000 0.88550  0.74410  0.38550  Biso   1.000  C
  C1523    1.0000 0.92107  0.32359  0.92107  Biso   1.000  C
  H843     1.0000 0.92790  0.34260  0.92790  Biso   1.000  H
  C1524    1.0000 0.89460  0.23470  0.89460  Biso   1.000  C
  C1525    1.0000 0.90340  0.26570  0.90340  Biso   1.000  C
  C1526    1.0000 0.89620  0.27310  0.89620  Biso   1.000  C
  C1527    1.0000 0.88550  0.24410  0.88550  Biso   1.000  C
  C1528    1.0000 0.07893  0.67641  0.92107  Biso   1.000  C
  H844     1.0000 0.07210  0.65740  0.92790  Biso   1.000  H
  C1529    1.0000 0.10540  0.76530  0.89460  Biso   1.000  C
  C1530    1.0000 0.09660  0.73430  0.90340  Biso   1.000  C
  C1531    1.0000 0.10380  0.72690  0.89620  Biso   1.000  C
  C1532    1.0000 0.11450  0.75590  0.88550  Biso   1.000  C
  C1533    1.0000 0.92107  0.17641  0.57893  Biso   1.000  C
  H845     1.0000 0.92790  0.15740  0.57210  Biso   1.000  H
  C1534    1.0000 0.89460  0.26530  0.60540  Biso   1.000  C
  C1535    1.0000 0.90340  0.23430  0.59660  Biso   1.000  C
  C1536    1.0000 0.89620  0.22690  0.60380  Biso   1.000  C
  C1537    1.0000 0.88550  0.25590  0.61450  Biso   1.000  C
  C1538    1.0000 0.92107  0.67641  0.07893  Biso   1.000  C
  H846     1.0000 0.92790  0.65740  0.07210  Biso   1.000  H
  C1539    1.0000 0.89460  0.76530  0.10540  Biso   1.000  C
  C1540    1.0000 0.90340  0.73430  0.09660  Biso   1.000  C
  C1541    1.0000 0.89620  0.72690  0.10380  Biso   1.000  C
  C1542    1.0000 0.88550  0.75590  0.11450  Biso   1.000  C
  C1543    1.0000 0.07893  0.57893  0.17641  Biso   1.000  C
  H847     1.0000 0.07210  0.57210  0.15740  Biso   1.000  H
  C1544    1.0000 0.10540  0.60540  0.26530  Biso   1.000  C
  C1545    1.0000 0.09660  0.59660  0.23430  Biso   1.000  C
  C1546    1.0000 0.10380  0.60380  0.22690  Biso   1.000  C
  C1547    1.0000 0.11450  0.61450  0.25590  Biso   1.000  C
  C1548    1.0000 0.92107  0.42107  0.17641  Biso   1.000  C
  H848     1.0000 0.92790  0.42790  0.15740  Biso   1.000  H
  C1549    1.0000 0.89460  0.39460  0.26530  Biso   1.000  C
  C1550    1.0000 0.90340  0.40340  0.23430  Biso   1.000  C
  C1551    1.0000 0.89620  0.39620  0.22690  Biso   1.000  C
  C1552    1.0000 0.88550  0.38550  0.25590  Biso   1.000  C
  C1553    1.0000 0.92107  0.92107  0.67641  Biso   1.000  C
  H849     1.0000 0.92790  0.92790  0.65740  Biso   1.000  H
  C1554    1.0000 0.89460  0.89460  0.76530  Biso   1.000  C
  C1555    1.0000 0.90340  0.90340  0.73430  Biso   1.000  C
  C1556    1.0000 0.89620  0.89620  0.72690  Biso   1.000  C
  C1557    1.0000 0.88550  0.88550  0.75590  Biso   1.000  C
  C1558    1.0000 0.07893  0.92107  0.32359  Biso   1.000  C
  H850     1.0000 0.07210  0.92790  0.34260  Biso   1.000  H
  C1559    1.0000 0.10540  0.89460  0.23470  Biso   1.000  C
  C1560    1.0000 0.09660  0.90340  0.26570  Biso   1.000  C
  C1561    1.0000 0.10380  0.89620  0.27310  Biso   1.000  C
  C1562    1.0000 0.11450  0.88550  0.24410  Biso   1.000  C
  C1563    1.0000 0.92107  0.57893  0.82359  Biso   1.000  C
  H851     1.0000 0.92790  0.57210  0.84260  Biso   1.000  H
  C1564    1.0000 0.89460  0.60540  0.73470  Biso   1.000  C
  C1565    1.0000 0.90340  0.59660  0.76570  Biso   1.000  C
  C1566    1.0000 0.89620  0.60380  0.77310  Biso   1.000  C
  C1567    1.0000 0.88550  0.61450  0.74410  Biso   1.000  C
  C1568    1.0000 0.92107  0.07893  0.32359  Biso   1.000  C
  H852     1.0000 0.92790  0.07210  0.34260  Biso   1.000  H
  C1569    1.0000 0.89460  0.10540  0.23470  Biso   1.000  C
  C1570    1.0000 0.90340  0.09660  0.26570  Biso   1.000  C
  C1571    1.0000 0.89620  0.10380  0.27310  Biso   1.000  C
  C1572    1.0000 0.88550  0.11450  0.24410  Biso   1.000  C
  C1573    1.0000 0.57893  0.82359  0.92107  Biso   1.000  C
  H853     1.0000 0.57210  0.84260  0.92790  Biso   1.000  H
  C1574    1.0000 0.60540  0.73470  0.89460  Biso   1.000  C
  C1575    1.0000 0.59660  0.76570  0.90340  Biso   1.000  C
  C1576    1.0000 0.60380  0.77310  0.89620  Biso   1.000  C
  C1577    1.0000 0.61450  0.74410  0.88550  Biso   1.000  C
  C1578    1.0000 0.57893  0.32359  0.42107  Biso   1.000  C
  H854     1.0000 0.57210  0.34260  0.42790  Biso   1.000  H
  C1579    1.0000 0.60540  0.23470  0.39460  Biso   1.000  C
  C1580    1.0000 0.59660  0.26570  0.40340  Biso   1.000  C
  C1581    1.0000 0.60380  0.27310  0.39620  Biso   1.000  C
  C1582    1.0000 0.61450  0.24410  0.38550  Biso   1.000  C
  C1583    1.0000 0.42107  0.32359  0.57893  Biso   1.000  C
  H855     1.0000 0.42790  0.34260  0.57210  Biso   1.000  H
  C1584    1.0000 0.39460  0.23470  0.60540  Biso   1.000  C
  C1585    1.0000 0.40340  0.26570  0.59660  Biso   1.000  C
  C1586    1.0000 0.39620  0.27310  0.60380  Biso   1.000  C
  C1587    1.0000 0.38550  0.24410  0.61450  Biso   1.000  C
  C1588    1.0000 0.42107  0.17641  0.92107  Biso   1.000  C
  H856     1.0000 0.42790  0.15740  0.92790  Biso   1.000  H
  C1589    1.0000 0.39460  0.26530  0.89460  Biso   1.000  C
  C1590    1.0000 0.40340  0.23430  0.90340  Biso   1.000  C
  C1591    1.0000 0.39620  0.22690  0.89620  Biso   1.000  C
  C1592    1.0000 0.38550  0.25590  0.88550  Biso   1.000  C
  C1593    1.0000 0.57893  0.17641  0.07893  Biso   1.000  C
  H857     1.0000 0.57210  0.15740  0.07210  Biso   1.000  H
  C1594    1.0000 0.60540  0.26530  0.10540  Biso   1.000  C
  C1595    1.0000 0.59660  0.23430  0.09660  Biso   1.000  C
  C1596    1.0000 0.60380  0.22690  0.10380  Biso   1.000  C
  C1597    1.0000 0.61450  0.25590  0.11450  Biso   1.000  C
  C1598    1.0000 0.57893  0.67641  0.57893  Biso   1.000  C
  H858     1.0000 0.57210  0.65740  0.57210  Biso   1.000  H
  C1599    1.0000 0.60540  0.76530  0.60540  Biso   1.000  C
  C1600    1.0000 0.59660  0.73430  0.59660  Biso   1.000  C
  C1601    1.0000 0.60380  0.72690  0.60380  Biso   1.000  C
  C1602    1.0000 0.61450  0.75590  0.61450  Biso   1.000  C
  C1603    1.0000 0.32359  0.07893  0.92107  Biso   1.000  C
  H859     1.0000 0.34260  0.07210  0.92790  Biso   1.000  H
  C1604    1.0000 0.23470  0.10540  0.89460  Biso   1.000  C
  C1605    1.0000 0.26570  0.09660  0.90340  Biso   1.000  C
  C1606    1.0000 0.27310  0.10380  0.89620  Biso   1.000  C
  C1607    1.0000 0.24410  0.11450  0.88550  Biso   1.000  C
  C1608    1.0000 0.82359  0.92107  0.57893  Biso   1.000  C
  H860     1.0000 0.84260  0.92790  0.57210  Biso   1.000  H
  C1609    1.0000 0.73470  0.89460  0.60540  Biso   1.000  C
  C1610    1.0000 0.76570  0.90340  0.59660  Biso   1.000  C
  C1611    1.0000 0.77310  0.89620  0.60380  Biso   1.000  C
  C1612    1.0000 0.74410  0.88550  0.61450  Biso   1.000  C
  C1613    1.0000 0.32359  0.92107  0.07893  Biso   1.000  C
  H861     1.0000 0.34260  0.92790  0.07210  Biso   1.000  H
  C1614    1.0000 0.23470  0.89460  0.10540  Biso   1.000  C
  C1615    1.0000 0.26570  0.90340  0.09660  Biso   1.000  C
  C1616    1.0000 0.27310  0.89620  0.10380  Biso   1.000  C
  C1617    1.0000 0.24410  0.88550  0.11450  Biso   1.000  C
  C1618    1.0000 0.17641  0.07893  0.57893  Biso   1.000  C
  H862     1.0000 0.15740  0.07210  0.57210  Biso   1.000  H
  C1619    1.0000 0.26530  0.10540  0.60540  Biso   1.000  C
  C1620    1.0000 0.23430  0.09660  0.59660  Biso   1.000  C
  C1621    1.0000 0.22690  0.10380  0.60380  Biso   1.000  C
  C1622    1.0000 0.25590  0.11450  0.61450  Biso   1.000  C
  C1623    1.0000 0.17641  0.92107  0.42107  Biso   1.000  C
  H863     1.0000 0.15740  0.92790  0.42790  Biso   1.000  H
  C1624    1.0000 0.26530  0.89460  0.39460  Biso   1.000  C
  C1625    1.0000 0.23430  0.90340  0.40340  Biso   1.000  C
  C1626    1.0000 0.22690  0.89620  0.39620  Biso   1.000  C
  C1627    1.0000 0.25590  0.88550  0.38550  Biso   1.000  C
  C1628    1.0000 0.67641  0.92107  0.92107  Biso   1.000  C
  H864     1.0000 0.65740  0.92790  0.92790  Biso   1.000  H
  C1629    1.0000 0.76530  0.89460  0.89460  Biso   1.000  C
  C1630    1.0000 0.73430  0.90340  0.90340  Biso   1.000  C
  C1631    1.0000 0.72690  0.89620  0.89620  Biso   1.000  C
  C1632    1.0000 0.75590  0.88550  0.88550  Biso   1.000  C
  Cu97     1.0000 0.33901  0.89157  0.33901  Biso   1.000  Cu
  O385     1.0000 0.32770  0.93680  0.32770  Biso   1.000  O
  O386     1.0000 0.30700  0.91550  0.30700  Biso   1.000  O
  Cu98     1.0000 0.32430  0.87440  0.32430  Biso   1.000  Cu
  Cu99     1.0000 0.33901  0.39157  0.83901  Biso   1.000  Cu
  O387     1.0000 0.32770  0.43680  0.82770  Biso   1.000  O
  O388     1.0000 0.30700  0.41550  0.80700  Biso   1.000  O
  Cu100    1.0000 0.32430  0.37440  0.82430  Biso   1.000  Cu
  Cu101    1.0000 0.83901  0.89157  0.83901  Biso   1.000  Cu
  O389     1.0000 0.82770  0.93680  0.82770  Biso   1.000  O
  O390     1.0000 0.80700  0.91550  0.80700  Biso   1.000  O
  Cu102    1.0000 0.82430  0.87440  0.82430  Biso   1.000  Cu
  Cu103    1.0000 0.83901  0.39157  0.33901  Biso   1.000  Cu
  O391     1.0000 0.82770  0.43680  0.32770  Biso   1.000  O
  O392     1.0000 0.80700  0.41550  0.30700  Biso   1.000  O
  Cu104    1.0000 0.82430  0.37440  0.32430  Biso   1.000  Cu
  Cu105    1.0000 0.66099  0.10843  0.33901  Biso   1.000  Cu
  O393     1.0000 0.67230  0.06320  0.32770  Biso   1.000  O
  O394     1.0000 0.69300  0.08450  0.30700  Biso   1.000  O
  Cu106    1.0000 0.67570  0.12560  0.32430  Biso   1.000  Cu
  Cu107    1.0000 0.66099  0.60843  0.83901  Biso   1.000  Cu
  O395     1.0000 0.67230  0.56320  0.82770  Biso   1.000  O
  O396     1.0000 0.69300  0.58450  0.80700  Biso   1.000  O
  Cu108    1.0000 0.67570  0.62560  0.82430  Biso   1.000  Cu
  Cu109    1.0000 0.16099  0.10843  0.83901  Biso   1.000  Cu
  O397     1.0000 0.17230  0.06320  0.82770  Biso   1.000  O
  O398     1.0000 0.19300  0.08450  0.80700  Biso   1.000  O
  Cu110    1.0000 0.17570  0.12560  0.82430  Biso   1.000  Cu
  Cu111    1.0000 0.16099  0.60843  0.33901  Biso   1.000  Cu
  O399     1.0000 0.17230  0.56320  0.32770  Biso   1.000  O
  O400     1.0000 0.19300  0.58450  0.30700  Biso   1.000  O
  Cu112    1.0000 0.17570  0.62560  0.32430  Biso   1.000  Cu
  Cu113    1.0000 0.66099  0.89157  0.66099  Biso   1.000  Cu
  O401     1.0000 0.67230  0.93680  0.67230  Biso   1.000  O
  O402     1.0000 0.69300  0.91550  0.69300  Biso   1.000  O
  Cu114    1.0000 0.67570  0.87440  0.67570  Biso   1.000  Cu
  Cu115    1.0000 0.66099  0.39157  0.16099  Biso   1.000  Cu
  O403     1.0000 0.67230  0.43680  0.17230  Biso   1.000  O
  O404     1.0000 0.69300  0.41550  0.19300  Biso   1.000  O
  Cu116    1.0000 0.67570  0.37440  0.17570  Biso   1.000  Cu
  Cu117    1.0000 0.16099  0.89157  0.16099  Biso   1.000  Cu
  O405     1.0000 0.17230  0.93680  0.17230  Biso   1.000  O
  O406     1.0000 0.19300  0.91550  0.19300  Biso   1.000  O
  Cu118    1.0000 0.17570  0.87440  0.17570  Biso   1.000  Cu
  Cu119    1.0000 0.16099  0.39157  0.66099  Biso   1.000  Cu
  O407     1.0000 0.17230  0.43680  0.67230  Biso   1.000  O
  O408     1.0000 0.19300  0.41550  0.69300  Biso   1.000  O
  Cu120    1.0000 0.17570  0.37440  0.67570  Biso   1.000  Cu
  Cu121    1.0000 0.33901  0.10843  0.66099  Biso   1.000  Cu
  O409     1.0000 0.32770  0.06320  0.67230  Biso   1.000  O
  O410     1.0000 0.30700  0.08450  0.69300  Biso   1.000  O
  Cu122    1.0000 0.32430  0.12560  0.67570  Biso   1.000  Cu
  Cu123    1.0000 0.33901  0.60843  0.16099  Biso   1.000  Cu
  O411     1.0000 0.32770  0.56320  0.17230  Biso   1.000  O
  O412     1.0000 0.30700  0.58450  0.19300  Biso   1.000  O
  Cu124    1.0000 0.32430  0.62560  0.17570  Biso   1.000  Cu
  Cu125    1.0000 0.83901  0.10843  0.16099  Biso   1.000  Cu
  O413     1.0000 0.82770  0.06320  0.17230  Biso   1.000  O
  O414     1.0000 0.80700  0.08450  0.19300  Biso   1.000  O
  Cu126    1.0000 0.82430  0.12560  0.17570  Biso   1.000  Cu
  Cu127    1.0000 0.83901  0.60843  0.66099  Biso   1.000  Cu
  O415     1.0000 0.82770  0.56320  0.67230  Biso   1.000  O
  O416     1.0000 0.80700  0.58450  0.69300  Biso   1.000  O
  Cu128    1.0000 0.82430  0.62560  0.67570  Biso   1.000  Cu
  Cu129    1.0000 0.33901  0.33901  0.89157  Biso   1.000  Cu
  O417     1.0000 0.32770  0.32770  0.93680  Biso   1.000  O
  O418     1.0000 0.30700  0.30700  0.91550  Biso   1.000  O
  Cu130    1.0000 0.32430  0.32430  0.87440  Biso   1.000  Cu
  Cu131    1.0000 0.33901  0.83901  0.39157  Biso   1.000  Cu
  O419     1.0000 0.32770  0.82770  0.43680  Biso   1.000  O
  O420     1.0000 0.30700  0.80700  0.41550  Biso   1.000  O
  Cu132    1.0000 0.32430  0.82430  0.37440  Biso   1.000  Cu
  Cu133    1.0000 0.83901  0.33901  0.39157  Biso   1.000  Cu
  O421     1.0000 0.82770  0.32770  0.43680  Biso   1.000  O
  O422     1.0000 0.80700  0.30700  0.41550  Biso   1.000  O
  Cu134    1.0000 0.82430  0.32430  0.37440  Biso   1.000  Cu
  Cu135    1.0000 0.83901  0.83901  0.89157  Biso   1.000  Cu
  O423     1.0000 0.82770  0.82770  0.93680  Biso   1.000  O
  O424     1.0000 0.80700  0.80700  0.91550  Biso   1.000  O
  Cu136    1.0000 0.82430  0.82430  0.87440  Biso   1.000  Cu
  Cu137    1.0000 0.33901  0.66099  0.10843  Biso   1.000  Cu
  O425     1.0000 0.32770  0.67230  0.06320  Biso   1.000  O
  O426     1.0000 0.30700  0.69300  0.08450  Biso   1.000  O
  Cu138    1.0000 0.32430  0.67570  0.12560  Biso   1.000  Cu
  Cu139    1.0000 0.33901  0.16099  0.60843  Biso   1.000  Cu
  O427     1.0000 0.32770  0.17230  0.56320  Biso   1.000  O
  O428     1.0000 0.30700  0.19300  0.58450  Biso   1.000  O
  Cu140    1.0000 0.32430  0.17570  0.62560  Biso   1.000  Cu
  Cu141    1.0000 0.83901  0.66099  0.60843  Biso   1.000  Cu
  O429     1.0000 0.82770  0.67230  0.56320  Biso   1.000  O
  O430     1.0000 0.80700  0.69300  0.58450  Biso   1.000  O
  Cu142    1.0000 0.82430  0.67570  0.62560  Biso   1.000  Cu
  Cu143    1.0000 0.83901  0.16099  0.10843  Biso   1.000  Cu
  O431     1.0000 0.82770  0.17230  0.06320  Biso   1.000  O
  O432     1.0000 0.80700  0.19300  0.08450  Biso   1.000  O
  Cu144    1.0000 0.82430  0.17570  0.12560  Biso   1.000  Cu
  Cu145    1.0000 0.66099  0.66099  0.89157  Biso   1.000  Cu
  O433     1.0000 0.67230  0.67230  0.93680  Biso   1.000  O
  O434     1.0000 0.69300  0.69300  0.91550  Biso   1.000  O
  Cu146    1.0000 0.67570  0.67570  0.87440  Biso   1.000  Cu
  Cu147    1.0000 0.66099  0.16099  0.39157  Biso   1.000  Cu
  O435     1.0000 0.67230  0.17230  0.43680  Biso   1.000  O
  O436     1.0000 0.69300  0.19300  0.41550  Biso   1.000  O
  Cu148    1.0000 0.67570  0.17570  0.37440  Biso   1.000  Cu
  Cu149    1.0000 0.16099  0.66099  0.39157  Biso   1.000  Cu
  O437     1.0000 0.17230  0.67230  0.43680  Biso   1.000  O
  O438     1.0000 0.19300  0.69300  0.41550  Biso   1.000  O
  Cu150    1.0000 0.17570  0.67570  0.37440  Biso   1.000  Cu
  Cu151    1.0000 0.16099  0.16099  0.89157  Biso   1.000  Cu
  O439     1.0000 0.17230  0.17230  0.93680  Biso   1.000  O
  O440     1.0000 0.19300  0.19300  0.91550  Biso   1.000  O
  Cu152    1.0000 0.17570  0.17570  0.87440  Biso   1.000  Cu
  Cu153    1.0000 0.66099  0.33901  0.10843  Biso   1.000  Cu
  O441     1.0000 0.67230  0.32770  0.06320  Biso   1.000  O
  O442     1.0000 0.69300  0.30700  0.08450  Biso   1.000  O
  Cu154    1.0000 0.67570  0.32430  0.12560  Biso   1.000  Cu
  Cu155    1.0000 0.66099  0.83901  0.60843  Biso   1.000  Cu
  O443     1.0000 0.67230  0.82770  0.56320  Biso   1.000  O
  O444     1.0000 0.69300  0.80700  0.58450  Biso   1.000  O
  Cu156    1.0000 0.67570  0.82430  0.62560  Biso   1.000  Cu
  Cu157    1.0000 0.16099  0.33901  0.60843  Biso   1.000  Cu
  O445     1.0000 0.17230  0.32770  0.56320  Biso   1.000  O
  O446     1.0000 0.19300  0.30700  0.58450  Biso   1.000  O
  Cu158    1.0000 0.17570  0.32430  0.62560  Biso   1.000  Cu
  Cu159    1.0000 0.16099  0.83901  0.10843  Biso   1.000  Cu
  O447     1.0000 0.17230  0.82770  0.06320  Biso   1.000  O
  O448     1.0000 0.19300  0.80700  0.08450  Biso   1.000  O
  Cu160    1.0000 0.17570  0.82430  0.12560  Biso   1.000  Cu
  Cu161    1.0000 0.89157  0.33901  0.33901  Biso   1.000  Cu
  O449     1.0000 0.93680  0.32770  0.32770  Biso   1.000  O
  O450     1.0000 0.91550  0.30700  0.30700  Biso   1.000  O
  Cu162    1.0000 0.87440  0.32430  0.32430  Biso   1.000  Cu
  Cu163    1.0000 0.89157  0.83901  0.83901  Biso   1.000  Cu
  O451     1.0000 0.93680  0.82770  0.82770  Biso   1.000  O
  O452     1.0000 0.91550  0.80700  0.80700  Biso   1.000  O
  Cu164    1.0000 0.87440  0.82430  0.82430  Biso   1.000  Cu
  Cu165    1.0000 0.39157  0.33901  0.83901  Biso   1.000  Cu
  O453     1.0000 0.43680  0.32770  0.82770  Biso   1.000  O
  O454     1.0000 0.41550  0.30700  0.80700  Biso   1.000  O
  Cu166    1.0000 0.37440  0.32430  0.82430  Biso   1.000  Cu
  Cu167    1.0000 0.39157  0.83901  0.33901  Biso   1.000  Cu
  O455     1.0000 0.43680  0.82770  0.32770  Biso   1.000  O
  O456     1.0000 0.41550  0.80700  0.30700  Biso   1.000  O
  Cu168    1.0000 0.37440  0.82430  0.32430  Biso   1.000  Cu
  Cu169    1.0000 0.10843  0.33901  0.66099  Biso   1.000  Cu
  O457     1.0000 0.06320  0.32770  0.67230  Biso   1.000  O
  O458     1.0000 0.08450  0.30700  0.69300  Biso   1.000  O
  Cu170    1.0000 0.12560  0.32430  0.67570  Biso   1.000  Cu
  Cu171    1.0000 0.10843  0.83901  0.16099  Biso   1.000  Cu
  O459     1.0000 0.06320  0.82770  0.17230  Biso   1.000  O
  O460     1.0000 0.08450  0.80700  0.19300  Biso   1.000  O
  Cu172    1.0000 0.12560  0.82430  0.17570  Biso   1.000  Cu
  Cu173    1.0000 0.60843  0.33901  0.16099  Biso   1.000  Cu
  O461     1.0000 0.56320  0.32770  0.17230  Biso   1.000  O
  O462     1.0000 0.58450  0.30700  0.19300  Biso   1.000  O
  Cu174    1.0000 0.62560  0.32430  0.17570  Biso   1.000  Cu
  Cu175    1.0000 0.60843  0.83901  0.66099  Biso   1.000  Cu
  O463     1.0000 0.56320  0.82770  0.67230  Biso   1.000  O
  O464     1.0000 0.58450  0.80700  0.69300  Biso   1.000  O
  Cu176    1.0000 0.62560  0.82430  0.67570  Biso   1.000  Cu
  Cu177    1.0000 0.89157  0.66099  0.66099  Biso   1.000  Cu
  O465     1.0000 0.93680  0.67230  0.67230  Biso   1.000  O
  O466     1.0000 0.91550  0.69300  0.69300  Biso   1.000  O
  Cu178    1.0000 0.87440  0.67570  0.67570  Biso   1.000  Cu
  Cu179    1.0000 0.89157  0.16099  0.16099  Biso   1.000  Cu
  O467     1.0000 0.93680  0.17230  0.17230  Biso   1.000  O
  O468     1.0000 0.91550  0.19300  0.19300  Biso   1.000  O
  Cu180    1.0000 0.87440  0.17570  0.17570  Biso   1.000  Cu
  Cu181    1.0000 0.39157  0.66099  0.16099  Biso   1.000  Cu
  O469     1.0000 0.43680  0.67230  0.17230  Biso   1.000  O
  O470     1.0000 0.41550  0.69300  0.19300  Biso   1.000  O
  Cu182    1.0000 0.37440  0.67570  0.17570  Biso   1.000  Cu
  Cu183    1.0000 0.39157  0.16099  0.66099  Biso   1.000  Cu
  O471     1.0000 0.43680  0.17230  0.67230  Biso   1.000  O
  O472     1.0000 0.41550  0.19300  0.69300  Biso   1.000  O
  Cu184    1.0000 0.37440  0.17570  0.67570  Biso   1.000  Cu
  Cu185    1.0000 0.10843  0.66099  0.33901  Biso   1.000  Cu
  O473     1.0000 0.06320  0.67230  0.32770  Biso   1.000  O
  O474     1.0000 0.08450  0.69300  0.30700  Biso   1.000  O
  Cu186    1.0000 0.12560  0.67570  0.32430  Biso   1.000  Cu
  Cu187    1.0000 0.10843  0.16099  0.83901  Biso   1.000  Cu
  O475     1.0000 0.06320  0.17230  0.82770  Biso   1.000  O
  O476     1.0000 0.08450  0.19300  0.80700  Biso   1.000  O
  Cu188    1.0000 0.12560  0.17570  0.82430  Biso   1.000  Cu
  Cu189    1.0000 0.60843  0.66099  0.83901  Biso   1.000  Cu
  O477     1.0000 0.56320  0.67230  0.82770  Biso   1.000  O
  O478     1.0000 0.58450  0.69300  0.80700  Biso   1.000  O
  Cu190    1.0000 0.62560  0.67570  0.82430  Biso   1.000  Cu
  Cu191    1.0000 0.60843  0.16099  0.33901  Biso   1.000  Cu
  O479     1.0000 0.56320  0.17230  0.32770  Biso   1.000  O
  O480     1.0000 0.58450  0.19300  0.30700  Biso   1.000  O
  Cu192    1.0000 0.62560  0.17570  0.32430  Biso   1.000  Cu
  Cu193    1.0000 0.89157  0.33901  0.66099  Biso   1.000  Cu
  O481     1.0000 0.93680  0.32770  0.67230  Biso   1.000  O
  O482     1.0000 0.91550  0.30700  0.69300  Biso   1.000  O
  Cu194    1.0000 0.87440  0.32430  0.67570  Biso   1.000  Cu
  Cu195    1.0000 0.89157  0.83901  0.16099  Biso   1.000  Cu
  O483     1.0000 0.93680  0.82770  0.17230  Biso   1.000  O
  O484     1.0000 0.91550  0.80700  0.19300  Biso   1.000  O
  Cu196    1.0000 0.87440  0.82430  0.17570  Biso   1.000  Cu
  Cu197    1.0000 0.39157  0.33901  0.16099  Biso   1.000  Cu
  O485     1.0000 0.43680  0.32770  0.17230  Biso   1.000  O
  O486     1.0000 0.41550  0.30700  0.19300  Biso   1.000  O
  Cu198    1.0000 0.37440  0.32430  0.17570  Biso   1.000  Cu
  Cu199    1.0000 0.39157  0.83901  0.66099  Biso   1.000  Cu
  O487     1.0000 0.43680  0.82770  0.67230  Biso   1.000  O
  O488     1.0000 0.41550  0.80700  0.69300  Biso   1.000  O
  Cu200    1.0000 0.37440  0.82430  0.67570  Biso   1.000  Cu
  Cu201    1.0000 0.10843  0.66099  0.66099  Biso   1.000  Cu
  O489     1.0000 0.06320  0.67230  0.67230  Biso   1.000  O
  O490     1.0000 0.08450  0.69300  0.69300  Biso   1.000  O
  Cu202    1.0000 0.12560  0.67570  0.67570  Biso   1.000  Cu
  Cu203    1.0000 0.10843  0.16099  0.16099  Biso   1.000  Cu
  O491     1.0000 0.06320  0.17230  0.17230  Biso   1.000  O
  O492     1.0000 0.08450  0.19300  0.19300  Biso   1.000  O
  Cu204    1.0000 0.12560  0.17570  0.17570  Biso   1.000  Cu
  Cu205    1.0000 0.60843  0.66099  0.16099  Biso   1.000  Cu
  O493     1.0000 0.56320  0.67230  0.17230  Biso   1.000  O
  O494     1.0000 0.58450  0.69300  0.19300  Biso   1.000  O
  Cu206    1.0000 0.62560  0.67570  0.17570  Biso   1.000  Cu
  Cu207    1.0000 0.60843  0.16099  0.66099  Biso   1.000  Cu
  O495     1.0000 0.56320  0.17230  0.67230  Biso   1.000  O
  O496     1.0000 0.58450  0.19300  0.69300  Biso   1.000  O
  Cu208    1.0000 0.62560  0.17570  0.67570  Biso   1.000  Cu
  Cu209    1.0000 0.89157  0.66099  0.33901  Biso   1.000  Cu
  O497     1.0000 0.93680  0.67230  0.32770  Biso   1.000  O
  O498     1.0000 0.91550  0.69300  0.30700  Biso   1.000  O
  Cu210    1.0000 0.87440  0.67570  0.32430  Biso   1.000  Cu
  Cu211    1.0000 0.89157  0.16099  0.83901  Biso   1.000  Cu
  O499     1.0000 0.93680  0.17230  0.82770  Biso   1.000  O
  O500     1.0000 0.91550  0.19300  0.80700  Biso   1.000  O
  Cu212    1.0000 0.87440  0.17570  0.82430  Biso   1.000  Cu
  Cu213    1.0000 0.39157  0.66099  0.83901  Biso   1.000  Cu
  O501     1.0000 0.43680  0.67230  0.82770  Biso   1.000  O
  O502     1.0000 0.41550  0.69300  0.80700  Biso   1.000  O
  Cu214    1.0000 0.37440  0.67570  0.82430  Biso   1.000  Cu
  Cu215    1.0000 0.39157  0.16099  0.33901  Biso   1.000  Cu
  O503     1.0000 0.43680  0.17230  0.32770  Biso   1.000  O
  O504     1.0000 0.41550  0.19300  0.30700  Biso   1.000  O
  Cu216    1.0000 0.37440  0.17570  0.32430  Biso   1.000  Cu
  Cu217    1.0000 0.10843  0.33901  0.33901  Biso   1.000  Cu
  O505     1.0000 0.06320  0.32770  0.32770  Biso   1.000  O
  O506     1.0000 0.08450  0.30700  0.30700  Biso   1.000  O
  Cu218    1.0000 0.12560  0.32430  0.32430  Biso   1.000  Cu
  Cu219    1.0000 0.10843  0.83901  0.83901  Biso   1.000  Cu
  O507     1.0000 0.06320  0.82770  0.82770  Biso   1.000  O
  O508     1.0000 0.08450  0.80700  0.80700  Biso   1.000  O
  Cu220    1.0000 0.12560  0.82430  0.82430  Biso   1.000  Cu
  Cu221    1.0000 0.60843  0.33901  0.83901  Biso   1.000  Cu
  O509     1.0000 0.56320  0.32770  0.82770  Biso   1.000  O
  O510     1.0000 0.58450  0.30700  0.80700  Biso   1.000  O
  Cu222    1.0000 0.62560  0.32430  0.82430  Biso   1.000  Cu
  Cu223    1.0000 0.60843  0.83901  0.33901  Biso   1.000  Cu
  O511     1.0000 0.56320  0.82770  0.32770  Biso   1.000  O
  O512     1.0000 0.58450  0.80700  0.30700  Biso   1.000  O
  Cu224    1.0000 0.62560  0.82430  0.32430  Biso   1.000  Cu
  Cu225    1.0000 0.33901  0.33901  0.10843  Biso   1.000  Cu
  O513     1.0000 0.32770  0.32770  0.06320  Biso   1.000  O
  O514     1.0000 0.30700  0.30700  0.08450  Biso   1.000  O
  Cu226    1.0000 0.32430  0.32430  0.12560  Biso   1.000  Cu
  Cu227    1.0000 0.33901  0.83901  0.60843  Biso   1.000  Cu
  O515     1.0000 0.32770  0.82770  0.56320  Biso   1.000  O
  O516     1.0000 0.30700  0.80700  0.58450  Biso   1.000  O
  Cu228    1.0000 0.32430  0.82430  0.62560  Biso   1.000  Cu
  Cu229    1.0000 0.83901  0.33901  0.60843  Biso   1.000  Cu
  O517     1.0000 0.82770  0.32770  0.56320  Biso   1.000  O
  O518     1.0000 0.80700  0.30700  0.58450  Biso   1.000  O
  Cu230    1.0000 0.82430  0.32430  0.62560  Biso   1.000  Cu
  Cu231    1.0000 0.83901  0.83901  0.10843  Biso   1.000  Cu
  O519     1.0000 0.82770  0.82770  0.06320  Biso   1.000  O
  O520     1.0000 0.80700  0.80700  0.08450  Biso   1.000  O
  Cu232    1.0000 0.82430  0.82430  0.12560  Biso   1.000  Cu
  Cu233    1.0000 0.66099  0.33901  0.89157  Biso   1.000  Cu
  O521     1.0000 0.67230  0.32770  0.93680  Biso   1.000  O
  O522     1.0000 0.69300  0.30700  0.91550  Biso   1.000  O
  Cu234    1.0000 0.67570  0.32430  0.87440  Biso   1.000  Cu
  Cu235    1.0000 0.66099  0.83901  0.39157  Biso   1.000  Cu
  O523     1.0000 0.67230  0.82770  0.43680  Biso   1.000  O
  O524     1.0000 0.69300  0.80700  0.41550  Biso   1.000  O
  Cu236    1.0000 0.67570  0.82430  0.37440  Biso   1.000  Cu
  Cu237    1.0000 0.16099  0.33901  0.39157  Biso   1.000  Cu
  O525     1.0000 0.17230  0.32770  0.43680  Biso   1.000  O
  O526     1.0000 0.19300  0.30700  0.41550  Biso   1.000  O
  Cu238    1.0000 0.17570  0.32430  0.37440  Biso   1.000  Cu
  Cu239    1.0000 0.16099  0.83901  0.89157  Biso   1.000  Cu
  O527     1.0000 0.17230  0.82770  0.93680  Biso   1.000  O
  O528     1.0000 0.19300  0.80700  0.91550  Biso   1.000  O
  Cu240    1.0000 0.17570  0.82430  0.87440  Biso   1.000  Cu
  Cu241    1.0000 0.66099  0.66099  0.10843  Biso   1.000  Cu
  O529     1.0000 0.67230  0.67230  0.06320  Biso   1.000  O
  O530     1.0000 0.69300  0.69300  0.08450  Biso   1.000  O
  Cu242    1.0000 0.67570  0.67570  0.12560  Biso   1.000  Cu
  Cu243    1.0000 0.66099  0.16099  0.60843  Biso   1.000  Cu
  O531     1.0000 0.67230  0.17230  0.56320  Biso   1.000  O
  O532     1.0000 0.69300  0.19300  0.58450  Biso   1.000  O
  Cu244    1.0000 0.67570  0.17570  0.62560  Biso   1.000  Cu
  Cu245    1.0000 0.16099  0.66099  0.60843  Biso   1.000  Cu
  O533     1.0000 0.17230  0.67230  0.56320  Biso   1.000  O
  O534     1.0000 0.19300  0.69300  0.58450  Biso   1.000  O
  Cu246    1.0000 0.17570  0.67570  0.62560  Biso   1.000  Cu
  Cu247    1.0000 0.16099  0.16099  0.10843  Biso   1.000  Cu
  O535     1.0000 0.17230  0.17230  0.06320  Biso   1.000  O
  O536     1.0000 0.19300  0.19300  0.08450  Biso   1.000  O
  Cu248    1.0000 0.17570  0.17570  0.12560  Biso   1.000  Cu
  Cu249    1.0000 0.33901  0.66099  0.89157  Biso   1.000  Cu
  O537     1.0000 0.32770  0.67230  0.93680  Biso   1.000  O
  O538     1.0000 0.30700  0.69300  0.91550  Biso   1.000  O
  Cu250    1.0000 0.32430  0.67570  0.87440  Biso   1.000  Cu
  Cu251    1.0000 0.33901  0.16099  0.39157  Biso   1.000  Cu
  O539     1.0000 0.32770  0.17230  0.43680  Biso   1.000  O
  O540     1.0000 0.30700  0.19300  0.41550  Biso   1.000  O
  Cu252    1.0000 0.32430  0.17570  0.37440  Biso   1.000  Cu
  Cu253    1.0000 0.83901  0.66099  0.39157  Biso   1.000  Cu
  O541     1.0000 0.82770  0.67230  0.43680  Biso   1.000  O
  O542     1.0000 0.80700  0.69300  0.41550  Biso   1.000  O
  Cu254    1.0000 0.82430  0.67570  0.37440  Biso   1.000  Cu
  Cu255    1.0000 0.83901  0.16099  0.89157  Biso   1.000  Cu
  O543     1.0000 0.82770  0.17230  0.93680  Biso   1.000  O
  O544     1.0000 0.80700  0.19300  0.91550  Biso   1.000  O
  Cu256    1.0000 0.82430  0.17570  0.87440  Biso   1.000  Cu
  Cu257    1.0000 0.33901  0.89157  0.66099  Biso   1.000  Cu
  O545     1.0000 0.32770  0.93680  0.67230  Biso   1.000  O
  O546     1.0000 0.30700  0.91550  0.69300  Biso   1.000  O
  Cu258    1.0000 0.32430  0.87440  0.67570  Biso   1.000  Cu
  Cu259    1.0000 0.33901  0.39157  0.16099  Biso   1.000  Cu
  O547     1.0000 0.32770  0.43680  0.17230  Biso   1.000  O
  O548     1.0000 0.30700  0.41550  0.19300  Biso   1.000  O
  Cu260    1.0000 0.32430  0.37440  0.17570  Biso   1.000  Cu
  Cu261    1.0000 0.83901  0.89157  0.16099  Biso   1.000  Cu
  O549     1.0000 0.82770  0.93680  0.17230  Biso   1.000  O
  O550     1.0000 0.80700  0.91550  0.19300  Biso   1.000  O
  Cu262    1.0000 0.82430  0.87440  0.17570  Biso   1.000  Cu
  Cu263    1.0000 0.83901  0.39157  0.66099  Biso   1.000  Cu
  O551     1.0000 0.82770  0.43680  0.67230  Biso   1.000  O
  O552     1.0000 0.80700  0.41550  0.69300  Biso   1.000  O
  Cu264    1.0000 0.82430  0.37440  0.67570  Biso   1.000  Cu
  Cu265    1.0000 0.33901  0.10843  0.33901  Biso   1.000  Cu
  O553     1.0000 0.32770  0.06320  0.32770  Biso   1.000  O
  O554     1.0000 0.30700  0.08450  0.30700  Biso   1.000  O
  Cu266    1.0000 0.32430  0.12560  0.32430  Biso   1.000  Cu
  Cu267    1.0000 0.33901  0.60843  0.83901  Biso   1.000  Cu
  O555     1.0000 0.32770  0.56320  0.82770  Biso   1.000  O
  O556     1.0000 0.30700  0.58450  0.80700  Biso   1.000  O
  Cu268    1.0000 0.32430  0.62560  0.82430  Biso   1.000  Cu
  Cu269    1.0000 0.83901  0.10843  0.83901  Biso   1.000  Cu
  O557     1.0000 0.82770  0.06320  0.82770  Biso   1.000  O
  O558     1.0000 0.80700  0.08450  0.80700  Biso   1.000  O
  Cu270    1.0000 0.82430  0.12560  0.82430  Biso   1.000  Cu
  Cu271    1.0000 0.83901  0.60843  0.33901  Biso   1.000  Cu
  O559     1.0000 0.82770  0.56320  0.32770  Biso   1.000  O
  O560     1.0000 0.80700  0.58450  0.30700  Biso   1.000  O
  Cu272    1.0000 0.82430  0.62560  0.32430  Biso   1.000  Cu
  Cu273    1.0000 0.66099  0.89157  0.33901  Biso   1.000  Cu
  O561     1.0000 0.67230  0.93680  0.32770  Biso   1.000  O
  O562     1.0000 0.69300  0.91550  0.30700  Biso   1.000  O
  Cu274    1.0000 0.67570  0.87440  0.32430  Biso   1.000  Cu
  Cu275    1.0000 0.66099  0.39157  0.83901  Biso   1.000  Cu
  O563     1.0000 0.67230  0.43680  0.82770  Biso   1.000  O
  O564     1.0000 0.69300  0.41550  0.80700  Biso   1.000  O
  Cu276    1.0000 0.67570  0.37440  0.82430  Biso   1.000  Cu
  Cu277    1.0000 0.16099  0.89157  0.83901  Biso   1.000  Cu
  O565     1.0000 0.17230  0.93680  0.82770  Biso   1.000  O
  O566     1.0000 0.19300  0.91550  0.80700  Biso   1.000  O
  Cu278    1.0000 0.17570  0.87440  0.82430  Biso   1.000  Cu
  Cu279    1.0000 0.16099  0.39157  0.33901  Biso   1.000  Cu
  O567     1.0000 0.17230  0.43680  0.32770  Biso   1.000  O
  O568     1.0000 0.19300  0.41550  0.30700  Biso   1.000  O
  Cu280    1.0000 0.17570  0.37440  0.32430  Biso   1.000  Cu
  Cu281    1.0000 0.66099  0.10843  0.66099  Biso   1.000  Cu
  O569     1.0000 0.67230  0.06320  0.67230  Biso   1.000  O
  O570     1.0000 0.69300  0.08450  0.69300  Biso   1.000  O
  Cu282    1.0000 0.67570  0.12560  0.67570  Biso   1.000  Cu
  Cu283    1.0000 0.66099  0.60843  0.16099  Biso   1.000  Cu
  O571     1.0000 0.67230  0.56320  0.17230  Biso   1.000  O
  O572     1.0000 0.69300  0.58450  0.19300  Biso   1.000  O
  Cu284    1.0000 0.67570  0.62560  0.17570  Biso   1.000  Cu
  Cu285    1.0000 0.16099  0.10843  0.16099  Biso   1.000  Cu
  O573     1.0000 0.17230  0.06320  0.17230  Biso   1.000  O
  O574     1.0000 0.19300  0.08450  0.19300  Biso   1.000  O
  Cu286    1.0000 0.17570  0.12560  0.17570  Biso   1.000  Cu
  Cu287    1.0000 0.16099  0.60843  0.66099  Biso   1.000  Cu
  O575     1.0000 0.17230  0.56320  0.67230  Biso   1.000  O
  O576     1.0000 0.19300  0.58450  0.69300  Biso   1.000  O
  Cu288    1.0000 0.17570  0.62560  0.67570  Biso   1.000  Cu
  O577     1.0000 0.35820  0.85820  0.35820  Biso   1.000  O
  O578     1.0000 0.33460  0.83460  0.33460  Biso   1.000  O
  O579     1.0000 0.64180  0.14180  0.35820  Biso   1.000  O
  O580     1.0000 0.66540  0.16540  0.33460  Biso   1.000  O
  O581     1.0000 0.14180  0.14180  0.85820  Biso   1.000  O
  O582     1.0000 0.16540  0.16540  0.83460  Biso   1.000  O
  O583     1.0000 0.64180  0.85820  0.64180  Biso   1.000  O
  O584     1.0000 0.66540  0.83460  0.66540  Biso   1.000  O
  O585     1.0000 0.64180  0.35820  0.14180  Biso   1.000  O
  O586     1.0000 0.66540  0.33460  0.16540  Biso   1.000  O
  O587     1.0000 0.14180  0.35820  0.64180  Biso   1.000  O
  O588     1.0000 0.16540  0.33460  0.66540  Biso   1.000  O
  O589     1.0000 0.35820  0.14180  0.64180  Biso   1.000  O
  O590     1.0000 0.33460  0.16540  0.66540  Biso   1.000  O
  O591     1.0000 0.35820  0.35820  0.85820  Biso   1.000  O
  O592     1.0000 0.33460  0.33460  0.83460  Biso   1.000  O
  O593     1.0000 0.35820  0.64180  0.14180  Biso   1.000  O
  O594     1.0000 0.33460  0.66540  0.16540  Biso   1.000  O
  O595     1.0000 0.64180  0.64180  0.85820  Biso   1.000  O
  O596     1.0000 0.66540  0.66540  0.83460  Biso   1.000  O
  O597     1.0000 0.14180  0.64180  0.35820  Biso   1.000  O
  O598     1.0000 0.16540  0.66540  0.33460  Biso   1.000  O
  O599     1.0000 0.14180  0.85820  0.14180  Biso   1.000  O
  O600     1.0000 0.16540  0.83460  0.16540  Biso   1.000  O
  O601     1.0000 0.85820  0.35820  0.35820  Biso   1.000  O
  O602     1.0000 0.83460  0.33460  0.33460  Biso   1.000  O
  O603     1.0000 0.85820  0.85820  0.85820  Biso   1.000  O
  O604     1.0000 0.83460  0.83460  0.83460  Biso   1.000  O
  O605     1.0000 0.85820  0.64180  0.64180  Biso   1.000  O
  O606     1.0000 0.83460  0.66540  0.66540  Biso   1.000  O
  O607     1.0000 0.85820  0.14180  0.14180  Biso   1.000  O
  O608     1.0000 0.83460  0.16540  0.16540  Biso   1.000  O
  O609     1.0000 0.85820  0.35820  0.64180  Biso   1.000  O
  O610     1.0000 0.83460  0.33460  0.66540  Biso   1.000  O
  O611     1.0000 0.85820  0.85820  0.14180  Biso   1.000  O
  O612     1.0000 0.83460  0.83460  0.16540  Biso   1.000  O
  O613     1.0000 0.35820  0.35820  0.14180  Biso   1.000  O
  O614     1.0000 0.33460  0.33460  0.16540  Biso   1.000  O
  O615     1.0000 0.14180  0.64180  0.64180  Biso   1.000  O
  O616     1.0000 0.16540  0.66540  0.66540  Biso   1.000  O
  O617     1.0000 0.14180  0.14180  0.14180  Biso   1.000  O
  O618     1.0000 0.16540  0.16540  0.16540  Biso   1.000  O
  O619     1.0000 0.85820  0.64180  0.35820  Biso   1.000  O
  O620     1.0000 0.83460  0.66540  0.33460  Biso   1.000  O
  O621     1.0000 0.85820  0.14180  0.85820  Biso   1.000  O
  O622     1.0000 0.83460  0.16540  0.83460  Biso   1.000  O
  O623     1.0000 0.35820  0.14180  0.35820  Biso   1.000  O
  O624     1.0000 0.33460  0.16540  0.33460  Biso   1.000  O
  O625     1.0000 0.14180  0.35820  0.35820  Biso   1.000  O
  O626     1.0000 0.16540  0.33460  0.33460  Biso   1.000  O
  O627     1.0000 0.14180  0.85820  0.85820  Biso   1.000  O
  O628     1.0000 0.16540  0.83460  0.83460  Biso   1.000  O
  O629     1.0000 0.64180  0.35820  0.85820  Biso   1.000  O
  O630     1.0000 0.66540  0.33460  0.83460  Biso   1.000  O
  O631     1.0000 0.64180  0.64180  0.14180  Biso   1.000  O
  O632     1.0000 0.66540  0.66540  0.16540  Biso   1.000  O
  O633     1.0000 0.35820  0.64180  0.85820  Biso   1.000  O
  O634     1.0000 0.33460  0.66540  0.83460  Biso   1.000  O
  O635     1.0000 0.35820  0.85820  0.64180  Biso   1.000  O
  O636     1.0000 0.33460  0.83460  0.66540  Biso   1.000  O
  O637     1.0000 0.64180  0.85820  0.35820  Biso   1.000  O
  O638     1.0000 0.66540  0.83460  0.33460  Biso   1.000  O
  O639     1.0000 0.64180  0.14180  0.64180  Biso   1.000  O
  O640     1.0000 0.66540  0.16540  0.66540  Biso   1.000  O
  O641     1.0000 0.40798  0.00720  0.09202  Biso   1.000  O
  O642     1.0000 0.40798  0.50720  0.59202  Biso   1.000  O
  O643     1.0000 0.59202  0.99280  0.09202  Biso   1.000  O
  O644     1.0000 0.59202  0.49280  0.59202  Biso   1.000  O
  O645     1.0000 0.09202  0.49280  0.09202  Biso   1.000  O
  O646     1.0000 0.59202  0.00720  0.90798  Biso   1.000  O
  O647     1.0000 0.59202  0.50720  0.40798  Biso   1.000  O
  O648     1.0000 0.09202  0.00720  0.40798  Biso   1.000  O
  O649     1.0000 0.40798  0.99280  0.90798  Biso   1.000  O
  O650     1.0000 0.40798  0.49280  0.40798  Biso   1.000  O
  O651     1.0000 0.09202  0.40798  0.00720  Biso   1.000  O
  O652     1.0000 0.09202  0.90798  0.50720  Biso   1.000  O
  O653     1.0000 0.09202  0.59202  0.99280  Biso   1.000  O
  O654     1.0000 0.09202  0.09202  0.49280  Biso   1.000  O
  O655     1.0000 0.90798  0.59202  0.00720  Biso   1.000  O
  O656     1.0000 0.90798  0.09202  0.50720  Biso   1.000  O
  O657     1.0000 0.40798  0.09202  0.00720  Biso   1.000  O
  O658     1.0000 0.90798  0.40798  0.99280  Biso   1.000  O
  O659     1.0000 0.90798  0.90798  0.49280  Biso   1.000  O
  O660     1.0000 0.40798  0.40798  0.49280  Biso   1.000  O
  O661     1.0000 0.00720  0.09202  0.40798  Biso   1.000  O
  O662     1.0000 0.50720  0.09202  0.90798  Biso   1.000  O
  O663     1.0000 0.99280  0.09202  0.59202  Biso   1.000  O
  O664     1.0000 0.49280  0.09202  0.09202  Biso   1.000  O
  O665     1.0000 0.00720  0.90798  0.59202  Biso   1.000  O
  O666     1.0000 0.00720  0.40798  0.09202  Biso   1.000  O
  O667     1.0000 0.50720  0.90798  0.09202  Biso   1.000  O
  O668     1.0000 0.99280  0.90798  0.40798  Biso   1.000  O
  O669     1.0000 0.49280  0.90798  0.90798  Biso   1.000  O
  O670     1.0000 0.49280  0.40798  0.40798  Biso   1.000  O
  O671     1.0000 0.00720  0.40798  0.90798  Biso   1.000  O
  O672     1.0000 0.50720  0.40798  0.40798  Biso   1.000  O
  O673     1.0000 0.99280  0.59202  0.90798  Biso   1.000  O
  O674     1.0000 0.99280  0.09202  0.40798  Biso   1.000  O
  O675     1.0000 0.49280  0.59202  0.40798  Biso   1.000  O
  O676     1.0000 0.00720  0.59202  0.09202  Biso   1.000  O
  O677     1.0000 0.50720  0.59202  0.59202  Biso   1.000  O
  O678     1.0000 0.50720  0.09202  0.09202  Biso   1.000  O
  O679     1.0000 0.99280  0.40798  0.09202  Biso   1.000  O
  O680     1.0000 0.49280  0.40798  0.59202  Biso   1.000  O
  O681     1.0000 0.40798  0.09202  0.99280  Biso   1.000  O
  O682     1.0000 0.40798  0.59202  0.49280  Biso   1.000  O
  O683     1.0000 0.59202  0.09202  0.00720  Biso   1.000  O
  O684     1.0000 0.59202  0.59202  0.50720  Biso   1.000  O
  O685     1.0000 0.09202  0.09202  0.50720  Biso   1.000  O
  O686     1.0000 0.59202  0.90798  0.99280  Biso   1.000  O
  O687     1.0000 0.59202  0.40798  0.49280  Biso   1.000  O
  O688     1.0000 0.09202  0.40798  0.99280  Biso   1.000  O
  O689     1.0000 0.40798  0.90798  0.00720  Biso   1.000  O
  O690     1.0000 0.40798  0.40798  0.50720  Biso   1.000  O
  O691     1.0000 0.09202  0.00720  0.59202  Biso   1.000  O
  O692     1.0000 0.09202  0.50720  0.09202  Biso   1.000  O
  O693     1.0000 0.09202  0.99280  0.40798  Biso   1.000  O
  O694     1.0000 0.09202  0.49280  0.90798  Biso   1.000  O
  O695     1.0000 0.90798  0.00720  0.40798  Biso   1.000  O
  O696     1.0000 0.90798  0.50720  0.90798  Biso   1.000  O
  O697     1.0000 0.40798  0.50720  0.40798  Biso   1.000  O
  O698     1.0000 0.90798  0.99280  0.59202  Biso   1.000  O
  O699     1.0000 0.90798  0.49280  0.09202  Biso   1.000  O
  O700     1.0000 0.40798  0.99280  0.09202  Biso   1.000  O
  O701     1.0000 0.59202  0.99280  0.90798  Biso   1.000  O
  O702     1.0000 0.59202  0.49280  0.40798  Biso   1.000  O
  O703     1.0000 0.40798  0.00720  0.90798  Biso   1.000  O
  O704     1.0000 0.40798  0.49280  0.59202  Biso   1.000  O
  O705     1.0000 0.59202  0.00720  0.09202  Biso   1.000  O
  O706     1.0000 0.59202  0.50720  0.59202  Biso   1.000  O
  O707     1.0000 0.90798  0.59202  0.99280  Biso   1.000  O
  O708     1.0000 0.90798  0.09202  0.49280  Biso   1.000  O
  O709     1.0000 0.90798  0.40798  0.00720  Biso   1.000  O
  O710     1.0000 0.90798  0.90798  0.50720  Biso   1.000  O
  O711     1.0000 0.09202  0.90798  0.49280  Biso   1.000  O
  O712     1.0000 0.09202  0.59202  0.00720  Biso   1.000  O
  O713     1.0000 0.99280  0.90798  0.59202  Biso   1.000  O
  O714     1.0000 0.49280  0.90798  0.09202  Biso   1.000  O
  O715     1.0000 0.00720  0.90798  0.40798  Biso   1.000  O
  O716     1.0000 0.50720  0.90798  0.90798  Biso   1.000  O
  O717     1.0000 0.49280  0.09202  0.90798  Biso   1.000  O
  O718     1.0000 0.00720  0.09202  0.59202  Biso   1.000  O
  O719     1.0000 0.99280  0.59202  0.09202  Biso   1.000  O
  O720     1.0000 0.49280  0.59202  0.59202  Biso   1.000  O
  O721     1.0000 0.50720  0.40798  0.59202  Biso   1.000  O
  O722     1.0000 0.99280  0.40798  0.90798  Biso   1.000  O
  O723     1.0000 0.00720  0.59202  0.90798  Biso   1.000  O
  O724     1.0000 0.50720  0.59202  0.40798  Biso   1.000  O
  O725     1.0000 0.59202  0.90798  0.00720  Biso   1.000  O
  O726     1.0000 0.59202  0.40798  0.50720  Biso   1.000  O
  O727     1.0000 0.40798  0.90798  0.99280  Biso   1.000  O
  O728     1.0000 0.40798  0.59202  0.50720  Biso   1.000  O
  O729     1.0000 0.59202  0.09202  0.99280  Biso   1.000  O
  O730     1.0000 0.59202  0.59202  0.49280  Biso   1.000  O
  O731     1.0000 0.90798  0.99280  0.40798  Biso   1.000  O
  O732     1.0000 0.90798  0.49280  0.90798  Biso   1.000  O
  O733     1.0000 0.90798  0.00720  0.59202  Biso   1.000  O
  O734     1.0000 0.90798  0.50720  0.09202  Biso   1.000  O
  O735     1.0000 0.09202  0.99280  0.59202  Biso   1.000  O
  O736     1.0000 0.09202  0.50720  0.90798  Biso   1.000  O
