data_image0
_cell_length_a       21.2245
_cell_length_b       21.2245
_cell_length_c       21.2245
_cell_angle_alpha    90
_cell_angle_beta     90
_cell_angle_gamma    90

_symmetry_space_group_name_H-M    "P 1"
_symmetry_int_tables_number       1

loop_
  _symmetry_equiv_pos_as_xyz
  'x, y, z'

loop_
  _atom_site_label
  _atom_site_occupancy
  _atom_site_fract_x
  _atom_site_fract_y
  _atom_site_fract_z
  _atom_site_thermal_displace_type
  _atom_site_B_iso_or_equiv
  _atom_site_type_symbol
  Bi1      1.0000 0.27771  0.42258  0.52774  Biso   1.000  Bi
  Na1      1.0000 0.08647  0.44965  0.32479  Biso   1.000  Na
  Na2      1.0000 0.00812  0.54555  0.21420  Biso   1.000  Na
  O1       1.0000 0.17680  0.25820  0.36150  Biso   1.000  O
  O2       1.0000 0.42370  0.25800  0.66230  Biso   1.000  O
  O3       1.0000 0.24270  0.39840  0.43250  Biso   1.000  O
  O4       1.0000 0.32660  0.39120  0.61840  Biso   1.000  O
  O5       1.0000 0.21820  0.34010  0.54510  Biso   1.000  O
  O6       1.0000 0.34600  0.35380  0.49760  Biso   1.000  O
  O7       1.0000 0.08560  0.34040  0.54520  Biso   1.000  O
  O8       1.0000 0.47330  0.37720  0.48040  Biso   1.000  O
  O9       1.0000 0.11900  0.35030  0.37530  Biso   1.000  O
  O10      1.0000 0.46490  0.35960  0.65320  Biso   1.000  O
  O11      1.0000 0.02050  0.42750  0.41380  Biso   1.000  O
  H1       1.0000 0.02020  0.44420  0.44450  Biso   1.000  H
  O12      1.0000 0.54820  0.45320  0.61580  Biso   1.000  O
  H2       1.0000 0.53550  0.46910  0.58750  Biso   1.000  H
  C1       1.0000 0.18030  0.32380  0.37140  Biso   1.000  C
  H3       1.0000 0.20130  0.34230  0.33590  Biso   1.000  H
  C2       1.0000 0.40900  0.32300  0.66110  Biso   1.000  C
  H4       1.0000 0.39050  0.33390  0.70090  Biso   1.000  H
  C3       1.0000 0.22140  0.33490  0.42980  Biso   1.000  C
  H5       1.0000 0.25720  0.30730  0.42810  Biso   1.000  H
  C4       1.0000 0.35920  0.33390  0.60920  Biso   1.000  C
  H6       1.0000 0.32930  0.30000  0.61070  Biso   1.000  H
  C5       1.0000 0.18380  0.32080  0.49000  Biso   1.000  C
  H7       1.0000 0.17670  0.27620  0.49240  Biso   1.000  H
  C6       1.0000 0.39010  0.33440  0.54430  Biso   1.000  C
  H8       1.0000 0.40340  0.29220  0.53460  Biso   1.000  H
  C7       1.0000 0.11960  0.35420  0.48910  Biso   1.000  C
  H9       1.0000 0.12640  0.39890  0.48680  Biso   1.000  H
  C8       1.0000 0.44770  0.37720  0.54270  Biso   1.000  C
  H10      1.0000 0.43510  0.41920  0.55350  Biso   1.000  H
  C9       1.0000 0.08350  0.33320  0.43100  Biso   1.000  C
  H11      1.0000 0.07910  0.28820  0.43220  Biso   1.000  H
  C10      1.0000 0.49460  0.35350  0.59160  Biso   1.000  C
  H12      1.0000 0.50390  0.30990  0.58370  Biso   1.000  H
  C11      1.0000 0.01840  0.36240  0.42420  Biso   1.000  C
  H13      1.0000 0.99700  0.34270  0.38960  Biso   1.000  H
  H14      1.0000 0.99460  0.35430  0.46170  Biso   1.000  H
  C12      1.0000 0.55570  0.39030  0.59540  Biso   1.000  C
  H15      1.0000 0.58370  0.36900  0.62380  Biso   1.000  H
  H16      1.0000 0.57510  0.39050  0.55460  Biso   1.000  H
  C13      1.0000 0.14840  0.24230  0.30290  Biso   1.000  C
  H17      1.0000 0.14720  0.19740  0.29840  Biso   1.000  H
  H18      1.0000 0.17250  0.26020  0.26910  Biso   1.000  H
  H19      1.0000 0.10620  0.25870  0.30170  Biso   1.000  H
  C14      1.0000 0.45680  0.24020  0.71760  Biso   1.000  C
  H20      1.0000 0.46560  0.19580  0.71620  Biso   1.000  H
  H21      1.0000 0.43150  0.24940  0.75400  Biso   1.000  H
  H22      1.0000 0.49570  0.26320  0.72000  Biso   1.000  H
  O13      1.0000 0.05910  0.56070  0.31420  Biso   1.000  O
  O14      1.0000 0.99800  0.43570  0.25130  Biso   1.000  O
  O15      1.0000 0.92260  0.60320  0.26900  Biso   1.000  O
  O16      1.0000 0.90640  0.56450  0.26900  Biso   1.000  O
  O17      1.0000 0.16300  0.42500  0.24010  Biso   1.000  O
  O18      1.0000 0.13740  0.39880  0.22890  Biso   1.000  O
  O19      1.0000 0.87250  0.60780  0.29790  Biso   1.000  O
  O20      1.0000 0.84200  0.55930  0.29240  Biso   1.000  O
  Bi2      1.0000 0.22229  0.57742  0.02774  Biso   1.000  Bi
  Na3      1.0000 0.41353  0.55035  0.82479  Biso   1.000  Na
  Na4      1.0000 0.49188  0.45445  0.71420  Biso   1.000  Na
  O21      1.0000 0.32320  0.74180  0.86150  Biso   1.000  O
  O22      1.0000 0.07630  0.74200  0.16230  Biso   1.000  O
  O23      1.0000 0.25730  0.60160  0.93250  Biso   1.000  O
  O24      1.0000 0.17340  0.60880  0.11840  Biso   1.000  O
  O25      1.0000 0.28180  0.65990  0.04510  Biso   1.000  O
  O26      1.0000 0.15400  0.64620  0.99760  Biso   1.000  O
  O27      1.0000 0.41440  0.65960  0.04520  Biso   1.000  O
  O28      1.0000 0.02670  0.62280  0.98040  Biso   1.000  O
  O29      1.0000 0.38100  0.64970  0.87530  Biso   1.000  O
  O30      1.0000 0.03510  0.64040  0.15320  Biso   1.000  O
  O31      1.0000 0.47950  0.57250  0.91380  Biso   1.000  O
  H23      1.0000 0.47980  0.55580  0.94450  Biso   1.000  H
  O32      1.0000 0.95180  0.54680  0.11580  Biso   1.000  O
  H24      1.0000 0.96450  0.53090  0.08750  Biso   1.000  H
  C15      1.0000 0.31970  0.67620  0.87140  Biso   1.000  C
  H25      1.0000 0.29870  0.65770  0.83590  Biso   1.000  H
  C16      1.0000 0.09100  0.67700  0.16110  Biso   1.000  C
  H26      1.0000 0.10950  0.66610  0.20090  Biso   1.000  H
  C17      1.0000 0.27860  0.66510  0.92980  Biso   1.000  C
  H27      1.0000 0.24280  0.69270  0.92810  Biso   1.000  H
  C18      1.0000 0.14080  0.66610  0.10920  Biso   1.000  C
  H28      1.0000 0.17070  0.70000  0.11070  Biso   1.000  H
  C19      1.0000 0.31620  0.67920  0.99000  Biso   1.000  C
  H29      1.0000 0.32330  0.72380  0.99240  Biso   1.000  H
  C20      1.0000 0.10990  0.66560  0.04430  Biso   1.000  C
  H30      1.0000 0.09660  0.70780  0.03460  Biso   1.000  H
  C21      1.0000 0.38040  0.64580  0.98910  Biso   1.000  C
  H31      1.0000 0.37360  0.60110  0.98680  Biso   1.000  H
  C22      1.0000 0.05230  0.62280  0.04270  Biso   1.000  C
  H32      1.0000 0.06490  0.58080  0.05350  Biso   1.000  H
  C23      1.0000 0.41650  0.66680  0.93100  Biso   1.000  C
  H33      1.0000 0.42090  0.71180  0.93220  Biso   1.000  H
  C24      1.0000 0.00540  0.64650  0.09160  Biso   1.000  C
  H34      1.0000 0.99610  0.69010  0.08370  Biso   1.000  H
  C25      1.0000 0.48160  0.63760  0.92420  Biso   1.000  C
  H35      1.0000 0.50300  0.65730  0.88960  Biso   1.000  H
  H36      1.0000 0.50540  0.64570  0.96170  Biso   1.000  H
  C26      1.0000 0.94430  0.60970  0.09540  Biso   1.000  C
  H37      1.0000 0.91630  0.63100  0.12380  Biso   1.000  H
  H38      1.0000 0.92490  0.60950  0.05460  Biso   1.000  H
  C27      1.0000 0.35160  0.75770  0.80290  Biso   1.000  C
  H39      1.0000 0.35280  0.80260  0.79840  Biso   1.000  H
  H40      1.0000 0.32750  0.73980  0.76910  Biso   1.000  H
  H41      1.0000 0.39380  0.74130  0.80170  Biso   1.000  H
  C28      1.0000 0.04320  0.75980  0.21760  Biso   1.000  C
  H42      1.0000 0.03440  0.80420  0.21620  Biso   1.000  H
  H43      1.0000 0.06850  0.75060  0.25400  Biso   1.000  H
  H44      1.0000 0.00430  0.73680  0.22000  Biso   1.000  H
  O33      1.0000 0.44090  0.43930  0.81420  Biso   1.000  O
  O34      1.0000 0.50200  0.56430  0.75130  Biso   1.000  O
  O35      1.0000 0.57740  0.39680  0.76900  Biso   1.000  O
  O36      1.0000 0.59360  0.43550  0.76900  Biso   1.000  O
  O37      1.0000 0.33700  0.57500  0.74010  Biso   1.000  O
  O38      1.0000 0.36260  0.60120  0.72890  Biso   1.000  O
  O39      1.0000 0.62750  0.39220  0.79790  Biso   1.000  O
  O40      1.0000 0.65800  0.44070  0.79240  Biso   1.000  O
  Bi3      1.0000 0.72229  0.92258  0.97226  Biso   1.000  Bi
  Na5      1.0000 0.91353  0.94965  0.17521  Biso   1.000  Na
  Na6      1.0000 0.99188  0.04555  0.28580  Biso   1.000  Na
  O41      1.0000 0.82320  0.75820  0.13850  Biso   1.000  O
  O42      1.0000 0.57630  0.75800  0.83770  Biso   1.000  O
  O43      1.0000 0.75730  0.89840  0.06750  Biso   1.000  O
  O44      1.0000 0.67340  0.89120  0.88160  Biso   1.000  O
  O45      1.0000 0.78180  0.84010  0.95490  Biso   1.000  O
  O46      1.0000 0.65400  0.85380  0.00240  Biso   1.000  O
  O47      1.0000 0.91440  0.84040  0.95480  Biso   1.000  O
  O48      1.0000 0.52670  0.87720  0.01960  Biso   1.000  O
  O49      1.0000 0.88100  0.85030  0.12470  Biso   1.000  O
  O50      1.0000 0.53510  0.85960  0.84680  Biso   1.000  O
  O51      1.0000 0.97950  0.92750  0.08620  Biso   1.000  O
  H45      1.0000 0.97980  0.94420  0.05550  Biso   1.000  H
  O52      1.0000 0.45180  0.95320  0.88420  Biso   1.000  O
  H46      1.0000 0.46450  0.96910  0.91250  Biso   1.000  H
  C29      1.0000 0.81970  0.82380  0.12860  Biso   1.000  C
  H47      1.0000 0.79870  0.84230  0.16410  Biso   1.000  H
  C30      1.0000 0.59100  0.82300  0.83890  Biso   1.000  C
  H48      1.0000 0.60950  0.83390  0.79910  Biso   1.000  H
  C31      1.0000 0.77860  0.83490  0.07020  Biso   1.000  C
  H49      1.0000 0.74280  0.80730  0.07190  Biso   1.000  H
  C32      1.0000 0.64080  0.83390  0.89080  Biso   1.000  C
  H50      1.0000 0.67070  0.80000  0.88930  Biso   1.000  H
  C33      1.0000 0.81620  0.82080  0.01000  Biso   1.000  C
  H51      1.0000 0.82330  0.77620  0.00760  Biso   1.000  H
  C34      1.0000 0.60990  0.83440  0.95570  Biso   1.000  C
  H52      1.0000 0.59660  0.79220  0.96540  Biso   1.000  H
  C35      1.0000 0.88040  0.85420  0.01090  Biso   1.000  C
  H53      1.0000 0.87360  0.89890  0.01320  Biso   1.000  H
  C36      1.0000 0.55230  0.87720  0.95730  Biso   1.000  C
  H54      1.0000 0.56490  0.91920  0.94650  Biso   1.000  H
  C37      1.0000 0.91650  0.83320  0.06900  Biso   1.000  C
  H55      1.0000 0.92090  0.78820  0.06780  Biso   1.000  H
  C38      1.0000 0.50540  0.85350  0.90840  Biso   1.000  C
  H56      1.0000 0.49610  0.80990  0.91630  Biso   1.000  H
  C39      1.0000 0.98160  0.86240  0.07580  Biso   1.000  C
  H57      1.0000 0.00300  0.84270  0.11040  Biso   1.000  H
  H58      1.0000 0.00540  0.85430  0.03830  Biso   1.000  H
  C40      1.0000 0.44430  0.89030  0.90460  Biso   1.000  C
  H59      1.0000 0.41630  0.86900  0.87620  Biso   1.000  H
  H60      1.0000 0.42490  0.89050  0.94540  Biso   1.000  H
  C41      1.0000 0.85160  0.74230  0.19710  Biso   1.000  C
  H61      1.0000 0.85280  0.69740  0.20160  Biso   1.000  H
  H62      1.0000 0.82750  0.76020  0.23090  Biso   1.000  H
  H63      1.0000 0.89380  0.75870  0.19830  Biso   1.000  H
  C42      1.0000 0.54320  0.74020  0.78240  Biso   1.000  C
  H64      1.0000 0.53440  0.69580  0.78380  Biso   1.000  H
  H65      1.0000 0.56850  0.74940  0.74600  Biso   1.000  H
  H66      1.0000 0.50430  0.76320  0.78000  Biso   1.000  H
  O53      1.0000 0.94090  0.06070  0.18580  Biso   1.000  O
  O54      1.0000 0.00200  0.93570  0.24870  Biso   1.000  O
  O55      1.0000 0.07740  0.10320  0.23100  Biso   1.000  O
  O56      1.0000 0.09360  0.06450  0.23100  Biso   1.000  O
  O57      1.0000 0.83700  0.92500  0.25990  Biso   1.000  O
  O58      1.0000 0.86260  0.89880  0.27110  Biso   1.000  O
  O59      1.0000 0.12750  0.10780  0.20210  Biso   1.000  O
  O60      1.0000 0.15800  0.05930  0.20760  Biso   1.000  O
  Bi4      1.0000 0.77771  0.07742  0.47226  Biso   1.000  Bi
  Na7      1.0000 0.58647  0.05035  0.67521  Biso   1.000  Na
  Na8      1.0000 0.50812  0.95445  0.78580  Biso   1.000  Na
  O61      1.0000 0.67680  0.24180  0.63850  Biso   1.000  O
  O62      1.0000 0.92370  0.24200  0.33770  Biso   1.000  O
  O63      1.0000 0.74270  0.10160  0.56750  Biso   1.000  O
  O64      1.0000 0.82660  0.10880  0.38160  Biso   1.000  O
  O65      1.0000 0.71820  0.15990  0.45490  Biso   1.000  O
  O66      1.0000 0.84600  0.14620  0.50240  Biso   1.000  O
  O67      1.0000 0.58560  0.15960  0.45480  Biso   1.000  O
  O68      1.0000 0.97330  0.12280  0.51960  Biso   1.000  O
  O69      1.0000 0.61900  0.14970  0.62470  Biso   1.000  O
  O70      1.0000 0.96490  0.14040  0.34680  Biso   1.000  O
  O71      1.0000 0.52050  0.07250  0.58620  Biso   1.000  O
  H67      1.0000 0.52020  0.05580  0.55550  Biso   1.000  H
  O72      1.0000 0.04820  0.04680  0.38420  Biso   1.000  O
  H68      1.0000 0.03550  0.03090  0.41250  Biso   1.000  H
  C43      1.0000 0.68030  0.17620  0.62860  Biso   1.000  C
  H69      1.0000 0.70130  0.15770  0.66410  Biso   1.000  H
  C44      1.0000 0.90900  0.17700  0.33890  Biso   1.000  C
  H70      1.0000 0.89050  0.16610  0.29910  Biso   1.000  H
  C45      1.0000 0.72140  0.16510  0.57020  Biso   1.000  C
  H71      1.0000 0.75720  0.19270  0.57190  Biso   1.000  H
  C46      1.0000 0.85920  0.16610  0.39080  Biso   1.000  C
  H72      1.0000 0.82930  0.20000  0.38930  Biso   1.000  H
  C47      1.0000 0.68380  0.17920  0.51000  Biso   1.000  C
  H73      1.0000 0.67670  0.22380  0.50760  Biso   1.000  H
  C48      1.0000 0.89010  0.16560  0.45570  Biso   1.000  C
  H74      1.0000 0.90340  0.20780  0.46540  Biso   1.000  H
  C49      1.0000 0.61960  0.14580  0.51090  Biso   1.000  C
  H75      1.0000 0.62640  0.10110  0.51320  Biso   1.000  H
  C50      1.0000 0.94770  0.12280  0.45730  Biso   1.000  C
  H76      1.0000 0.93510  0.08080  0.44650  Biso   1.000  H
  C51      1.0000 0.58350  0.16680  0.56900  Biso   1.000  C
  H77      1.0000 0.57910  0.21180  0.56780  Biso   1.000  H
  C52      1.0000 0.99460  0.14650  0.40840  Biso   1.000  C
  H78      1.0000 0.00390  0.19010  0.41630  Biso   1.000  H
  C53      1.0000 0.51840  0.13760  0.57580  Biso   1.000  C
  H79      1.0000 0.49700  0.15730  0.61040  Biso   1.000  H
  H80      1.0000 0.49460  0.14570  0.53830  Biso   1.000  H
  C54      1.0000 0.05570  0.10970  0.40460  Biso   1.000  C
  H81      1.0000 0.08370  0.13100  0.37620  Biso   1.000  H
  H82      1.0000 0.07510  0.10950  0.44540  Biso   1.000  H
  C55      1.0000 0.64840  0.25770  0.69710  Biso   1.000  C
  H83      1.0000 0.64720  0.30260  0.70160  Biso   1.000  H
  H84      1.0000 0.67250  0.23980  0.73090  Biso   1.000  H
  H85      1.0000 0.60620  0.24130  0.69830  Biso   1.000  H
  C56      1.0000 0.95680  0.25980  0.28240  Biso   1.000  C
  H86      1.0000 0.96560  0.30420  0.28380  Biso   1.000  H
  H87      1.0000 0.93150  0.25060  0.24600  Biso   1.000  H
  H88      1.0000 0.99570  0.23680  0.28000  Biso   1.000  H
  O73      1.0000 0.55910  0.93930  0.68580  Biso   1.000  O
  O74      1.0000 0.49800  0.06430  0.74870  Biso   1.000  O
  O75      1.0000 0.42260  0.89680  0.73100  Biso   1.000  O
  O76      1.0000 0.40640  0.93550  0.73100  Biso   1.000  O
  O77      1.0000 0.66300  0.07500  0.75990  Biso   1.000  O
  O78      1.0000 0.63740  0.10120  0.77110  Biso   1.000  O
  O79      1.0000 0.37250  0.89220  0.70210  Biso   1.000  O
  O80      1.0000 0.34200  0.94070  0.70760  Biso   1.000  O
  Bi5      1.0000 0.52774  0.27771  0.42258  Biso   1.000  Bi
  Na9      1.0000 0.32479  0.08647  0.44965  Biso   1.000  Na
  Na10     1.0000 0.21420  0.00812  0.54555  Biso   1.000  Na
  O81      1.0000 0.36150  0.17680  0.25820  Biso   1.000  O
  O82      1.0000 0.66230  0.42370  0.25800  Biso   1.000  O
  O83      1.0000 0.43250  0.24270  0.39840  Biso   1.000  O
  O84      1.0000 0.61840  0.32660  0.39120  Biso   1.000  O
  O85      1.0000 0.54510  0.21820  0.34010  Biso   1.000  O
  O86      1.0000 0.49760  0.34600  0.35380  Biso   1.000  O
  O87      1.0000 0.54520  0.08560  0.34040  Biso   1.000  O
  O88      1.0000 0.48040  0.47330  0.37720  Biso   1.000  O
  O89      1.0000 0.37530  0.11900  0.35030  Biso   1.000  O
  O90      1.0000 0.65320  0.46490  0.35960  Biso   1.000  O
  O91      1.0000 0.41380  0.02050  0.42750  Biso   1.000  O
  H89      1.0000 0.44450  0.02020  0.44420  Biso   1.000  H
  O92      1.0000 0.61580  0.54820  0.45320  Biso   1.000  O
  H90      1.0000 0.58750  0.53550  0.46910  Biso   1.000  H
  C57      1.0000 0.37140  0.18030  0.32380  Biso   1.000  C
  H91      1.0000 0.33590  0.20130  0.34230  Biso   1.000  H
  C58      1.0000 0.66110  0.40900  0.32300  Biso   1.000  C
  H92      1.0000 0.70090  0.39050  0.33390  Biso   1.000  H
  C59      1.0000 0.42980  0.22140  0.33490  Biso   1.000  C
  H93      1.0000 0.42810  0.25720  0.30730  Biso   1.000  H
  C60      1.0000 0.60920  0.35920  0.33390  Biso   1.000  C
  H94      1.0000 0.61070  0.32930  0.30000  Biso   1.000  H
  C61      1.0000 0.49000  0.18380  0.32080  Biso   1.000  C
  H95      1.0000 0.49240  0.17670  0.27620  Biso   1.000  H
  C62      1.0000 0.54430  0.39010  0.33440  Biso   1.000  C
  H96      1.0000 0.53460  0.40340  0.29220  Biso   1.000  H
  C63      1.0000 0.48910  0.11960  0.35420  Biso   1.000  C
  H97      1.0000 0.48680  0.12640  0.39890  Biso   1.000  H
  C64      1.0000 0.54270  0.44770  0.37720  Biso   1.000  C
  H98      1.0000 0.55350  0.43510  0.41920  Biso   1.000  H
  C65      1.0000 0.43100  0.08350  0.33320  Biso   1.000  C
  H99      1.0000 0.43220  0.07910  0.28820  Biso   1.000  H
  C66      1.0000 0.59160  0.49460  0.35350  Biso   1.000  C
  H100     1.0000 0.58370  0.50390  0.30990  Biso   1.000  H
  C67      1.0000 0.42420  0.01840  0.36240  Biso   1.000  C
  H101     1.0000 0.38960  0.99700  0.34270  Biso   1.000  H
  H102     1.0000 0.46170  0.99460  0.35430  Biso   1.000  H
  C68      1.0000 0.59540  0.55570  0.39030  Biso   1.000  C
  H103     1.0000 0.62380  0.58370  0.36900  Biso   1.000  H
  H104     1.0000 0.55460  0.57510  0.39050  Biso   1.000  H
  C69      1.0000 0.30290  0.14840  0.24230  Biso   1.000  C
  H105     1.0000 0.29840  0.14720  0.19740  Biso   1.000  H
  H106     1.0000 0.26910  0.17250  0.26020  Biso   1.000  H
  H107     1.0000 0.30170  0.10620  0.25870  Biso   1.000  H
  C70      1.0000 0.71760  0.45680  0.24020  Biso   1.000  C
  H108     1.0000 0.71620  0.46560  0.19580  Biso   1.000  H
  H109     1.0000 0.75400  0.43150  0.24940  Biso   1.000  H
  H110     1.0000 0.72000  0.49570  0.26320  Biso   1.000  H
  O93      1.0000 0.31420  0.05910  0.56070  Biso   1.000  O
  O94      1.0000 0.25130  0.99800  0.43570  Biso   1.000  O
  O95      1.0000 0.26900  0.92260  0.60320  Biso   1.000  O
  O96      1.0000 0.26900  0.90640  0.56450  Biso   1.000  O
  O97      1.0000 0.24010  0.16300  0.42500  Biso   1.000  O
  O98      1.0000 0.22890  0.13740  0.39880  Biso   1.000  O
  O99      1.0000 0.29790  0.87250  0.60780  Biso   1.000  O
  O100     1.0000 0.29240  0.84200  0.55930  Biso   1.000  O
  Bi6      1.0000 0.02774  0.22229  0.57742  Biso   1.000  Bi
  Na11     1.0000 0.82479  0.41353  0.55035  Biso   1.000  Na
  Na12     1.0000 0.71420  0.49188  0.45445  Biso   1.000  Na
  O101     1.0000 0.86150  0.32320  0.74180  Biso   1.000  O
  O102     1.0000 0.16230  0.07630  0.74200  Biso   1.000  O
  O103     1.0000 0.93250  0.25730  0.60160  Biso   1.000  O
  O104     1.0000 0.11840  0.17340  0.60880  Biso   1.000  O
  O105     1.0000 0.04510  0.28180  0.65990  Biso   1.000  O
  O106     1.0000 0.99760  0.15400  0.64620  Biso   1.000  O
  O107     1.0000 0.04520  0.41440  0.65960  Biso   1.000  O
  O108     1.0000 0.98040  0.02670  0.62280  Biso   1.000  O
  O109     1.0000 0.87530  0.38100  0.64970  Biso   1.000  O
  O110     1.0000 0.15320  0.03510  0.64040  Biso   1.000  O
  O111     1.0000 0.91380  0.47950  0.57250  Biso   1.000  O
  H111     1.0000 0.94450  0.47980  0.55580  Biso   1.000  H
  O112     1.0000 0.11580  0.95180  0.54680  Biso   1.000  O
  H112     1.0000 0.08750  0.96450  0.53090  Biso   1.000  H
  C71      1.0000 0.87140  0.31970  0.67620  Biso   1.000  C
  H113     1.0000 0.83590  0.29870  0.65770  Biso   1.000  H
  C72      1.0000 0.16110  0.09100  0.67700  Biso   1.000  C
  H114     1.0000 0.20090  0.10950  0.66610  Biso   1.000  H
  C73      1.0000 0.92980  0.27860  0.66510  Biso   1.000  C
  H115     1.0000 0.92810  0.24280  0.69270  Biso   1.000  H
  C74      1.0000 0.10920  0.14080  0.66610  Biso   1.000  C
  H116     1.0000 0.11070  0.17070  0.70000  Biso   1.000  H
  C75      1.0000 0.99000  0.31620  0.67920  Biso   1.000  C
  H117     1.0000 0.99240  0.32330  0.72380  Biso   1.000  H
  C76      1.0000 0.04430  0.10990  0.66560  Biso   1.000  C
  H118     1.0000 0.03460  0.09660  0.70780  Biso   1.000  H
  C77      1.0000 0.98910  0.38040  0.64580  Biso   1.000  C
  H119     1.0000 0.98680  0.37360  0.60110  Biso   1.000  H
  C78      1.0000 0.04270  0.05230  0.62280  Biso   1.000  C
  H120     1.0000 0.05350  0.06490  0.58080  Biso   1.000  H
  C79      1.0000 0.93100  0.41650  0.66680  Biso   1.000  C
  H121     1.0000 0.93220  0.42090  0.71180  Biso   1.000  H
  C80      1.0000 0.09160  0.00540  0.64650  Biso   1.000  C
  H122     1.0000 0.08370  0.99610  0.69010  Biso   1.000  H
  C81      1.0000 0.92420  0.48160  0.63760  Biso   1.000  C
  H123     1.0000 0.88960  0.50300  0.65730  Biso   1.000  H
  H124     1.0000 0.96170  0.50540  0.64570  Biso   1.000  H
  C82      1.0000 0.09540  0.94430  0.60970  Biso   1.000  C
  H125     1.0000 0.12380  0.91630  0.63100  Biso   1.000  H
  H126     1.0000 0.05460  0.92490  0.60950  Biso   1.000  H
  C83      1.0000 0.80290  0.35160  0.75770  Biso   1.000  C
  H127     1.0000 0.79840  0.35280  0.80260  Biso   1.000  H
  H128     1.0000 0.76910  0.32750  0.73980  Biso   1.000  H
  H129     1.0000 0.80170  0.39380  0.74130  Biso   1.000  H
  C84      1.0000 0.21760  0.04320  0.75980  Biso   1.000  C
  H130     1.0000 0.21620  0.03440  0.80420  Biso   1.000  H
  H131     1.0000 0.25400  0.06850  0.75060  Biso   1.000  H
  H132     1.0000 0.22000  0.00430  0.73680  Biso   1.000  H
  O113     1.0000 0.81420  0.44090  0.43930  Biso   1.000  O
  O114     1.0000 0.75130  0.50200  0.56430  Biso   1.000  O
  O115     1.0000 0.76900  0.57740  0.39680  Biso   1.000  O
  O116     1.0000 0.76900  0.59360  0.43550  Biso   1.000  O
  O117     1.0000 0.74010  0.33700  0.57500  Biso   1.000  O
  O118     1.0000 0.72890  0.36260  0.60120  Biso   1.000  O
  O119     1.0000 0.79790  0.62750  0.39220  Biso   1.000  O
  O120     1.0000 0.79240  0.65800  0.44070  Biso   1.000  O
  Bi7      1.0000 0.97226  0.72229  0.92258  Biso   1.000  Bi
  Na13     1.0000 0.17521  0.91353  0.94965  Biso   1.000  Na
  Na14     1.0000 0.28580  0.99188  0.04555  Biso   1.000  Na
  O121     1.0000 0.13850  0.82320  0.75820  Biso   1.000  O
  O122     1.0000 0.83770  0.57630  0.75800  Biso   1.000  O
  O123     1.0000 0.06750  0.75730  0.89840  Biso   1.000  O
  O124     1.0000 0.88160  0.67340  0.89120  Biso   1.000  O
  O125     1.0000 0.95490  0.78180  0.84010  Biso   1.000  O
  O126     1.0000 0.00240  0.65400  0.85380  Biso   1.000  O
  O127     1.0000 0.95480  0.91440  0.84040  Biso   1.000  O
  O128     1.0000 0.01960  0.52670  0.87720  Biso   1.000  O
  O129     1.0000 0.12470  0.88100  0.85030  Biso   1.000  O
  O130     1.0000 0.84680  0.53510  0.85960  Biso   1.000  O
  O131     1.0000 0.08620  0.97950  0.92750  Biso   1.000  O
  H133     1.0000 0.05550  0.97980  0.94420  Biso   1.000  H
  O132     1.0000 0.88420  0.45180  0.95320  Biso   1.000  O
  H134     1.0000 0.91250  0.46450  0.96910  Biso   1.000  H
  C85      1.0000 0.12860  0.81970  0.82380  Biso   1.000  C
  H135     1.0000 0.16410  0.79870  0.84230  Biso   1.000  H
  C86      1.0000 0.83890  0.59100  0.82300  Biso   1.000  C
  H136     1.0000 0.79910  0.60950  0.83390  Biso   1.000  H
  C87      1.0000 0.07020  0.77860  0.83490  Biso   1.000  C
  H137     1.0000 0.07190  0.74280  0.80730  Biso   1.000  H
  C88      1.0000 0.89080  0.64080  0.83390  Biso   1.000  C
  H138     1.0000 0.88930  0.67070  0.80000  Biso   1.000  H
  C89      1.0000 0.01000  0.81620  0.82080  Biso   1.000  C
  H139     1.0000 0.00760  0.82330  0.77620  Biso   1.000  H
  C90      1.0000 0.95570  0.60990  0.83440  Biso   1.000  C
  H140     1.0000 0.96540  0.59660  0.79220  Biso   1.000  H
  C91      1.0000 0.01090  0.88040  0.85420  Biso   1.000  C
  H141     1.0000 0.01320  0.87360  0.89890  Biso   1.000  H
  C92      1.0000 0.95730  0.55230  0.87720  Biso   1.000  C
  H142     1.0000 0.94650  0.56490  0.91920  Biso   1.000  H
  C93      1.0000 0.06900  0.91650  0.83320  Biso   1.000  C
  H143     1.0000 0.06780  0.92090  0.78820  Biso   1.000  H
  C94      1.0000 0.90840  0.50540  0.85350  Biso   1.000  C
  H144     1.0000 0.91630  0.49610  0.80990  Biso   1.000  H
  C95      1.0000 0.07580  0.98160  0.86240  Biso   1.000  C
  H145     1.0000 0.11040  0.00300  0.84270  Biso   1.000  H
  H146     1.0000 0.03830  0.00540  0.85430  Biso   1.000  H
  C96      1.0000 0.90460  0.44430  0.89030  Biso   1.000  C
  H147     1.0000 0.87620  0.41630  0.86900  Biso   1.000  H
  H148     1.0000 0.94540  0.42490  0.89050  Biso   1.000  H
  C97      1.0000 0.19710  0.85160  0.74230  Biso   1.000  C
  H149     1.0000 0.20160  0.85280  0.69740  Biso   1.000  H
  H150     1.0000 0.23090  0.82750  0.76020  Biso   1.000  H
  H151     1.0000 0.19830  0.89380  0.75870  Biso   1.000  H
  C98      1.0000 0.78240  0.54320  0.74020  Biso   1.000  C
  H152     1.0000 0.78380  0.53440  0.69580  Biso   1.000  H
  H153     1.0000 0.74600  0.56850  0.74940  Biso   1.000  H
  H154     1.0000 0.78000  0.50430  0.76320  Biso   1.000  H
  O133     1.0000 0.18580  0.94090  0.06070  Biso   1.000  O
  O134     1.0000 0.24870  0.00200  0.93570  Biso   1.000  O
  O135     1.0000 0.23100  0.07740  0.10320  Biso   1.000  O
  O136     1.0000 0.23100  0.09360  0.06450  Biso   1.000  O
  O137     1.0000 0.25990  0.83700  0.92500  Biso   1.000  O
  O138     1.0000 0.27110  0.86260  0.89880  Biso   1.000  O
  O139     1.0000 0.20210  0.12750  0.10780  Biso   1.000  O
  O140     1.0000 0.20760  0.15800  0.05930  Biso   1.000  O
  Bi8      1.0000 0.47226  0.77771  0.07742  Biso   1.000  Bi
  Na15     1.0000 0.67521  0.58647  0.05035  Biso   1.000  Na
  Na16     1.0000 0.78580  0.50812  0.95445  Biso   1.000  Na
  O141     1.0000 0.63850  0.67680  0.24180  Biso   1.000  O
  O142     1.0000 0.33770  0.92370  0.24200  Biso   1.000  O
  O143     1.0000 0.56750  0.74270  0.10160  Biso   1.000  O
  O144     1.0000 0.38160  0.82660  0.10880  Biso   1.000  O
  O145     1.0000 0.45490  0.71820  0.15990  Biso   1.000  O
  O146     1.0000 0.50240  0.84600  0.14620  Biso   1.000  O
  O147     1.0000 0.45480  0.58560  0.15960  Biso   1.000  O
  O148     1.0000 0.51960  0.97330  0.12280  Biso   1.000  O
  O149     1.0000 0.62470  0.61900  0.14970  Biso   1.000  O
  O150     1.0000 0.34680  0.96490  0.14040  Biso   1.000  O
  O151     1.0000 0.58620  0.52050  0.07250  Biso   1.000  O
  H155     1.0000 0.55550  0.52020  0.05580  Biso   1.000  H
  O152     1.0000 0.38420  0.04820  0.04680  Biso   1.000  O
  H156     1.0000 0.41250  0.03550  0.03090  Biso   1.000  H
  C99      1.0000 0.62860  0.68030  0.17620  Biso   1.000  C
  H157     1.0000 0.66410  0.70130  0.15770  Biso   1.000  H
  C100     1.0000 0.33890  0.90900  0.17700  Biso   1.000  C
  H158     1.0000 0.29910  0.89050  0.16610  Biso   1.000  H
  C101     1.0000 0.57020  0.72140  0.16510  Biso   1.000  C
  H159     1.0000 0.57190  0.75720  0.19270  Biso   1.000  H
  C102     1.0000 0.39080  0.85920  0.16610  Biso   1.000  C
  H160     1.0000 0.38930  0.82930  0.20000  Biso   1.000  H
  C103     1.0000 0.51000  0.68380  0.17920  Biso   1.000  C
  H161     1.0000 0.50760  0.67670  0.22380  Biso   1.000  H
  C104     1.0000 0.45570  0.89010  0.16560  Biso   1.000  C
  H162     1.0000 0.46540  0.90340  0.20780  Biso   1.000  H
  C105     1.0000 0.51090  0.61960  0.14580  Biso   1.000  C
  H163     1.0000 0.51320  0.62640  0.10110  Biso   1.000  H
  C106     1.0000 0.45730  0.94770  0.12280  Biso   1.000  C
  H164     1.0000 0.44650  0.93510  0.08080  Biso   1.000  H
  C107     1.0000 0.56900  0.58350  0.16680  Biso   1.000  C
  H165     1.0000 0.56780  0.57910  0.21180  Biso   1.000  H
  C108     1.0000 0.40840  0.99460  0.14650  Biso   1.000  C
  H166     1.0000 0.41630  0.00390  0.19010  Biso   1.000  H
  C109     1.0000 0.57580  0.51840  0.13760  Biso   1.000  C
  H167     1.0000 0.61040  0.49700  0.15730  Biso   1.000  H
  H168     1.0000 0.53830  0.49460  0.14570  Biso   1.000  H
  C110     1.0000 0.40460  0.05570  0.10970  Biso   1.000  C
  H169     1.0000 0.37620  0.08370  0.13100  Biso   1.000  H
  H170     1.0000 0.44540  0.07510  0.10950  Biso   1.000  H
  C111     1.0000 0.69710  0.64840  0.25770  Biso   1.000  C
  H171     1.0000 0.70160  0.64720  0.30260  Biso   1.000  H
  H172     1.0000 0.73090  0.67250  0.23980  Biso   1.000  H
  H173     1.0000 0.69830  0.60620  0.24130  Biso   1.000  H
  C112     1.0000 0.28240  0.95680  0.25980  Biso   1.000  C
  H174     1.0000 0.28380  0.96560  0.30420  Biso   1.000  H
  H175     1.0000 0.24600  0.93150  0.25060  Biso   1.000  H
  H176     1.0000 0.28000  0.99570  0.23680  Biso   1.000  H
  O153     1.0000 0.68580  0.55910  0.93930  Biso   1.000  O
  O154     1.0000 0.74870  0.49800  0.06430  Biso   1.000  O
  O155     1.0000 0.73100  0.42260  0.89680  Biso   1.000  O
  O156     1.0000 0.73100  0.40640  0.93550  Biso   1.000  O
  O157     1.0000 0.75990  0.66300  0.07500  Biso   1.000  O
  O158     1.0000 0.77110  0.63740  0.10120  Biso   1.000  O
  O159     1.0000 0.70210  0.37250  0.89220  Biso   1.000  O
  O160     1.0000 0.70760  0.34200  0.94070  Biso   1.000  O
  Bi9      1.0000 0.42258  0.52774  0.27771  Biso   1.000  Bi
  Na17     1.0000 0.44965  0.32479  0.08647  Biso   1.000  Na
  Na18     1.0000 0.54555  0.21420  0.00812  Biso   1.000  Na
  O161     1.0000 0.25820  0.36150  0.17680  Biso   1.000  O
  O162     1.0000 0.25800  0.66230  0.42370  Biso   1.000  O
  O163     1.0000 0.39840  0.43250  0.24270  Biso   1.000  O
  O164     1.0000 0.39120  0.61840  0.32660  Biso   1.000  O
  O165     1.0000 0.34010  0.54510  0.21820  Biso   1.000  O
  O166     1.0000 0.35380  0.49760  0.34600  Biso   1.000  O
  O167     1.0000 0.34040  0.54520  0.08560  Biso   1.000  O
  O168     1.0000 0.37720  0.48040  0.47330  Biso   1.000  O
  O169     1.0000 0.35030  0.37530  0.11900  Biso   1.000  O
  O170     1.0000 0.35960  0.65320  0.46490  Biso   1.000  O
  O171     1.0000 0.42750  0.41380  0.02050  Biso   1.000  O
  H177     1.0000 0.44420  0.44450  0.02020  Biso   1.000  H
  O172     1.0000 0.45320  0.61580  0.54820  Biso   1.000  O
  H178     1.0000 0.46910  0.58750  0.53550  Biso   1.000  H
  C113     1.0000 0.32380  0.37140  0.18030  Biso   1.000  C
  H179     1.0000 0.34230  0.33590  0.20130  Biso   1.000  H
  C114     1.0000 0.32300  0.66110  0.40900  Biso   1.000  C
  H180     1.0000 0.33390  0.70090  0.39050  Biso   1.000  H
  C115     1.0000 0.33490  0.42980  0.22140  Biso   1.000  C
  H181     1.0000 0.30730  0.42810  0.25720  Biso   1.000  H
  C116     1.0000 0.33390  0.60920  0.35920  Biso   1.000  C
  H182     1.0000 0.30000  0.61070  0.32930  Biso   1.000  H
  C117     1.0000 0.32080  0.49000  0.18380  Biso   1.000  C
  H183     1.0000 0.27620  0.49240  0.17670  Biso   1.000  H
  C118     1.0000 0.33440  0.54430  0.39010  Biso   1.000  C
  H184     1.0000 0.29220  0.53460  0.40340  Biso   1.000  H
  C119     1.0000 0.35420  0.48910  0.11960  Biso   1.000  C
  H185     1.0000 0.39890  0.48680  0.12640  Biso   1.000  H
  C120     1.0000 0.37720  0.54270  0.44770  Biso   1.000  C
  H186     1.0000 0.41920  0.55350  0.43510  Biso   1.000  H
  C121     1.0000 0.33320  0.43100  0.08350  Biso   1.000  C
  H187     1.0000 0.28820  0.43220  0.07910  Biso   1.000  H
  C122     1.0000 0.35350  0.59160  0.49460  Biso   1.000  C
  H188     1.0000 0.30990  0.58370  0.50390  Biso   1.000  H
  C123     1.0000 0.36240  0.42420  0.01840  Biso   1.000  C
  H189     1.0000 0.34270  0.38960  0.99700  Biso   1.000  H
  H190     1.0000 0.35430  0.46170  0.99460  Biso   1.000  H
  C124     1.0000 0.39030  0.59540  0.55570  Biso   1.000  C
  H191     1.0000 0.36900  0.62380  0.58370  Biso   1.000  H
  H192     1.0000 0.39050  0.55460  0.57510  Biso   1.000  H
  C125     1.0000 0.24230  0.30290  0.14840  Biso   1.000  C
  H193     1.0000 0.19740  0.29840  0.14720  Biso   1.000  H
  H194     1.0000 0.26020  0.26910  0.17250  Biso   1.000  H
  H195     1.0000 0.25870  0.30170  0.10620  Biso   1.000  H
  C126     1.0000 0.24020  0.71760  0.45680  Biso   1.000  C
  H196     1.0000 0.19580  0.71620  0.46560  Biso   1.000  H
  H197     1.0000 0.24940  0.75400  0.43150  Biso   1.000  H
  H198     1.0000 0.26320  0.72000  0.49570  Biso   1.000  H
  O173     1.0000 0.56070  0.31420  0.05910  Biso   1.000  O
  O174     1.0000 0.43570  0.25130  0.99800  Biso   1.000  O
  O175     1.0000 0.60320  0.26900  0.92260  Biso   1.000  O
  O176     1.0000 0.56450  0.26900  0.90640  Biso   1.000  O
  O177     1.0000 0.42500  0.24010  0.16300  Biso   1.000  O
  O178     1.0000 0.39880  0.22890  0.13740  Biso   1.000  O
  O179     1.0000 0.60780  0.29790  0.87250  Biso   1.000  O
  O180     1.0000 0.55930  0.29240  0.84200  Biso   1.000  O
  Bi10     1.0000 0.57742  0.02774  0.22229  Biso   1.000  Bi
  Na19     1.0000 0.55035  0.82479  0.41353  Biso   1.000  Na
  Na20     1.0000 0.45445  0.71420  0.49188  Biso   1.000  Na
  O181     1.0000 0.74180  0.86150  0.32320  Biso   1.000  O
  O182     1.0000 0.74200  0.16230  0.07630  Biso   1.000  O
  O183     1.0000 0.60160  0.93250  0.25730  Biso   1.000  O
  O184     1.0000 0.60880  0.11840  0.17340  Biso   1.000  O
  O185     1.0000 0.65990  0.04510  0.28180  Biso   1.000  O
  O186     1.0000 0.64620  0.99760  0.15400  Biso   1.000  O
  O187     1.0000 0.65960  0.04520  0.41440  Biso   1.000  O
  O188     1.0000 0.62280  0.98040  0.02670  Biso   1.000  O
  O189     1.0000 0.64970  0.87530  0.38100  Biso   1.000  O
  O190     1.0000 0.64040  0.15320  0.03510  Biso   1.000  O
  O191     1.0000 0.57250  0.91380  0.47950  Biso   1.000  O
  H199     1.0000 0.55580  0.94450  0.47980  Biso   1.000  H
  O192     1.0000 0.54680  0.11580  0.95180  Biso   1.000  O
  H200     1.0000 0.53090  0.08750  0.96450  Biso   1.000  H
  C127     1.0000 0.67620  0.87140  0.31970  Biso   1.000  C
  H201     1.0000 0.65770  0.83590  0.29870  Biso   1.000  H
  C128     1.0000 0.67700  0.16110  0.09100  Biso   1.000  C
  H202     1.0000 0.66610  0.20090  0.10950  Biso   1.000  H
  C129     1.0000 0.66510  0.92980  0.27860  Biso   1.000  C
  H203     1.0000 0.69270  0.92810  0.24280  Biso   1.000  H
  C130     1.0000 0.66610  0.10920  0.14080  Biso   1.000  C
  H204     1.0000 0.70000  0.11070  0.17070  Biso   1.000  H
  C131     1.0000 0.67920  0.99000  0.31620  Biso   1.000  C
  H205     1.0000 0.72380  0.99240  0.32330  Biso   1.000  H
  C132     1.0000 0.66560  0.04430  0.10990  Biso   1.000  C
  H206     1.0000 0.70780  0.03460  0.09660  Biso   1.000  H
  C133     1.0000 0.64580  0.98910  0.38040  Biso   1.000  C
  H207     1.0000 0.60110  0.98680  0.37360  Biso   1.000  H
  C134     1.0000 0.62280  0.04270  0.05230  Biso   1.000  C
  H208     1.0000 0.58080  0.05350  0.06490  Biso   1.000  H
  C135     1.0000 0.66680  0.93100  0.41650  Biso   1.000  C
  H209     1.0000 0.71180  0.93220  0.42090  Biso   1.000  H
  C136     1.0000 0.64650  0.09160  0.00540  Biso   1.000  C
  H210     1.0000 0.69010  0.08370  0.99610  Biso   1.000  H
  C137     1.0000 0.63760  0.92420  0.48160  Biso   1.000  C
  H211     1.0000 0.65730  0.88960  0.50300  Biso   1.000  H
  H212     1.0000 0.64570  0.96170  0.50540  Biso   1.000  H
  C138     1.0000 0.60970  0.09540  0.94430  Biso   1.000  C
  H213     1.0000 0.63100  0.12380  0.91630  Biso   1.000  H
  H214     1.0000 0.60950  0.05460  0.92490  Biso   1.000  H
  C139     1.0000 0.75770  0.80290  0.35160  Biso   1.000  C
  H215     1.0000 0.80260  0.79840  0.35280  Biso   1.000  H
  H216     1.0000 0.73980  0.76910  0.32750  Biso   1.000  H
  H217     1.0000 0.74130  0.80170  0.39380  Biso   1.000  H
  C140     1.0000 0.75980  0.21760  0.04320  Biso   1.000  C
  H218     1.0000 0.80420  0.21620  0.03440  Biso   1.000  H
  H219     1.0000 0.75060  0.25400  0.06850  Biso   1.000  H
  H220     1.0000 0.73680  0.22000  0.00430  Biso   1.000  H
  O193     1.0000 0.43930  0.81420  0.44090  Biso   1.000  O
  O194     1.0000 0.56430  0.75130  0.50200  Biso   1.000  O
  O195     1.0000 0.39680  0.76900  0.57740  Biso   1.000  O
  O196     1.0000 0.43550  0.76900  0.59360  Biso   1.000  O
  O197     1.0000 0.57500  0.74010  0.33700  Biso   1.000  O
  O198     1.0000 0.60120  0.72890  0.36260  Biso   1.000  O
  O199     1.0000 0.39220  0.79790  0.62750  Biso   1.000  O
  O200     1.0000 0.44070  0.79240  0.65800  Biso   1.000  O
  Bi11     1.0000 0.92258  0.97226  0.72229  Biso   1.000  Bi
  Na21     1.0000 0.94965  0.17521  0.91353  Biso   1.000  Na
  Na22     1.0000 0.04555  0.28580  0.99188  Biso   1.000  Na
  O201     1.0000 0.75820  0.13850  0.82320  Biso   1.000  O
  O202     1.0000 0.75800  0.83770  0.57630  Biso   1.000  O
  O203     1.0000 0.89840  0.06750  0.75730  Biso   1.000  O
  O204     1.0000 0.89120  0.88160  0.67340  Biso   1.000  O
  O205     1.0000 0.84010  0.95490  0.78180  Biso   1.000  O
  O206     1.0000 0.85380  0.00240  0.65400  Biso   1.000  O
  O207     1.0000 0.84040  0.95480  0.91440  Biso   1.000  O
  O208     1.0000 0.87720  0.01960  0.52670  Biso   1.000  O
  O209     1.0000 0.85030  0.12470  0.88100  Biso   1.000  O
  O210     1.0000 0.85960  0.84680  0.53510  Biso   1.000  O
  O211     1.0000 0.92750  0.08620  0.97950  Biso   1.000  O
  H221     1.0000 0.94420  0.05550  0.97980  Biso   1.000  H
  O212     1.0000 0.95320  0.88420  0.45180  Biso   1.000  O
  H222     1.0000 0.96910  0.91250  0.46450  Biso   1.000  H
  C141     1.0000 0.82380  0.12860  0.81970  Biso   1.000  C
  H223     1.0000 0.84230  0.16410  0.79870  Biso   1.000  H
  C142     1.0000 0.82300  0.83890  0.59100  Biso   1.000  C
  H224     1.0000 0.83390  0.79910  0.60950  Biso   1.000  H
  C143     1.0000 0.83490  0.07020  0.77860  Biso   1.000  C
  H225     1.0000 0.80730  0.07190  0.74280  Biso   1.000  H
  C144     1.0000 0.83390  0.89080  0.64080  Biso   1.000  C
  H226     1.0000 0.80000  0.88930  0.67070  Biso   1.000  H
  C145     1.0000 0.82080  0.01000  0.81620  Biso   1.000  C
  H227     1.0000 0.77620  0.00760  0.82330  Biso   1.000  H
  C146     1.0000 0.83440  0.95570  0.60990  Biso   1.000  C
  H228     1.0000 0.79220  0.96540  0.59660  Biso   1.000  H
  C147     1.0000 0.85420  0.01090  0.88040  Biso   1.000  C
  H229     1.0000 0.89890  0.01320  0.87360  Biso   1.000  H
  C148     1.0000 0.87720  0.95730  0.55230  Biso   1.000  C
  H230     1.0000 0.91920  0.94650  0.56490  Biso   1.000  H
  C149     1.0000 0.83320  0.06900  0.91650  Biso   1.000  C
  H231     1.0000 0.78820  0.06780  0.92090  Biso   1.000  H
  C150     1.0000 0.85350  0.90840  0.50540  Biso   1.000  C
  H232     1.0000 0.80990  0.91630  0.49610  Biso   1.000  H
  C151     1.0000 0.86240  0.07580  0.98160  Biso   1.000  C
  H233     1.0000 0.84270  0.11040  0.00300  Biso   1.000  H
  H234     1.0000 0.85430  0.03830  0.00540  Biso   1.000  H
  C152     1.0000 0.89030  0.90460  0.44430  Biso   1.000  C
  H235     1.0000 0.86900  0.87620  0.41630  Biso   1.000  H
  H236     1.0000 0.89050  0.94540  0.42490  Biso   1.000  H
  C153     1.0000 0.74230  0.19710  0.85160  Biso   1.000  C
  H237     1.0000 0.69740  0.20160  0.85280  Biso   1.000  H
  H238     1.0000 0.76020  0.23090  0.82750  Biso   1.000  H
  H239     1.0000 0.75870  0.19830  0.89380  Biso   1.000  H
  C154     1.0000 0.74020  0.78240  0.54320  Biso   1.000  C
  H240     1.0000 0.69580  0.78380  0.53440  Biso   1.000  H
  H241     1.0000 0.74940  0.74600  0.56850  Biso   1.000  H
  H242     1.0000 0.76320  0.78000  0.50430  Biso   1.000  H
  O213     1.0000 0.06070  0.18580  0.94090  Biso   1.000  O
  O214     1.0000 0.93570  0.24870  0.00200  Biso   1.000  O
  O215     1.0000 0.10320  0.23100  0.07740  Biso   1.000  O
  O216     1.0000 0.06450  0.23100  0.09360  Biso   1.000  O
  O217     1.0000 0.92500  0.25990  0.83700  Biso   1.000  O
  O218     1.0000 0.89880  0.27110  0.86260  Biso   1.000  O
  O219     1.0000 0.10780  0.20210  0.12750  Biso   1.000  O
  O220     1.0000 0.05930  0.20760  0.15800  Biso   1.000  O
  Bi12     1.0000 0.07742  0.47226  0.77771  Biso   1.000  Bi
  Na23     1.0000 0.05035  0.67521  0.58647  Biso   1.000  Na
  Na24     1.0000 0.95445  0.78580  0.50812  Biso   1.000  Na
  O221     1.0000 0.24180  0.63850  0.67680  Biso   1.000  O
  O222     1.0000 0.24200  0.33770  0.92370  Biso   1.000  O
  O223     1.0000 0.10160  0.56750  0.74270  Biso   1.000  O
  O224     1.0000 0.10880  0.38160  0.82660  Biso   1.000  O
  O225     1.0000 0.15990  0.45490  0.71820  Biso   1.000  O
  O226     1.0000 0.14620  0.50240  0.84600  Biso   1.000  O
  O227     1.0000 0.15960  0.45480  0.58560  Biso   1.000  O
  O228     1.0000 0.12280  0.51960  0.97330  Biso   1.000  O
  O229     1.0000 0.14970  0.62470  0.61900  Biso   1.000  O
  O230     1.0000 0.14040  0.34680  0.96490  Biso   1.000  O
  O231     1.0000 0.07250  0.58620  0.52050  Biso   1.000  O
  H243     1.0000 0.05580  0.55550  0.52020  Biso   1.000  H
  O232     1.0000 0.04680  0.38420  0.04820  Biso   1.000  O
  H244     1.0000 0.03090  0.41250  0.03550  Biso   1.000  H
  C155     1.0000 0.17620  0.62860  0.68030  Biso   1.000  C
  H245     1.0000 0.15770  0.66410  0.70130  Biso   1.000  H
  C156     1.0000 0.17700  0.33890  0.90900  Biso   1.000  C
  H246     1.0000 0.16610  0.29910  0.89050  Biso   1.000  H
  C157     1.0000 0.16510  0.57020  0.72140  Biso   1.000  C
  H247     1.0000 0.19270  0.57190  0.75720  Biso   1.000  H
  C158     1.0000 0.16610  0.39080  0.85920  Biso   1.000  C
  H248     1.0000 0.20000  0.38930  0.82930  Biso   1.000  H
  C159     1.0000 0.17920  0.51000  0.68380  Biso   1.000  C
  H249     1.0000 0.22380  0.50760  0.67670  Biso   1.000  H
  C160     1.0000 0.16560  0.45570  0.89010  Biso   1.000  C
  H250     1.0000 0.20780  0.46540  0.90340  Biso   1.000  H
  C161     1.0000 0.14580  0.51090  0.61960  Biso   1.000  C
  H251     1.0000 0.10110  0.51320  0.62640  Biso   1.000  H
  C162     1.0000 0.12280  0.45730  0.94770  Biso   1.000  C
  H252     1.0000 0.08080  0.44650  0.93510  Biso   1.000  H
  C163     1.0000 0.16680  0.56900  0.58350  Biso   1.000  C
  H253     1.0000 0.21180  0.56780  0.57910  Biso   1.000  H
  C164     1.0000 0.14650  0.40840  0.99460  Biso   1.000  C
  H254     1.0000 0.19010  0.41630  0.00390  Biso   1.000  H
  C165     1.0000 0.13760  0.57580  0.51840  Biso   1.000  C
  H255     1.0000 0.15730  0.61040  0.49700  Biso   1.000  H
  H256     1.0000 0.14570  0.53830  0.49460  Biso   1.000  H
  C166     1.0000 0.10970  0.40460  0.05570  Biso   1.000  C
  H257     1.0000 0.13100  0.37620  0.08370  Biso   1.000  H
  H258     1.0000 0.10950  0.44540  0.07510  Biso   1.000  H
  C167     1.0000 0.25770  0.69710  0.64840  Biso   1.000  C
  H259     1.0000 0.30260  0.70160  0.64720  Biso   1.000  H
  H260     1.0000 0.23980  0.73090  0.67250  Biso   1.000  H
  H261     1.0000 0.24130  0.69830  0.60620  Biso   1.000  H
  C168     1.0000 0.25980  0.28240  0.95680  Biso   1.000  C
  H262     1.0000 0.30420  0.28380  0.96560  Biso   1.000  H
  H263     1.0000 0.25060  0.24600  0.93150  Biso   1.000  H
  H264     1.0000 0.23680  0.28000  0.99570  Biso   1.000  H
  O233     1.0000 0.93930  0.68580  0.55910  Biso   1.000  O
  O234     1.0000 0.06430  0.74870  0.49800  Biso   1.000  O
  O235     1.0000 0.89680  0.73100  0.42260  Biso   1.000  O
  O236     1.0000 0.93550  0.73100  0.40640  Biso   1.000  O
  O237     1.0000 0.07500  0.75990  0.66300  Biso   1.000  O
  O238     1.0000 0.10120  0.77110  0.63740  Biso   1.000  O
  O239     1.0000 0.89220  0.70210  0.37250  Biso   1.000  O
  O240     1.0000 0.94070  0.70760  0.34200  Biso   1.000  O
  Bi13     1.0000 0.13182  0.36818  0.63182  Biso   1.000  Bi
  Bi14     1.0000 0.36818  0.63182  0.13182  Biso   1.000  Bi
  Bi15     1.0000 0.86819  0.86819  0.86818  Biso   1.000  Bi
  Bi16     1.0000 0.63182  0.13182  0.36818  Biso   1.000  Bi
  Bi17     1.0000 0.40643  0.40643  0.40643  Biso   1.000  Bi
  O241     1.0000 0.15490  0.15490  0.15490  Biso   1.000  O
  Bi18     1.0000 0.09357  0.59357  0.90643  Biso   1.000  Bi
  O242     1.0000 0.34510  0.84510  0.65490  Biso   1.000  O
  Bi19     1.0000 0.59357  0.90643  0.09357  Biso   1.000  Bi
  O243     1.0000 0.84510  0.65490  0.34510  Biso   1.000  O
  Bi20     1.0000 0.90643  0.09357  0.59357  Biso   1.000  Bi
  O244     1.0000 0.65490  0.34510  0.84510  Biso   1.000  O
