data_image0
_cell_length_a       43.2392
_cell_length_b       43.2392
_cell_length_c       41.8921
_cell_angle_alpha    90
_cell_angle_beta     90
_cell_angle_gamma    120

_symmetry_space_group_name_H-M    "P 1"
_symmetry_int_tables_number       1

loop_
  _symmetry_equiv_pos_as_xyz
  'x, y, z'

loop_
  _atom_site_label
  _atom_site_occupancy
  _atom_site_fract_x
  _atom_site_fract_y
  _atom_site_fract_z
  _atom_site_thermal_displace_type
  _atom_site_B_iso_or_equiv
  _atom_site_type_symbol
  In1      1.0000 0.62728  0.09353  0.79099  Biso   1.000  In
  In2      1.0000 0.37506  0.90423  0.46729  Biso   1.000  In
  O1       1.0000 0.56780  0.05670  0.78890  Biso   1.000  O
  O2       1.0000 0.59520  0.08370  0.74490  Biso   1.000  O
  O3       1.0000 0.34890  0.90410  0.51490  Biso   1.000  O
  O4       1.0000 0.40700  0.93490  0.50920  Biso   1.000  O
  O5       1.0000 0.66930  0.11290  0.83030  Biso   1.000  O
  O6       1.0000 0.61450  0.07190  0.84120  Biso   1.000  O
  O7       1.0000 0.82430  0.27520  0.08070  Biso   1.000  O
  O8       1.0000 0.83770  0.24220  0.11010  Biso   1.000  O
  O9       1.0000 0.62280  0.92130  0.11480  Biso   1.000  O
  O10      1.0000 0.57220  0.90750  0.09110  Biso   1.000  O
  O11      1.0000 0.61230  0.13430  0.80790  Biso   1.000  O
  O12      1.0000 0.65810  0.15140  0.77560  Biso   1.000  O
  N1       1.0000 0.40320  0.99680  0.71490  Biso   1.000  N
  N2       1.0000 0.42810  0.98880  0.66770  Biso   1.000  N
  N3       1.0000 0.36750  0.97350  0.66920  Biso   1.000  N
  N4       1.0000 0.70610  0.12200  0.99460  Biso   1.000  N
  N5       1.0000 0.69860  0.09010  0.04240  Biso   1.000  N
  N6       1.0000 0.66160  0.06140  0.99790  Biso   1.000  N
  N7       1.0000 0.69510  0.32770  0.79260  Biso   1.000  N
  C1       1.0000 0.56700  0.06310  0.75910  Biso   1.000  C
  C2       1.0000 0.53170  0.04640  0.74350  Biso   1.000  C
  C3       1.0000 0.52930  0.04550  0.71090  Biso   1.000  C
  H1       1.0000 0.55040  0.05630  0.69830  Biso   1.000  H
  C4       1.0000 0.49610  0.02880  0.69610  Biso   1.000  C
  H2       1.0000 0.49470  0.02760  0.67340  Biso   1.000  H
  C5       1.0000 0.46580  0.01450  0.71340  Biso   1.000  C
  C6       1.0000 0.46730  0.01520  0.74640  Biso   1.000  C
  H3       1.0000 0.44610  0.00510  0.75880  Biso   1.000  H
  C7       1.0000 0.50110  0.03130  0.76120  Biso   1.000  C
  H4       1.0000 0.50270  0.03170  0.78380  Biso   1.000  H
  C8       1.0000 0.43050  0.99880  0.69780  Biso   1.000  C
  C9       1.0000 0.37260  0.98480  0.69960  Biso   1.000  C
  C10      1.0000 0.39580  0.97450  0.65440  Biso   1.000  C
  O13      1.0000 0.24840  0.95360  0.79680  Biso   1.000  O
  O14      1.0000 0.24010  0.98880  0.76620  Biso   1.000  O
  C11      1.0000 0.34340  0.98470  0.71740  Biso   1.000  C
  C12      1.0000 0.34170  0.97960  0.74980  Biso   1.000  C
  H5       1.0000 0.36020  0.97790  0.76040  Biso   1.000  H
  C13      1.0000 0.31380  0.97690  0.76700  Biso   1.000  C
  H6       1.0000 0.31230  0.97180  0.78920  Biso   1.000  H
  C14      1.0000 0.29010  0.98110  0.75370  Biso   1.000  C
  C15      1.0000 0.29140  0.98950  0.72100  Biso   1.000  C
  H7       1.0000 0.27440  0.99470  0.71180  Biso   1.000  H
  C16      1.0000 0.31880  0.98990  0.70240  Biso   1.000  C
  H8       1.0000 0.31990  0.99370  0.68000  Biso   1.000  H
  C17      1.0000 0.25650  0.97310  0.77270  Biso   1.000  C
  C18      1.0000 0.39100  0.96150  0.62190  Biso   1.000  C
  C19      1.0000 0.35700  0.94110  0.60890  Biso   1.000  C
  H9       1.0000 0.33650  0.93530  0.62140  Biso   1.000  H
  C20      1.0000 0.35300  0.92940  0.57800  Biso   1.000  C
  H10      1.0000 0.32970  0.91620  0.56900  Biso   1.000  H
  C21      1.0000 0.38290  0.93660  0.55970  Biso   1.000  C
  C22      1.0000 0.41640  0.95650  0.57290  Biso   1.000  C
  H11      1.0000 0.43690  0.96200  0.56050  Biso   1.000  H
  C23      1.0000 0.42050  0.96830  0.60360  Biso   1.000  C
  H12      1.0000 0.44380  0.98130  0.61260  Biso   1.000  H
  C24      1.0000 0.37900  0.92420  0.52590  Biso   1.000  C
  C25      1.0000 0.64660  0.09220  0.85000  Biso   1.000  C
  C26      1.0000 0.63200  0.06540  0.90420  Biso   1.000  C
  H13      1.0000 0.60990  0.04700  0.89610  Biso   1.000  H
  C27      1.0000 0.65510  0.09180  0.88420  Biso   1.000  C
  C28      1.0000 0.63990  0.06470  0.93560  Biso   1.000  C
  H14      1.0000 0.62380  0.04570  0.94900  Biso   1.000  H
  C29      1.0000 0.67200  0.09210  0.94810  Biso   1.000  C
  C30      1.0000 0.69520  0.11890  0.92810  Biso   1.000  C
  H15      1.0000 0.71690  0.13780  0.93630  Biso   1.000  H
  C31      1.0000 0.68730  0.11850  0.89630  Biso   1.000  C
  H16      1.0000 0.70400  0.13660  0.88260  Biso   1.000  H
  C32      1.0000 0.68030  0.09160  0.98190  Biso   1.000  C
  C33      1.0000 0.71450  0.12000  0.02420  Biso   1.000  C
  C34      1.0000 0.65440  0.02810  0.04630  Biso   1.000  C
  C35      1.0000 0.74200  0.15320  0.04010  Biso   1.000  C
  C36      1.0000 0.75410  0.18580  0.02610  Biso   1.000  C
  H17      1.0000 0.74600  0.18750  0.00550  Biso   1.000  H
  C37      1.0000 0.77820  0.21620  0.04220  Biso   1.000  C
  H18      1.0000 0.78430  0.23890  0.03370  Biso   1.000  H
  C38      1.0000 0.79350  0.21460  0.07000  Biso   1.000  C
  C39      1.0000 0.78380  0.18160  0.08270  Biso   1.000  C
  H19      1.0000 0.79510  0.18010  0.10160  Biso   1.000  H
  C40      1.0000 0.75760  0.15020  0.06840  Biso   1.000  C
  H20      1.0000 0.75050  0.12750  0.07750  Biso   1.000  H
  C41      1.0000 0.82110  0.24580  0.08750  Biso   1.000  C
  C42      1.0000 0.67230  0.06160  0.02810  Biso   1.000  C
  C43      1.0000 0.67140  0.02340  0.07240  Biso   1.000  C
  H21      1.0000 0.69390  0.04230  0.07920  Biso   1.000  H
  C44      1.0000 0.65530  0.99130  0.08860  Biso   1.000  C
  H22      1.0000 0.66700  0.98780  0.10630  Biso   1.000  H
  C45      1.0000 0.62250  0.96440  0.07900  Biso   1.000  C
  C46      1.0000 0.60500  0.96880  0.05310  Biso   1.000  C
  H23      1.0000 0.58210  0.95010  0.04690  Biso   1.000  H
  C47      1.0000 0.62140  0.00060  0.03640  Biso   1.000  C
  H24      1.0000 0.61010  0.00360  0.01820  Biso   1.000  H
  C48      1.0000 0.60470  0.92930  0.09570  Biso   1.000  C
  C49      1.0000 0.63760  0.15830  0.79230  Biso   1.000  C
  C50      1.0000 0.64410  0.19540  0.79330  Biso   1.000  C
  C51      1.0000 0.67480  0.22320  0.77960  Biso   1.000  C
  H25      1.0000 0.69170  0.21830  0.76990  Biso   1.000  H
  C52      1.0000 0.68080  0.25750  0.77990  Biso   1.000  C
  H26      1.0000 0.70230  0.27640  0.77120  Biso   1.000  H
  C53      1.0000 0.65550  0.26430  0.79280  Biso   1.000  C
  C54      1.0000 0.62490  0.23730  0.80630  Biso   1.000  C
  H27      1.0000 0.60770  0.24240  0.81540  Biso   1.000  H
  C55      1.0000 0.61900  0.20220  0.80650  Biso   1.000  C
  H28      1.0000 0.59790  0.18340  0.81580  Biso   1.000  H
  C56      1.0000 0.66130  0.30110  0.79250  Biso   1.000  C
  O15      1.0000 0.36100  0.84400  0.48400  Biso   1.000  O
  O16      1.0000 0.41700  0.86500  0.49200  Biso   1.000  O
  C57      1.0000 0.38600  0.84350  0.49970  Biso   1.000  C
  C58      1.0000 0.37300  0.80360  0.50710  Biso   1.000  C
  C59      1.0000 0.33750  0.77700  0.50970  Biso   1.000  C
  C60      1.0000 0.32890  0.74210  0.51630  Biso   1.000  C
  C61      1.0000 0.35580  0.73380  0.52000  Biso   1.000  C
  C62      1.0000 0.39140  0.76040  0.51770  Biso   1.000  C
  C63      1.0000 0.40000  0.79530  0.51100  Biso   1.000  C
  N8       1.0000 0.37320  0.68790  0.52000  Biso   1.000  N
  C64      1.0000 0.34620  0.69410  0.52000  Biso   1.000  C
  O17      1.0000 0.24400  0.98000  0.78200  Biso   1.000  O
  O18      1.0000 0.24240  0.00800  0.73790  Biso   1.000  O
  C65      1.0000 0.34050  0.98200  0.71400  Biso   1.000  C
  C66      1.0000 0.30600  0.95800  0.70430  Biso   1.000  C
  H29      1.0000 0.30170  0.94180  0.68770  Biso   1.000  H
  C67      1.0000 0.27720  0.95900  0.71880  Biso   1.000  C
  H30      1.0000 0.25350  0.94280  0.71200  Biso   1.000  H
  C68      1.0000 0.28320  0.98300  0.74300  Biso   1.000  C
  C69      1.0000 0.31800  0.00700  0.75290  Biso   1.000  C
  H31      1.0000 0.32200  0.02360  0.76950  Biso   1.000  H
  C70      1.0000 0.34650  0.00600  0.73800  Biso   1.000  C
  H32      1.0000 0.37020  0.02260  0.74520  Biso   1.000  H
  C71      1.0000 0.25600  0.99100  0.75200  Biso   1.000  C
  O19      1.0000 0.33790  0.84940  0.46540  Biso   1.000  O
  O20      1.0000 0.39030  0.86690  0.48390  Biso   1.000  O
  C72      1.0000 0.35910  0.84240  0.47950  Biso   1.000  C
  C73      1.0000 0.35150  0.80360  0.48250  Biso   1.000  C
  C74      1.0000 0.31770  0.77420  0.47790  Biso   1.000  C
  C75      1.0000 0.31240  0.73990  0.48100  Biso   1.000  C
  C76      1.0000 0.34100  0.73500  0.48870  Biso   1.000  C
  C77      1.0000 0.37480  0.76440  0.49330  Biso   1.000  C
  C78      1.0000 0.38000  0.79870  0.49020  Biso   1.000  C
  N9       1.0000 0.36690  0.69760  0.48850  Biso   1.000  N
  C79      1.0000 0.33610  0.69720  0.48850  Biso   1.000  C
  In3      1.0000 0.29395  0.42686  0.12432  Biso   1.000  In
  In4      1.0000 0.04173  0.23756  0.80062  Biso   1.000  In
  O21      1.0000 0.23447  0.39003  0.12223  Biso   1.000  O
  O22      1.0000 0.26187  0.41703  0.07823  Biso   1.000  O
  O23      1.0000 0.01557  0.23743  0.84823  Biso   1.000  O
  O24      1.0000 0.07367  0.26823  0.84253  Biso   1.000  O
  O25      1.0000 0.33597  0.44623  0.16363  Biso   1.000  O
  O26      1.0000 0.28117  0.40523  0.17453  Biso   1.000  O
  O27      1.0000 0.49097  0.60853  0.41403  Biso   1.000  O
  O28      1.0000 0.50437  0.57553  0.44343  Biso   1.000  O
  O29      1.0000 0.28947  0.25463  0.44813  Biso   1.000  O
  O30      1.0000 0.23887  0.24083  0.42443  Biso   1.000  O
  O31      1.0000 0.27897  0.46763  0.14123  Biso   1.000  O
  O32      1.0000 0.32477  0.48473  0.10893  Biso   1.000  O
  N10      1.0000 0.06987  0.33013  0.04823  Biso   1.000  N
  N11      1.0000 0.09477  0.32213  0.00103  Biso   1.000  N
  N12      1.0000 0.03417  0.30683  0.00253  Biso   1.000  N
  N13      1.0000 0.37277  0.45533  0.32793  Biso   1.000  N
  N14      1.0000 0.36527  0.42343  0.37573  Biso   1.000  N
  N15      1.0000 0.32827  0.39473  0.33123  Biso   1.000  N
  N16      1.0000 0.36177  0.66103  0.12593  Biso   1.000  N
  C80      1.0000 0.23367  0.39643  0.09243  Biso   1.000  C
  C81      1.0000 0.19837  0.37973  0.07683  Biso   1.000  C
  C82      1.0000 0.19597  0.37883  0.04423  Biso   1.000  C
  H33      1.0000 0.21707  0.38963  0.03163  Biso   1.000  H
  C83      1.0000 0.16277  0.36213  0.02943  Biso   1.000  C
  H34      1.0000 0.16137  0.36093  0.00673  Biso   1.000  H
  C84      1.0000 0.13247  0.34783  0.04673  Biso   1.000  C
  C85      1.0000 0.13397  0.34853  0.07973  Biso   1.000  C
  H35      1.0000 0.11277  0.33843  0.09213  Biso   1.000  H
  C86      1.0000 0.16777  0.36463  0.09453  Biso   1.000  C
  H36      1.0000 0.16937  0.36503  0.11713  Biso   1.000  H
  C87      1.0000 0.09717  0.33213  0.03113  Biso   1.000  C
  C88      1.0000 0.03927  0.31813  0.03293  Biso   1.000  C
  C89      1.0000 0.06247  0.30783  0.98773  Biso   1.000  C
  O33      1.0000 0.91507  0.28693  0.13013  Biso   1.000  O
  O34      1.0000 0.90677  0.32213  0.09953  Biso   1.000  O
  C90      1.0000 0.01007  0.31803  0.05073  Biso   1.000  C
  C91      1.0000 0.00837  0.31293  0.08313  Biso   1.000  C
  H37      1.0000 0.02687  0.31123  0.09373  Biso   1.000  H
  C92      1.0000 0.98047  0.31023  0.10033  Biso   1.000  C
  H38      1.0000 0.97897  0.30513  0.12253  Biso   1.000  H
  C93      1.0000 0.95677  0.31443  0.08703  Biso   1.000  C
  C94      1.0000 0.95807  0.32283  0.05433  Biso   1.000  C
  H39      1.0000 0.94107  0.32803  0.04513  Biso   1.000  H
  C95      1.0000 0.98547  0.32323  0.03573  Biso   1.000  C
  H40      1.0000 0.98657  0.32703  0.01333  Biso   1.000  H
  C96      1.0000 0.92317  0.30643  0.10603  Biso   1.000  C
  C97      1.0000 0.05767  0.29483  0.95523  Biso   1.000  C
  C98      1.0000 0.02367  0.27443  0.94223  Biso   1.000  C
  H41      1.0000 0.00317  0.26863  0.95473  Biso   1.000  H
  C99      1.0000 0.01967  0.26273  0.91133  Biso   1.000  C
  H42      1.0000 0.99637  0.24953  0.90233  Biso   1.000  H
  C100     1.0000 0.04957  0.26993  0.89303  Biso   1.000  C
  C101     1.0000 0.08307  0.28983  0.90623  Biso   1.000  C
  H43      1.0000 0.10357  0.29533  0.89383  Biso   1.000  H
  C102     1.0000 0.08717  0.30163  0.93693  Biso   1.000  C
  H44      1.0000 0.11047  0.31463  0.94593  Biso   1.000  H
  C103     1.0000 0.04567  0.25753  0.85923  Biso   1.000  C
  C104     1.0000 0.31327  0.42553  0.18333  Biso   1.000  C
  C105     1.0000 0.29867  0.39873  0.23753  Biso   1.000  C
  H45      1.0000 0.27657  0.38033  0.22943  Biso   1.000  H
  C106     1.0000 0.32177  0.42513  0.21753  Biso   1.000  C
  C107     1.0000 0.30657  0.39803  0.26893  Biso   1.000  C
  H46      1.0000 0.29047  0.37903  0.28233  Biso   1.000  H
  C108     1.0000 0.33867  0.42543  0.28143  Biso   1.000  C
  C109     1.0000 0.36187  0.45223  0.26143  Biso   1.000  C
  H47      1.0000 0.38357  0.47113  0.26963  Biso   1.000  H
  C110     1.0000 0.35397  0.45183  0.22963  Biso   1.000  C
  H48      1.0000 0.37067  0.46993  0.21593  Biso   1.000  H
  C111     1.0000 0.34697  0.42493  0.31523  Biso   1.000  C
  C112     1.0000 0.38117  0.45333  0.35753  Biso   1.000  C
  C113     1.0000 0.32107  0.36143  0.37963  Biso   1.000  C
  C114     1.0000 0.40867  0.48653  0.37343  Biso   1.000  C
  C115     1.0000 0.42077  0.51913  0.35943  Biso   1.000  C
  H49      1.0000 0.41267  0.52083  0.33883  Biso   1.000  H
  C116     1.0000 0.44487  0.54953  0.37553  Biso   1.000  C
  H50      1.0000 0.45097  0.57223  0.36703  Biso   1.000  H
  C117     1.0000 0.46017  0.54793  0.40333  Biso   1.000  C
  C118     1.0000 0.45047  0.51493  0.41603  Biso   1.000  C
  H51      1.0000 0.46177  0.51343  0.43493  Biso   1.000  H
  C119     1.0000 0.42427  0.48353  0.40173  Biso   1.000  C
  H52      1.0000 0.41717  0.46083  0.41083  Biso   1.000  H
  C120     1.0000 0.48777  0.57913  0.42083  Biso   1.000  C
  C121     1.0000 0.33897  0.39493  0.36143  Biso   1.000  C
  C122     1.0000 0.33807  0.35673  0.40573  Biso   1.000  C
  H53      1.0000 0.36057  0.37563  0.41253  Biso   1.000  H
  C123     1.0000 0.32197  0.32463  0.42193  Biso   1.000  C
  H54      1.0000 0.33367  0.32113  0.43963  Biso   1.000  H
  C124     1.0000 0.28917  0.29773  0.41233  Biso   1.000  C
  C125     1.0000 0.27167  0.30213  0.38643  Biso   1.000  C
  H55      1.0000 0.24877  0.28343  0.38023  Biso   1.000  H
  C126     1.0000 0.28807  0.33393  0.36973  Biso   1.000  C
  H56      1.0000 0.27677  0.33693  0.35153  Biso   1.000  H
  C127     1.0000 0.27137  0.26263  0.42903  Biso   1.000  C
  C128     1.0000 0.30427  0.49163  0.12563  Biso   1.000  C
  C129     1.0000 0.31077  0.52873  0.12663  Biso   1.000  C
  C130     1.0000 0.34147  0.55653  0.11293  Biso   1.000  C
  H57      1.0000 0.35837  0.55163  0.10323  Biso   1.000  H
  C131     1.0000 0.34747  0.59083  0.11323  Biso   1.000  C
  H58      1.0000 0.36897  0.60973  0.10453  Biso   1.000  H
  C132     1.0000 0.32217  0.59763  0.12613  Biso   1.000  C
  C133     1.0000 0.29157  0.57063  0.13963  Biso   1.000  C
  H59      1.0000 0.27437  0.57573  0.14873  Biso   1.000  H
  C134     1.0000 0.28567  0.53553  0.13983  Biso   1.000  C
  H60      1.0000 0.26457  0.51673  0.14913  Biso   1.000  H
  C135     1.0000 0.32797  0.63443  0.12583  Biso   1.000  C
  O35      1.0000 0.02767  0.17733  0.81733  Biso   1.000  O
  O36      1.0000 0.08367  0.19833  0.82533  Biso   1.000  O
  C136     1.0000 0.05267  0.17683  0.83303  Biso   1.000  C
  C137     1.0000 0.03967  0.13693  0.84043  Biso   1.000  C
  C138     1.0000 0.00417  0.11033  0.84303  Biso   1.000  C
  C139     1.0000 0.99557  0.07543  0.84963  Biso   1.000  C
  C140     1.0000 0.02247  0.06713  0.85333  Biso   1.000  C
  C141     1.0000 0.05807  0.09373  0.85103  Biso   1.000  C
  C142     1.0000 0.06667  0.12863  0.84433  Biso   1.000  C
  N17      1.0000 0.03987  0.02123  0.85333  Biso   1.000  N
  C143     1.0000 0.01287  0.02743  0.85333  Biso   1.000  C
  O37      1.0000 0.91067  0.31333  0.11533  Biso   1.000  O
  O38      1.0000 0.90907  0.34133  0.07123  Biso   1.000  O
  C144     1.0000 0.00717  0.31533  0.04733  Biso   1.000  C
  C145     1.0000 0.97267  0.29133  0.03763  Biso   1.000  C
  H61      1.0000 0.96837  0.27513  0.02103  Biso   1.000  H
  C146     1.0000 0.94387  0.29233  0.05213  Biso   1.000  C
  H62      1.0000 0.92017  0.27613  0.04533  Biso   1.000  H
  C147     1.0000 0.94987  0.31633  0.07633  Biso   1.000  C
  C148     1.0000 0.98467  0.34033  0.08623  Biso   1.000  C
  H63      1.0000 0.98867  0.35693  0.10283  Biso   1.000  H
  C149     1.0000 0.01317  0.33933  0.07133  Biso   1.000  C
  H64      1.0000 0.03687  0.35593  0.07853  Biso   1.000  H
  C150     1.0000 0.92267  0.32433  0.08533  Biso   1.000  C
  O39      1.0000 0.00457  0.18273  0.79873  Biso   1.000  O
  O40      1.0000 0.05697  0.20023  0.81723  Biso   1.000  O
  C151     1.0000 0.02577  0.17573  0.81283  Biso   1.000  C
  C152     1.0000 0.01817  0.13693  0.81583  Biso   1.000  C
  C153     1.0000 0.98437  0.10753  0.81123  Biso   1.000  C
  C154     1.0000 0.97907  0.07323  0.81433  Biso   1.000  C
  C155     1.0000 0.00767  0.06833  0.82203  Biso   1.000  C
  C156     1.0000 0.04147  0.09773  0.82663  Biso   1.000  C
  C157     1.0000 0.04667  0.13203  0.82353  Biso   1.000  C
  N18      1.0000 0.03357  0.03093  0.82183  Biso   1.000  N
  C158     1.0000 0.00277  0.03053  0.82183  Biso   1.000  C
  In5      1.0000 0.96061  0.76020  0.45766  Biso   1.000  In
  In6      1.0000 0.70839  0.57090  0.13396  Biso   1.000  In
  O41      1.0000 0.90113  0.72337  0.45557  Biso   1.000  O
  O42      1.0000 0.92853  0.75037  0.41157  Biso   1.000  O
  O43      1.0000 0.68223  0.57077  0.18157  Biso   1.000  O
  O44      1.0000 0.74033  0.60157  0.17587  Biso   1.000  O
  O45      1.0000 0.00263  0.77957  0.49697  Biso   1.000  O
  O46      1.0000 0.94783  0.73857  0.50787  Biso   1.000  O
  O47      1.0000 0.15763  0.94187  0.74737  Biso   1.000  O
  O48      1.0000 0.17103  0.90887  0.77677  Biso   1.000  O
  O49      1.0000 0.95613  0.58797  0.78147  Biso   1.000  O
  O50      1.0000 0.90553  0.57417  0.75777  Biso   1.000  O
  O51      1.0000 0.94563  0.80097  0.47457  Biso   1.000  O
  O52      1.0000 0.99143  0.81807  0.44227  Biso   1.000  O
  N19      1.0000 0.73653  0.66347  0.38157  Biso   1.000  N
  N20      1.0000 0.76143  0.65547  0.33437  Biso   1.000  N
  N21      1.0000 0.70083  0.64017  0.33587  Biso   1.000  N
  N22      1.0000 0.03943  0.78867  0.66127  Biso   1.000  N
  N23      1.0000 0.03193  0.75677  0.70907  Biso   1.000  N
  N24      1.0000 0.99493  0.72807  0.66457  Biso   1.000  N
  N25      1.0000 0.02843  0.99437  0.45927  Biso   1.000  N
  C159     1.0000 0.90033  0.72977  0.42577  Biso   1.000  C
  C160     1.0000 0.86503  0.71307  0.41017  Biso   1.000  C
  C161     1.0000 0.86263  0.71217  0.37757  Biso   1.000  C
  H65      1.0000 0.88373  0.72297  0.36497  Biso   1.000  H
  C162     1.0000 0.82943  0.69547  0.36277  Biso   1.000  C
  H66      1.0000 0.82803  0.69427  0.34007  Biso   1.000  H
  C163     1.0000 0.79913  0.68117  0.38007  Biso   1.000  C
  C164     1.0000 0.80063  0.68187  0.41307  Biso   1.000  C
  H67      1.0000 0.77943  0.67177  0.42547  Biso   1.000  H
  C165     1.0000 0.83443  0.69797  0.42787  Biso   1.000  C
  H68      1.0000 0.83603  0.69837  0.45047  Biso   1.000  H
  C166     1.0000 0.76383  0.66547  0.36447  Biso   1.000  C
  C167     1.0000 0.70593  0.65147  0.36627  Biso   1.000  C
  C168     1.0000 0.72913  0.64117  0.32107  Biso   1.000  C
  O53      1.0000 0.58173  0.62027  0.46347  Biso   1.000  O
  O54      1.0000 0.57343  0.65547  0.43287  Biso   1.000  O
  C169     1.0000 0.67673  0.65137  0.38407  Biso   1.000  C
  C170     1.0000 0.67503  0.64627  0.41647  Biso   1.000  C
  H69      1.0000 0.69353  0.64457  0.42707  Biso   1.000  H
  C171     1.0000 0.64713  0.64357  0.43367  Biso   1.000  C
  H70      1.0000 0.64563  0.63847  0.45587  Biso   1.000  H
  C172     1.0000 0.62343  0.64777  0.42037  Biso   1.000  C
  C173     1.0000 0.62473  0.65617  0.38767  Biso   1.000  C
  H71      1.0000 0.60773  0.66137  0.37847  Biso   1.000  H
  C174     1.0000 0.65213  0.65657  0.36907  Biso   1.000  C
  H72      1.0000 0.65323  0.66037  0.34667  Biso   1.000  H
  C175     1.0000 0.58983  0.63977  0.43937  Biso   1.000  C
  C176     1.0000 0.72433  0.62817  0.28857  Biso   1.000  C
  C177     1.0000 0.69033  0.60777  0.27557  Biso   1.000  C
  H73      1.0000 0.66983  0.60197  0.28807  Biso   1.000  H
  C178     1.0000 0.68633  0.59607  0.24467  Biso   1.000  C
  H74      1.0000 0.66303  0.58287  0.23567  Biso   1.000  H
  C179     1.0000 0.71623  0.60327  0.22637  Biso   1.000  C
  C180     1.0000 0.74973  0.62317  0.23957  Biso   1.000  C
  H75      1.0000 0.77023  0.62867  0.22717  Biso   1.000  H
  C181     1.0000 0.75383  0.63497  0.27027  Biso   1.000  C
  H76      1.0000 0.77713  0.64797  0.27927  Biso   1.000  H
  C182     1.0000 0.71233  0.59087  0.19257  Biso   1.000  C
  C183     1.0000 0.97993  0.75887  0.51667  Biso   1.000  C
  C184     1.0000 0.96533  0.73207  0.57087  Biso   1.000  C
  H77      1.0000 0.94323  0.71367  0.56277  Biso   1.000  H
  C185     1.0000 0.98843  0.75847  0.55087  Biso   1.000  C
  C186     1.0000 0.97323  0.73137  0.60227  Biso   1.000  C
  H78      1.0000 0.95713  0.71237  0.61567  Biso   1.000  H
  C187     1.0000 0.00533  0.75877  0.61477  Biso   1.000  C
  C188     1.0000 0.02853  0.78557  0.59477  Biso   1.000  C
  H79      1.0000 0.05023  0.80447  0.60297  Biso   1.000  H
  C189     1.0000 0.02063  0.78517  0.56297  Biso   1.000  C
  H80      1.0000 0.03733  0.80327  0.54927  Biso   1.000  H
  C190     1.0000 0.01363  0.75827  0.64857  Biso   1.000  C
  C191     1.0000 0.04783  0.78667  0.69087  Biso   1.000  C
  C192     1.0000 0.98773  0.69477  0.71297  Biso   1.000  C
  C193     1.0000 0.07533  0.81987  0.70677  Biso   1.000  C
  C194     1.0000 0.08743  0.85247  0.69277  Biso   1.000  C
  H81      1.0000 0.07933  0.85417  0.67217  Biso   1.000  H
  C195     1.0000 0.11153  0.88287  0.70887  Biso   1.000  C
  H82      1.0000 0.11763  0.90557  0.70037  Biso   1.000  H
  C196     1.0000 0.12683  0.88127  0.73667  Biso   1.000  C
  C197     1.0000 0.11713  0.84827  0.74937  Biso   1.000  C
  H83      1.0000 0.12843  0.84677  0.76827  Biso   1.000  H
  C198     1.0000 0.09093  0.81687  0.73507  Biso   1.000  C
  H84      1.0000 0.08383  0.79417  0.74417  Biso   1.000  H
  C199     1.0000 0.15443  0.91247  0.75417  Biso   1.000  C
  C200     1.0000 0.00563  0.72827  0.69477  Biso   1.000  C
  C201     1.0000 0.00473  0.69007  0.73907  Biso   1.000  C
  H85      1.0000 0.02723  0.70897  0.74587  Biso   1.000  H
  C202     1.0000 0.98863  0.65797  0.75527  Biso   1.000  C
  H86      1.0000 0.00033  0.65447  0.77297  Biso   1.000  H
  C203     1.0000 0.95583  0.63107  0.74567  Biso   1.000  C
  C204     1.0000 0.93833  0.63547  0.71977  Biso   1.000  C
  H87      1.0000 0.91543  0.61677  0.71357  Biso   1.000  H
  C205     1.0000 0.95473  0.66727  0.70307  Biso   1.000  C
  H88      1.0000 0.94343  0.67027  0.68487  Biso   1.000  H
  C206     1.0000 0.93803  0.59597  0.76237  Biso   1.000  C
  C207     1.0000 0.97093  0.82497  0.45897  Biso   1.000  C
  C208     1.0000 0.97743  0.86207  0.45997  Biso   1.000  C
  C209     1.0000 0.00813  0.88987  0.44627  Biso   1.000  C
  H89      1.0000 0.02503  0.88497  0.43657  Biso   1.000  H
  C210     1.0000 0.01413  0.92417  0.44657  Biso   1.000  C
  H90      1.0000 0.03563  0.94307  0.43787  Biso   1.000  H
  C211     1.0000 0.98883  0.93097  0.45947  Biso   1.000  C
  C212     1.0000 0.95823  0.90397  0.47297  Biso   1.000  C
  H91      1.0000 0.94103  0.90907  0.48207  Biso   1.000  H
  C213     1.0000 0.95233  0.86887  0.47317  Biso   1.000  C
  H92      1.0000 0.93123  0.85007  0.48247  Biso   1.000  H
  C214     1.0000 0.99463  0.96777  0.45917  Biso   1.000  C
  O55      1.0000 0.69433  0.51067  0.15067  Biso   1.000  O
  O56      1.0000 0.75033  0.53167  0.15867  Biso   1.000  O
  C215     1.0000 0.71933  0.51017  0.16637  Biso   1.000  C
  C216     1.0000 0.70633  0.47027  0.17377  Biso   1.000  C
  C217     1.0000 0.67083  0.44367  0.17637  Biso   1.000  C
  C218     1.0000 0.66223  0.40877  0.18297  Biso   1.000  C
  C219     1.0000 0.68913  0.40047  0.18667  Biso   1.000  C
  C220     1.0000 0.72473  0.42707  0.18437  Biso   1.000  C
  C221     1.0000 0.73333  0.46197  0.17767  Biso   1.000  C
  N26      1.0000 0.70653  0.35457  0.18667  Biso   1.000  N
  C222     1.0000 0.67953  0.36077  0.18667  Biso   1.000  C
  O57      1.0000 0.57733  0.64667  0.44867  Biso   1.000  O
  O58      1.0000 0.57573  0.67467  0.40457  Biso   1.000  O
  C223     1.0000 0.67383  0.64867  0.38067  Biso   1.000  C
  C224     1.0000 0.63933  0.62467  0.37097  Biso   1.000  C
  H93      1.0000 0.63503  0.60847  0.35437  Biso   1.000  H
  C225     1.0000 0.61053  0.62567  0.38547  Biso   1.000  C
  H94      1.0000 0.58683  0.60947  0.37867  Biso   1.000  H
  C226     1.0000 0.61653  0.64967  0.40967  Biso   1.000  C
  C227     1.0000 0.65133  0.67367  0.41957  Biso   1.000  C
  H95      1.0000 0.65533  0.69027  0.43617  Biso   1.000  H
  C228     1.0000 0.67983  0.67267  0.40467  Biso   1.000  C
  H96      1.0000 0.70353  0.68927  0.41187  Biso   1.000  H
  C229     1.0000 0.58933  0.65767  0.41867  Biso   1.000  C
  O59      1.0000 0.67123  0.51607  0.13207  Biso   1.000  O
  O60      1.0000 0.72363  0.53357  0.15057  Biso   1.000  O
  C230     1.0000 0.69243  0.50907  0.14617  Biso   1.000  C
  C231     1.0000 0.68483  0.47027  0.14917  Biso   1.000  C
  C232     1.0000 0.65103  0.44087  0.14457  Biso   1.000  C
  C233     1.0000 0.64573  0.40657  0.14767  Biso   1.000  C
  C234     1.0000 0.67433  0.40167  0.15537  Biso   1.000  C
  C235     1.0000 0.70813  0.43107  0.15997  Biso   1.000  C
  C236     1.0000 0.71333  0.46537  0.15687  Biso   1.000  C
  N27      1.0000 0.70023  0.36427  0.15517  Biso   1.000  N
  C237     1.0000 0.66943  0.36387  0.15517  Biso   1.000  C
  In7      1.0000 0.90647  0.53375  0.79099  Biso   1.000  In
  In8      1.0000 0.09577  0.47083  0.46729  Biso   1.000  In
  O61      1.0000 0.94330  0.51110  0.78890  Biso   1.000  O
  O62      1.0000 0.91630  0.51150  0.74490  Biso   1.000  O
  O63      1.0000 0.09590  0.44480  0.51490  Biso   1.000  O
  O64      1.0000 0.06510  0.47210  0.50920  Biso   1.000  O
  O65      1.0000 0.88710  0.55640  0.83030  Biso   1.000  O
  O66      1.0000 0.92810  0.54260  0.84120  Biso   1.000  O
  O67      1.0000 0.72480  0.54910  0.08070  Biso   1.000  O
  O68      1.0000 0.75780  0.59550  0.11010  Biso   1.000  O
  O69      1.0000 0.07870  0.70150  0.11480  Biso   1.000  O
  O70      1.0000 0.09250  0.66470  0.09110  Biso   1.000  O
  O71      1.0000 0.86570  0.47800  0.80790  Biso   1.000  O
  O72      1.0000 0.84860  0.50670  0.77560  Biso   1.000  O
  N28      1.0000 0.00320  0.40640  0.71490  Biso   1.000  N
  N29      1.0000 0.01120  0.43930  0.66770  Biso   1.000  N
  N30      1.0000 0.02650  0.39400  0.66920  Biso   1.000  N
  N31      1.0000 0.87800  0.58410  0.99460  Biso   1.000  N
  N32      1.0000 0.90990  0.60850  0.04240  Biso   1.000  N
  N33      1.0000 0.93860  0.60020  0.99790  Biso   1.000  N
  N34      1.0000 0.67230  0.36740  0.79260  Biso   1.000  N
  C238     1.0000 0.93690  0.50390  0.75910  Biso   1.000  C
  C239     1.0000 0.95360  0.48530  0.74350  Biso   1.000  C
  C240     1.0000 0.95450  0.48380  0.71090  Biso   1.000  C
  H97      1.0000 0.94370  0.49410  0.69830  Biso   1.000  H
  C241     1.0000 0.97120  0.46730  0.69610  Biso   1.000  C
  H98      1.0000 0.97240  0.46710  0.67340  Biso   1.000  H
  C242     1.0000 0.98550  0.45130  0.71340  Biso   1.000  C
  C243     1.0000 0.98480  0.45210  0.74640  Biso   1.000  C
  H99      1.0000 0.99490  0.44100  0.75880  Biso   1.000  H
  C244     1.0000 0.96870  0.46980  0.76120  Biso   1.000  C
  H100     1.0000 0.96830  0.47100  0.78380  Biso   1.000  H
  C245     1.0000 0.00120  0.43170  0.69780  Biso   1.000  C
  C246     1.0000 0.01520  0.38780  0.69960  Biso   1.000  C
  C247     1.0000 0.02550  0.42130  0.65440  Biso   1.000  C
  O73      1.0000 0.04640  0.29480  0.79680  Biso   1.000  O
  O74      1.0000 0.01120  0.25130  0.76620  Biso   1.000  O
  C248     1.0000 0.01530  0.35870  0.71740  Biso   1.000  C
  C249     1.0000 0.02040  0.36210  0.74980  Biso   1.000  C
  H101     1.0000 0.02210  0.38230  0.76040  Biso   1.000  H
  C250     1.0000 0.02310  0.33690  0.76700  Biso   1.000  C
  H102     1.0000 0.02820  0.34050  0.78920  Biso   1.000  H
  C251     1.0000 0.01890  0.30900  0.75370  Biso   1.000  C
  C252     1.0000 0.01050  0.30190  0.72100  Biso   1.000  C
  H103     1.0000 0.00530  0.27970  0.71180  Biso   1.000  H
  C253     1.0000 0.01010  0.32890  0.70240  Biso   1.000  C
  H104     1.0000 0.00630  0.32620  0.68000  Biso   1.000  H
  C254     1.0000 0.02690  0.28340  0.77270  Biso   1.000  C
  C255     1.0000 0.03850  0.42950  0.62190  Biso   1.000  C
  C256     1.0000 0.05890  0.41590  0.60890  Biso   1.000  C
  H105     1.0000 0.06470  0.40120  0.62140  Biso   1.000  H
  C257     1.0000 0.07060  0.42360  0.57800  Biso   1.000  C
  H106     1.0000 0.08380  0.41350  0.56900  Biso   1.000  H
  C258     1.0000 0.06340  0.44630  0.55970  Biso   1.000  C
  C259     1.0000 0.04350  0.45990  0.57290  Biso   1.000  C
  H107     1.0000 0.03800  0.47490  0.56050  Biso   1.000  H
  C260     1.0000 0.03170  0.45220  0.60360  Biso   1.000  C
  H108     1.0000 0.01870  0.46250  0.61260  Biso   1.000  H
  C261     1.0000 0.07580  0.45480  0.52590  Biso   1.000  C
  C262     1.0000 0.90780  0.55440  0.85000  Biso   1.000  C
  C263     1.0000 0.93460  0.56660  0.90420  Biso   1.000  C
  H109     1.0000 0.95300  0.56290  0.89610  Biso   1.000  H
  C264     1.0000 0.90820  0.56330  0.88420  Biso   1.000  C
  C265     1.0000 0.93530  0.57520  0.93560  Biso   1.000  C
  H110     1.0000 0.95430  0.57810  0.94900  Biso   1.000  H
  C266     1.0000 0.90790  0.57990  0.94810  Biso   1.000  C
  C267     1.0000 0.88110  0.57630  0.92810  Biso   1.000  C
  H111     1.0000 0.86220  0.57910  0.93630  Biso   1.000  H
  C268     1.0000 0.88150  0.56880  0.89630  Biso   1.000  C
  H112     1.0000 0.86340  0.56740  0.88260  Biso   1.000  H
  C269     1.0000 0.90840  0.58870  0.98190  Biso   1.000  C
  C270     1.0000 0.88000  0.59450  0.02420  Biso   1.000  C
  C271     1.0000 0.97190  0.62630  0.04630  Biso   1.000  C
  C272     1.0000 0.84680  0.58880  0.04010  Biso   1.000  C
  C273     1.0000 0.81420  0.56830  0.02610  Biso   1.000  C
  H113     1.0000 0.81250  0.55850  0.00550  Biso   1.000  H
  C274     1.0000 0.78380  0.56200  0.04220  Biso   1.000  C
  H114     1.0000 0.76110  0.54540  0.03370  Biso   1.000  H
  C275     1.0000 0.78540  0.57890  0.07000  Biso   1.000  C
  C276     1.0000 0.81840  0.60220  0.08270  Biso   1.000  C
  H115     1.0000 0.81990  0.61500  0.10160  Biso   1.000  H
  C277     1.0000 0.84980  0.60740  0.06840  Biso   1.000  C
  H116     1.0000 0.87250  0.62300  0.07750  Biso   1.000  H
  C278     1.0000 0.75420  0.57530  0.08750  Biso   1.000  C
  C279     1.0000 0.93840  0.61070  0.02810  Biso   1.000  C
  C280     1.0000 0.97660  0.64800  0.07240  Biso   1.000  C
  H117     1.0000 0.95770  0.65160  0.07920  Biso   1.000  H
  C281     1.0000 0.00870  0.66400  0.08860  Biso   1.000  C
  H118     1.0000 0.01220  0.67920  0.10630  Biso   1.000  H
  C282     1.0000 0.03560  0.65810  0.07900  Biso   1.000  C
  C283     1.0000 0.03120  0.63620  0.05310  Biso   1.000  C
  H119     1.0000 0.04990  0.63200  0.04690  Biso   1.000  H
  C284     1.0000 0.99940  0.62080  0.03640  Biso   1.000  C
  H120     1.0000 0.99640  0.60650  0.01820  Biso   1.000  H
  C285     1.0000 0.07070  0.67540  0.09570  Biso   1.000  C
  C286     1.0000 0.84170  0.47930  0.79230  Biso   1.000  C
  C287     1.0000 0.80460  0.44870  0.79330  Biso   1.000  C
  C288     1.0000 0.77680  0.45160  0.77960  Biso   1.000  C
  H121     1.0000 0.78170  0.47340  0.76990  Biso   1.000  H
  C289     1.0000 0.74250  0.42330  0.77990  Biso   1.000  C
  H122     1.0000 0.72360  0.42590  0.77120  Biso   1.000  H
  C290     1.0000 0.73570  0.39120  0.79280  Biso   1.000  C
  C291     1.0000 0.76270  0.38760  0.80630  Biso   1.000  C
  H123     1.0000 0.75760  0.36530  0.81540  Biso   1.000  H
  C292     1.0000 0.79780  0.41680  0.80650  Biso   1.000  C
  H124     1.0000 0.81660  0.41450  0.81580  Biso   1.000  H
  C293     1.0000 0.69890  0.36020  0.79250  Biso   1.000  C
  O75      1.0000 0.15600  0.51700  0.48400  Biso   1.000  O
  O76      1.0000 0.13500  0.55200  0.49200  Biso   1.000  O
  C294     1.0000 0.15650  0.54250  0.49970  Biso   1.000  C
  C295     1.0000 0.19640  0.56940  0.50710  Biso   1.000  C
  C296     1.0000 0.22300  0.56050  0.50970  Biso   1.000  C
  C297     1.0000 0.25790  0.58680  0.51630  Biso   1.000  C
  C298     1.0000 0.26620  0.62200  0.52000  Biso   1.000  C
  C299     1.0000 0.23960  0.63100  0.51770  Biso   1.000  C
  C300     1.0000 0.20470  0.60470  0.51100  Biso   1.000  C
  N35      1.0000 0.31210  0.68530  0.52000  Biso   1.000  N
  C301     1.0000 0.30590  0.65210  0.52000  Biso   1.000  C
  O77      1.0000 0.02000  0.26400  0.78200  Biso   1.000  O
  O78      1.0000 0.99200  0.23440  0.73790  Biso   1.000  O
  C302     1.0000 0.01800  0.35850  0.71400  Biso   1.000  C
  C303     1.0000 0.04200  0.34800  0.70430  Biso   1.000  C
  H125     1.0000 0.05820  0.35990  0.68770  Biso   1.000  H
  C304     1.0000 0.04100  0.31820  0.71880  Biso   1.000  C
  H126     1.0000 0.05720  0.31070  0.71200  Biso   1.000  H
  C305     1.0000 0.01700  0.30020  0.74300  Biso   1.000  C
  C306     1.0000 0.99300  0.31100  0.75290  Biso   1.000  C
  H127     1.0000 0.97640  0.29840  0.76950  Biso   1.000  H
  C307     1.0000 0.99400  0.34050  0.73800  Biso   1.000  C
  H128     1.0000 0.97740  0.34760  0.74520  Biso   1.000  H
  C308     1.0000 0.00900  0.26500  0.75200  Biso   1.000  C
  O79      1.0000 0.15060  0.48850  0.46540  Biso   1.000  O
  O80      1.0000 0.13310  0.52340  0.48390  Biso   1.000  O
  C309     1.0000 0.15760  0.51670  0.47950  Biso   1.000  C
  C310     1.0000 0.19640  0.54790  0.48250  Biso   1.000  C
  C311     1.0000 0.22580  0.54350  0.47790  Biso   1.000  C
  C312     1.0000 0.26010  0.57250  0.48100  Biso   1.000  C
  C313     1.0000 0.26500  0.60600  0.48870  Biso   1.000  C
  C314     1.0000 0.23560  0.61040  0.49330  Biso   1.000  C
  C315     1.0000 0.20130  0.58130  0.49020  Biso   1.000  C
  N36      1.0000 0.30240  0.66930  0.48850  Biso   1.000  N
  C316     1.0000 0.30280  0.63890  0.48850  Biso   1.000  C
  In9      1.0000 0.57314  0.86708  0.12432  Biso   1.000  In
  In10     1.0000 0.76244  0.80416  0.80062  Biso   1.000  In
  O81      1.0000 0.60997  0.84443  0.12223  Biso   1.000  O
  O82      1.0000 0.58297  0.84483  0.07823  Biso   1.000  O
  O83      1.0000 0.76257  0.77813  0.84823  Biso   1.000  O
  O84      1.0000 0.73177  0.80543  0.84253  Biso   1.000  O
  O85      1.0000 0.55377  0.88973  0.16363  Biso   1.000  O
  O86      1.0000 0.59477  0.87593  0.17453  Biso   1.000  O
  O87      1.0000 0.39147  0.88243  0.41403  Biso   1.000  O
  O88      1.0000 0.42447  0.92883  0.44343  Biso   1.000  O
  O89      1.0000 0.74537  0.03483  0.44813  Biso   1.000  O
  O90      1.0000 0.75917  0.99803  0.42443  Biso   1.000  O
  O91      1.0000 0.53237  0.81133  0.14123  Biso   1.000  O
  O92      1.0000 0.51527  0.84003  0.10893  Biso   1.000  O
  N37      1.0000 0.66987  0.73973  0.04823  Biso   1.000  N
  N38      1.0000 0.67787  0.77263  0.00103  Biso   1.000  N
  N39      1.0000 0.69317  0.72733  0.00253  Biso   1.000  N
  N40      1.0000 0.54467  0.91743  0.32793  Biso   1.000  N
  N41      1.0000 0.57657  0.94183  0.37573  Biso   1.000  N
  N42      1.0000 0.60527  0.93353  0.33123  Biso   1.000  N
  N43      1.0000 0.33897  0.70073  0.12593  Biso   1.000  N
  C317     1.0000 0.60357  0.83723  0.09243  Biso   1.000  C
  C318     1.0000 0.62027  0.81863  0.07683  Biso   1.000  C
  C319     1.0000 0.62117  0.81713  0.04423  Biso   1.000  C
  H129     1.0000 0.61037  0.82743  0.03163  Biso   1.000  H
  C320     1.0000 0.63787  0.80063  0.02943  Biso   1.000  C
  H130     1.0000 0.63907  0.80043  0.00673  Biso   1.000  H
  C321     1.0000 0.65217  0.78463  0.04673  Biso   1.000  C
  C322     1.0000 0.65147  0.78543  0.07973  Biso   1.000  C
  H131     1.0000 0.66157  0.77433  0.09213  Biso   1.000  H
  C323     1.0000 0.63537  0.80313  0.09453  Biso   1.000  C
  H132     1.0000 0.63497  0.80433  0.11713  Biso   1.000  H
  C324     1.0000 0.66787  0.76503  0.03113  Biso   1.000  C
  C325     1.0000 0.68187  0.72113  0.03293  Biso   1.000  C
  C326     1.0000 0.69217  0.75463  0.98773  Biso   1.000  C
  O93      1.0000 0.71307  0.62813  0.13013  Biso   1.000  O
  O94      1.0000 0.67787  0.58463  0.09953  Biso   1.000  O
  C327     1.0000 0.68197  0.69203  0.05073  Biso   1.000  C
  C328     1.0000 0.68707  0.69543  0.08313  Biso   1.000  C
  H133     1.0000 0.68877  0.71563  0.09373  Biso   1.000  H
  C329     1.0000 0.68977  0.67023  0.10033  Biso   1.000  C
  H134     1.0000 0.69487  0.67383  0.12253  Biso   1.000  H
  C330     1.0000 0.68557  0.64233  0.08703  Biso   1.000  C
  C331     1.0000 0.67717  0.63523  0.05433  Biso   1.000  C
  H135     1.0000 0.67197  0.61303  0.04513  Biso   1.000  H
  C332     1.0000 0.67677  0.66223  0.03573  Biso   1.000  C
  H136     1.0000 0.67297  0.65953  0.01333  Biso   1.000  H
  C333     1.0000 0.69357  0.61673  0.10603  Biso   1.000  C
  C334     1.0000 0.70517  0.76283  0.95523  Biso   1.000  C
  C335     1.0000 0.72557  0.74923  0.94223  Biso   1.000  C
  H137     1.0000 0.73137  0.73453  0.95473  Biso   1.000  H
  C336     1.0000 0.73727  0.75693  0.91133  Biso   1.000  C
  H138     1.0000 0.75047  0.74683  0.90233  Biso   1.000  H
  C337     1.0000 0.73007  0.77963  0.89303  Biso   1.000  C
  C338     1.0000 0.71017  0.79323  0.90623  Biso   1.000  C
  H139     1.0000 0.70467  0.80823  0.89383  Biso   1.000  H
  C339     1.0000 0.69837  0.78553  0.93693  Biso   1.000  C
  H140     1.0000 0.68537  0.79583  0.94593  Biso   1.000  H
  C340     1.0000 0.74247  0.78813  0.85923  Biso   1.000  C
  C341     1.0000 0.57447  0.88773  0.18333  Biso   1.000  C
  C342     1.0000 0.60127  0.89993  0.23753  Biso   1.000  C
  H141     1.0000 0.61967  0.89623  0.22943  Biso   1.000  H
  C343     1.0000 0.57487  0.89663  0.21753  Biso   1.000  C
  C344     1.0000 0.60197  0.90853  0.26893  Biso   1.000  C
  H142     1.0000 0.62097  0.91143  0.28233  Biso   1.000  H
  C345     1.0000 0.57457  0.91323  0.28143  Biso   1.000  C
  C346     1.0000 0.54777  0.90963  0.26143  Biso   1.000  C
  H143     1.0000 0.52887  0.91243  0.26963  Biso   1.000  H
  C347     1.0000 0.54817  0.90213  0.22963  Biso   1.000  C
  H144     1.0000 0.53007  0.90073  0.21593  Biso   1.000  H
  C348     1.0000 0.57507  0.92203  0.31523  Biso   1.000  C
  C349     1.0000 0.54667  0.92783  0.35753  Biso   1.000  C
  C350     1.0000 0.63857  0.95963  0.37963  Biso   1.000  C
  C351     1.0000 0.51347  0.92213  0.37343  Biso   1.000  C
  C352     1.0000 0.48087  0.90163  0.35943  Biso   1.000  C
  H145     1.0000 0.47917  0.89183  0.33883  Biso   1.000  H
  C353     1.0000 0.45047  0.89533  0.37553  Biso   1.000  C
  H146     1.0000 0.42777  0.87873  0.36703  Biso   1.000  H
  C354     1.0000 0.45207  0.91223  0.40333  Biso   1.000  C
  C355     1.0000 0.48507  0.93553  0.41603  Biso   1.000  C
  H147     1.0000 0.48657  0.94833  0.43493  Biso   1.000  H
  C356     1.0000 0.51647  0.94073  0.40173  Biso   1.000  C
  H148     1.0000 0.53917  0.95633  0.41083  Biso   1.000  H
  C357     1.0000 0.42087  0.90863  0.42083  Biso   1.000  C
  C358     1.0000 0.60507  0.94403  0.36143  Biso   1.000  C
  C359     1.0000 0.64327  0.98133  0.40573  Biso   1.000  C
  H149     1.0000 0.62437  0.98493  0.41253  Biso   1.000  H
  C360     1.0000 0.67537  0.99733  0.42193  Biso   1.000  C
  H150     1.0000 0.67887  0.01253  0.43963  Biso   1.000  H
  C361     1.0000 0.70227  0.99143  0.41233  Biso   1.000  C
  C362     1.0000 0.69787  0.96953  0.38643  Biso   1.000  C
  H151     1.0000 0.71657  0.96533  0.38023  Biso   1.000  H
  C363     1.0000 0.66607  0.95413  0.36973  Biso   1.000  C
  H152     1.0000 0.66307  0.93983  0.35153  Biso   1.000  H
  C364     1.0000 0.73737  0.00873  0.42903  Biso   1.000  C
  C365     1.0000 0.50837  0.81263  0.12563  Biso   1.000  C
  C366     1.0000 0.47127  0.78203  0.12663  Biso   1.000  C
  C367     1.0000 0.44347  0.78493  0.11293  Biso   1.000  C
  H153     1.0000 0.44837  0.80673  0.10323  Biso   1.000  H
  C368     1.0000 0.40917  0.75663  0.11323  Biso   1.000  C
  H154     1.0000 0.39027  0.75923  0.10453  Biso   1.000  H
  C369     1.0000 0.40237  0.72453  0.12613  Biso   1.000  C
  C370     1.0000 0.42937  0.72093  0.13963  Biso   1.000  C
  H155     1.0000 0.42427  0.69863  0.14873  Biso   1.000  H
  C371     1.0000 0.46447  0.75013  0.13983  Biso   1.000  C
  H156     1.0000 0.48327  0.74783  0.14913  Biso   1.000  H
  C372     1.0000 0.36557  0.69353  0.12583  Biso   1.000  C
  O95      1.0000 0.82267  0.85033  0.81733  Biso   1.000  O
  O96      1.0000 0.80167  0.88533  0.82533  Biso   1.000  O
  C373     1.0000 0.82317  0.87583  0.83303  Biso   1.000  C
  C374     1.0000 0.86307  0.90273  0.84043  Biso   1.000  C
  C375     1.0000 0.88967  0.89383  0.84303  Biso   1.000  C
  C376     1.0000 0.92457  0.92013  0.84963  Biso   1.000  C
  C377     1.0000 0.93287  0.95533  0.85333  Biso   1.000  C
  C378     1.0000 0.90627  0.96433  0.85103  Biso   1.000  C
  C379     1.0000 0.87137  0.93803  0.84433  Biso   1.000  C
  N44      1.0000 0.97877  0.01863  0.85333  Biso   1.000  N
  C380     1.0000 0.97257  0.98543  0.85333  Biso   1.000  C
  O97      1.0000 0.68667  0.59733  0.11533  Biso   1.000  O
  O98      1.0000 0.65867  0.56773  0.07123  Biso   1.000  O
  C381     1.0000 0.68467  0.69183  0.04733  Biso   1.000  C
  C382     1.0000 0.70867  0.68133  0.03763  Biso   1.000  C
  H157     1.0000 0.72487  0.69323  0.02103  Biso   1.000  H
  C383     1.0000 0.70767  0.65153  0.05213  Biso   1.000  C
  H158     1.0000 0.72387  0.64403  0.04533  Biso   1.000  H
  C384     1.0000 0.68367  0.63353  0.07633  Biso   1.000  C
  C385     1.0000 0.65967  0.64433  0.08623  Biso   1.000  C
  H159     1.0000 0.64307  0.63173  0.10283  Biso   1.000  H
  C386     1.0000 0.66067  0.67383  0.07133  Biso   1.000  C
  H160     1.0000 0.64407  0.68093  0.07853  Biso   1.000  H
  C387     1.0000 0.67567  0.59833  0.08533  Biso   1.000  C
  O99      1.0000 0.81727  0.82183  0.79873  Biso   1.000  O
  O100     1.0000 0.79977  0.85673  0.81723  Biso   1.000  O
  C388     1.0000 0.82427  0.85003  0.81283  Biso   1.000  C
  C389     1.0000 0.86307  0.88123  0.81583  Biso   1.000  C
  C390     1.0000 0.89247  0.87683  0.81123  Biso   1.000  C
  C391     1.0000 0.92677  0.90583  0.81433  Biso   1.000  C
  C392     1.0000 0.93167  0.93933  0.82203  Biso   1.000  C
  C393     1.0000 0.90227  0.94373  0.82663  Biso   1.000  C
  C394     1.0000 0.86797  0.91463  0.82353  Biso   1.000  C
  N45      1.0000 0.96907  0.00263  0.82183  Biso   1.000  N
  C395     1.0000 0.96947  0.97223  0.82183  Biso   1.000  C
  In11     1.0000 0.23980  0.20042  0.45766  Biso   1.000  In
  In12     1.0000 0.42910  0.13750  0.13396  Biso   1.000  In
  O101     1.0000 0.27663  0.17777  0.45557  Biso   1.000  O
  O102     1.0000 0.24963  0.17817  0.41157  Biso   1.000  O
  O103     1.0000 0.42923  0.11147  0.18157  Biso   1.000  O
  O104     1.0000 0.39843  0.13877  0.17587  Biso   1.000  O
  O105     1.0000 0.22043  0.22307  0.49697  Biso   1.000  O
  O106     1.0000 0.26143  0.20927  0.50787  Biso   1.000  O
  O107     1.0000 0.05813  0.21577  0.74737  Biso   1.000  O
  O108     1.0000 0.09113  0.26217  0.77677  Biso   1.000  O
  O109     1.0000 0.41203  0.36817  0.78147  Biso   1.000  O
  O110     1.0000 0.42583  0.33137  0.75777  Biso   1.000  O
  O111     1.0000 0.19903  0.14467  0.47457  Biso   1.000  O
  O112     1.0000 0.18193  0.17337  0.44227  Biso   1.000  O
  N46      1.0000 0.33653  0.07307  0.38157  Biso   1.000  N
  N47      1.0000 0.34453  0.10597  0.33437  Biso   1.000  N
  N48      1.0000 0.35983  0.06067  0.33587  Biso   1.000  N
  N49      1.0000 0.21133  0.25077  0.66127  Biso   1.000  N
  N50      1.0000 0.24323  0.27517  0.70907  Biso   1.000  N
  N51      1.0000 0.27193  0.26687  0.66457  Biso   1.000  N
  N52      1.0000 0.00563  0.03407  0.45927  Biso   1.000  N
  C396     1.0000 0.27023  0.17057  0.42577  Biso   1.000  C
  C397     1.0000 0.28693  0.15197  0.41017  Biso   1.000  C
  C398     1.0000 0.28783  0.15047  0.37757  Biso   1.000  C
  H161     1.0000 0.27703  0.16077  0.36497  Biso   1.000  H
  C399     1.0000 0.30453  0.13397  0.36277  Biso   1.000  C
  H162     1.0000 0.30573  0.13377  0.34007  Biso   1.000  H
  C400     1.0000 0.31883  0.11797  0.38007  Biso   1.000  C
  C401     1.0000 0.31813  0.11877  0.41307  Biso   1.000  C
  H163     1.0000 0.32823  0.10767  0.42547  Biso   1.000  H
  C402     1.0000 0.30203  0.13647  0.42787  Biso   1.000  C
  H164     1.0000 0.30163  0.13767  0.45047  Biso   1.000  H
  C403     1.0000 0.33453  0.09837  0.36447  Biso   1.000  C
  C404     1.0000 0.34853  0.05447  0.36627  Biso   1.000  C
  C405     1.0000 0.35883  0.08797  0.32107  Biso   1.000  C
  O113     1.0000 0.37973  0.96147  0.46347  Biso   1.000  O
  O114     1.0000 0.34453  0.91797  0.43287  Biso   1.000  O
  C406     1.0000 0.34863  0.02537  0.38407  Biso   1.000  C
  C407     1.0000 0.35373  0.02877  0.41647  Biso   1.000  C
  H165     1.0000 0.35543  0.04897  0.42707  Biso   1.000  H
  C408     1.0000 0.35643  0.00357  0.43367  Biso   1.000  C
  H166     1.0000 0.36153  0.00717  0.45587  Biso   1.000  H
  C409     1.0000 0.35223  0.97567  0.42037  Biso   1.000  C
  C410     1.0000 0.34383  0.96857  0.38767  Biso   1.000  C
  H167     1.0000 0.33863  0.94637  0.37847  Biso   1.000  H
  C411     1.0000 0.34343  0.99557  0.36907  Biso   1.000  C
  H168     1.0000 0.33963  0.99287  0.34667  Biso   1.000  H
  C412     1.0000 0.36023  0.95007  0.43937  Biso   1.000  C
  C413     1.0000 0.37183  0.09617  0.28857  Biso   1.000  C
  C414     1.0000 0.39223  0.08257  0.27557  Biso   1.000  C
  H169     1.0000 0.39803  0.06787  0.28807  Biso   1.000  H
  C415     1.0000 0.40393  0.09027  0.24467  Biso   1.000  C
  H170     1.0000 0.41713  0.08017  0.23567  Biso   1.000  H
  C416     1.0000 0.39673  0.11297  0.22637  Biso   1.000  C
  C417     1.0000 0.37683  0.12657  0.23957  Biso   1.000  C
  H171     1.0000 0.37133  0.14157  0.22717  Biso   1.000  H
  C418     1.0000 0.36503  0.11887  0.27027  Biso   1.000  C
  H172     1.0000 0.35203  0.12917  0.27927  Biso   1.000  H
  C419     1.0000 0.40913  0.12147  0.19257  Biso   1.000  C
  C420     1.0000 0.24113  0.22107  0.51667  Biso   1.000  C
  C421     1.0000 0.26793  0.23327  0.57087  Biso   1.000  C
  H173     1.0000 0.28633  0.22957  0.56277  Biso   1.000  H
  C422     1.0000 0.24153  0.22997  0.55087  Biso   1.000  C
  C423     1.0000 0.26863  0.24187  0.60227  Biso   1.000  C
  H174     1.0000 0.28763  0.24477  0.61567  Biso   1.000  H
  C424     1.0000 0.24123  0.24657  0.61477  Biso   1.000  C
  C425     1.0000 0.21443  0.24297  0.59477  Biso   1.000  C
  H175     1.0000 0.19553  0.24577  0.60297  Biso   1.000  H
  C426     1.0000 0.21483  0.23547  0.56297  Biso   1.000  C
  H176     1.0000 0.19673  0.23407  0.54927  Biso   1.000  H
  C427     1.0000 0.24173  0.25537  0.64857  Biso   1.000  C
  C428     1.0000 0.21333  0.26117  0.69087  Biso   1.000  C
  C429     1.0000 0.30523  0.29297  0.71297  Biso   1.000  C
  C430     1.0000 0.18013  0.25547  0.70677  Biso   1.000  C
  C431     1.0000 0.14753  0.23497  0.69277  Biso   1.000  C
  H177     1.0000 0.14583  0.22517  0.67217  Biso   1.000  H
  C432     1.0000 0.11713  0.22867  0.70887  Biso   1.000  C
  H178     1.0000 0.09443  0.21207  0.70037  Biso   1.000  H
  C433     1.0000 0.11873  0.24557  0.73667  Biso   1.000  C
  C434     1.0000 0.15173  0.26887  0.74937  Biso   1.000  C
  H179     1.0000 0.15323  0.28167  0.76827  Biso   1.000  H
  C435     1.0000 0.18313  0.27407  0.73507  Biso   1.000  C
  H180     1.0000 0.20583  0.28967  0.74417  Biso   1.000  H
  C436     1.0000 0.08753  0.24197  0.75417  Biso   1.000  C
  C437     1.0000 0.27173  0.27737  0.69477  Biso   1.000  C
  C438     1.0000 0.30993  0.31467  0.73907  Biso   1.000  C
  H181     1.0000 0.29103  0.31827  0.74587  Biso   1.000  H
  C439     1.0000 0.34203  0.33067  0.75527  Biso   1.000  C
  H182     1.0000 0.34553  0.34587  0.77297  Biso   1.000  H
  C440     1.0000 0.36893  0.32477  0.74567  Biso   1.000  C
  C441     1.0000 0.36453  0.30287  0.71977  Biso   1.000  C
  H183     1.0000 0.38323  0.29867  0.71357  Biso   1.000  H
  C442     1.0000 0.33273  0.28747  0.70307  Biso   1.000  C
  H184     1.0000 0.32973  0.27317  0.68487  Biso   1.000  H
  C443     1.0000 0.40403  0.34207  0.76237  Biso   1.000  C
  C444     1.0000 0.17503  0.14597  0.45897  Biso   1.000  C
  C445     1.0000 0.13793  0.11537  0.45997  Biso   1.000  C
  C446     1.0000 0.11013  0.11827  0.44627  Biso   1.000  C
  H185     1.0000 0.11503  0.14007  0.43657  Biso   1.000  H
  C447     1.0000 0.07583  0.08997  0.44657  Biso   1.000  C
  H186     1.0000 0.05693  0.09257  0.43787  Biso   1.000  H
  C448     1.0000 0.06903  0.05787  0.45947  Biso   1.000  C
  C449     1.0000 0.09603  0.05427  0.47297  Biso   1.000  C
  H187     1.0000 0.09093  0.03197  0.48207  Biso   1.000  H
  C450     1.0000 0.13113  0.08347  0.47317  Biso   1.000  C
  H188     1.0000 0.14993  0.08117  0.48247  Biso   1.000  H
  C451     1.0000 0.03223  0.02687  0.45917  Biso   1.000  C
  O115     1.0000 0.48933  0.18367  0.15067  Biso   1.000  O
  O116     1.0000 0.46833  0.21867  0.15867  Biso   1.000  O
  C452     1.0000 0.48983  0.20917  0.16637  Biso   1.000  C
  C453     1.0000 0.52973  0.23607  0.17377  Biso   1.000  C
  C454     1.0000 0.55633  0.22717  0.17637  Biso   1.000  C
  C455     1.0000 0.59123  0.25347  0.18297  Biso   1.000  C
  C456     1.0000 0.59953  0.28867  0.18667  Biso   1.000  C
  C457     1.0000 0.57293  0.29767  0.18437  Biso   1.000  C
  C458     1.0000 0.53803  0.27137  0.17767  Biso   1.000  C
  N53      1.0000 0.64543  0.35197  0.18667  Biso   1.000  N
  C459     1.0000 0.63923  0.31877  0.18667  Biso   1.000  C
  O117     1.0000 0.35333  0.93067  0.44867  Biso   1.000  O
  O118     1.0000 0.32533  0.90107  0.40457  Biso   1.000  O
  C460     1.0000 0.35133  0.02517  0.38067  Biso   1.000  C
  C461     1.0000 0.37533  0.01467  0.37097  Biso   1.000  C
  H189     1.0000 0.39153  0.02657  0.35437  Biso   1.000  H
  C462     1.0000 0.37433  0.98487  0.38547  Biso   1.000  C
  H190     1.0000 0.39053  0.97737  0.37867  Biso   1.000  H
  C463     1.0000 0.35033  0.96687  0.40967  Biso   1.000  C
  C464     1.0000 0.32633  0.97767  0.41957  Biso   1.000  C
  H191     1.0000 0.30973  0.96507  0.43617  Biso   1.000  H
  C465     1.0000 0.32733  0.00717  0.40467  Biso   1.000  C
  H192     1.0000 0.31073  0.01427  0.41187  Biso   1.000  H
  C466     1.0000 0.34233  0.93167  0.41867  Biso   1.000  C
  O119     1.0000 0.48393  0.15517  0.13207  Biso   1.000  O
  O120     1.0000 0.46643  0.19007  0.15057  Biso   1.000  O
  C467     1.0000 0.49093  0.18337  0.14617  Biso   1.000  C
  C468     1.0000 0.52973  0.21457  0.14917  Biso   1.000  C
  C469     1.0000 0.55913  0.21017  0.14457  Biso   1.000  C
  C470     1.0000 0.59343  0.23917  0.14767  Biso   1.000  C
  C471     1.0000 0.59833  0.27267  0.15537  Biso   1.000  C
  C472     1.0000 0.56893  0.27707  0.15997  Biso   1.000  C
  C473     1.0000 0.53463  0.24797  0.15687  Biso   1.000  C
  N54      1.0000 0.63573  0.33597  0.15517  Biso   1.000  N
  C474     1.0000 0.63613  0.30557  0.15517  Biso   1.000  C
  In13     1.0000 0.46625  0.37272  0.79099  Biso   1.000  In
  In14     1.0000 0.52917  0.62494  0.46729  Biso   1.000  In
  O121     1.0000 0.48890  0.43220  0.78890  Biso   1.000  O
  O122     1.0000 0.48850  0.40480  0.74490  Biso   1.000  O
  O123     1.0000 0.55520  0.65110  0.51490  Biso   1.000  O
  O124     1.0000 0.52790  0.59300  0.50920  Biso   1.000  O
  O125     1.0000 0.44360  0.33070  0.83030  Biso   1.000  O
  O126     1.0000 0.45740  0.38550  0.84120  Biso   1.000  O
  O127     1.0000 0.45090  0.17570  0.08070  Biso   1.000  O
  O128     1.0000 0.40450  0.16230  0.11010  Biso   1.000  O
  O129     1.0000 0.29850  0.37720  0.11480  Biso   1.000  O
  O130     1.0000 0.33530  0.42780  0.09110  Biso   1.000  O
  O131     1.0000 0.52200  0.38770  0.80790  Biso   1.000  O
  O132     1.0000 0.49330  0.34190  0.77560  Biso   1.000  O
  N55      1.0000 0.59360  0.59680  0.71490  Biso   1.000  N
  N56      1.0000 0.56070  0.57190  0.66770  Biso   1.000  N
  N57      1.0000 0.60600  0.63250  0.66920  Biso   1.000  N
  N58      1.0000 0.41590  0.29390  0.99460  Biso   1.000  N
  N59      1.0000 0.39150  0.30140  0.04240  Biso   1.000  N
  N60      1.0000 0.39980  0.33840  0.99790  Biso   1.000  N
  N61      1.0000 0.63260  0.30490  0.79260  Biso   1.000  N
  C475     1.0000 0.49610  0.43300  0.75910  Biso   1.000  C
  C476     1.0000 0.51470  0.46830  0.74350  Biso   1.000  C
  C477     1.0000 0.51620  0.47070  0.71090  Biso   1.000  C
  H193     1.0000 0.50590  0.44960  0.69830  Biso   1.000  H
  C478     1.0000 0.53270  0.50390  0.69610  Biso   1.000  C
  H194     1.0000 0.53290  0.50530  0.67340  Biso   1.000  H
  C479     1.0000 0.54870  0.53420  0.71340  Biso   1.000  C
  C480     1.0000 0.54790  0.53270  0.74640  Biso   1.000  C
  H195     1.0000 0.55900  0.55390  0.75880  Biso   1.000  H
  C481     1.0000 0.53020  0.49890  0.76120  Biso   1.000  C
  H196     1.0000 0.52900  0.49730  0.78380  Biso   1.000  H
  C482     1.0000 0.56830  0.56950  0.69780  Biso   1.000  C
  C483     1.0000 0.61220  0.62740  0.69960  Biso   1.000  C
  C484     1.0000 0.57870  0.60420  0.65440  Biso   1.000  C
  O133     1.0000 0.70520  0.75160  0.79680  Biso   1.000  O
  O134     1.0000 0.74870  0.75990  0.76620  Biso   1.000  O
  C485     1.0000 0.64130  0.65660  0.71740  Biso   1.000  C
  C486     1.0000 0.63790  0.65830  0.74980  Biso   1.000  C
  H197     1.0000 0.61770  0.63980  0.76040  Biso   1.000  H
  C487     1.0000 0.66310  0.68620  0.76700  Biso   1.000  C
  H198     1.0000 0.65950  0.68770  0.78920  Biso   1.000  H
  C488     1.0000 0.69100  0.70990  0.75370  Biso   1.000  C
  C489     1.0000 0.69810  0.70860  0.72100  Biso   1.000  C
  H199     1.0000 0.72030  0.72560  0.71180  Biso   1.000  H
  C490     1.0000 0.67110  0.68120  0.70240  Biso   1.000  C
  H200     1.0000 0.67380  0.68010  0.68000  Biso   1.000  H
  C491     1.0000 0.71660  0.74350  0.77270  Biso   1.000  C
  C492     1.0000 0.57050  0.60900  0.62190  Biso   1.000  C
  C493     1.0000 0.58410  0.64300  0.60890  Biso   1.000  C
  H201     1.0000 0.59880  0.66350  0.62140  Biso   1.000  H
  C494     1.0000 0.57640  0.64700  0.57800  Biso   1.000  C
  H202     1.0000 0.58650  0.67030  0.56900  Biso   1.000  H
  C495     1.0000 0.55370  0.61710  0.55970  Biso   1.000  C
  C496     1.0000 0.54010  0.58360  0.57290  Biso   1.000  C
  H203     1.0000 0.52510  0.56310  0.56050  Biso   1.000  H
  C497     1.0000 0.54780  0.57950  0.60360  Biso   1.000  C
  H204     1.0000 0.53750  0.55620  0.61260  Biso   1.000  H
  C498     1.0000 0.54520  0.62100  0.52590  Biso   1.000  C
  C499     1.0000 0.44560  0.35340  0.85000  Biso   1.000  C
  C500     1.0000 0.43340  0.36800  0.90420  Biso   1.000  C
  H205     1.0000 0.43710  0.39010  0.89610  Biso   1.000  H
  C501     1.0000 0.43670  0.34490  0.88420  Biso   1.000  C
  C502     1.0000 0.42480  0.36010  0.93560  Biso   1.000  C
  H206     1.0000 0.42190  0.37620  0.94900  Biso   1.000  H
  C503     1.0000 0.42010  0.32800  0.94810  Biso   1.000  C
  C504     1.0000 0.42370  0.30480  0.92810  Biso   1.000  C
  H207     1.0000 0.42090  0.28310  0.93630  Biso   1.000  H
  C505     1.0000 0.43120  0.31270  0.89630  Biso   1.000  C
  H208     1.0000 0.43260  0.29600  0.88260  Biso   1.000  H
  C506     1.0000 0.41130  0.31970  0.98190  Biso   1.000  C
  C507     1.0000 0.40550  0.28550  0.02420  Biso   1.000  C
  C508     1.0000 0.37370  0.34560  0.04630  Biso   1.000  C
  C509     1.0000 0.41120  0.25800  0.04010  Biso   1.000  C
  C510     1.0000 0.43170  0.24590  0.02610  Biso   1.000  C
  H209     1.0000 0.44150  0.25400  0.00550  Biso   1.000  H
  C511     1.0000 0.43800  0.22180  0.04220  Biso   1.000  C
  H210     1.0000 0.45460  0.21570  0.03370  Biso   1.000  H
  C512     1.0000 0.42110  0.20650  0.07000  Biso   1.000  C
  C513     1.0000 0.39780  0.21620  0.08270  Biso   1.000  C
  H211     1.0000 0.38500  0.20490  0.10160  Biso   1.000  H
  C514     1.0000 0.39260  0.24240  0.06840  Biso   1.000  C
  H212     1.0000 0.37700  0.24950  0.07750  Biso   1.000  H
  C515     1.0000 0.42470  0.17890  0.08750  Biso   1.000  C
  C516     1.0000 0.38930  0.32770  0.02810  Biso   1.000  C
  C517     1.0000 0.35200  0.32860  0.07240  Biso   1.000  C
  H213     1.0000 0.34840  0.30610  0.07920  Biso   1.000  H
  C518     1.0000 0.33600  0.34470  0.08860  Biso   1.000  C
  H214     1.0000 0.32080  0.33300  0.10630  Biso   1.000  H
  C519     1.0000 0.34190  0.37750  0.07900  Biso   1.000  C
  C520     1.0000 0.36380  0.39500  0.05310  Biso   1.000  C
  H215     1.0000 0.36800  0.41790  0.04690  Biso   1.000  H
  C521     1.0000 0.37920  0.37860  0.03640  Biso   1.000  C
  H216     1.0000 0.39350  0.38990  0.01820  Biso   1.000  H
  C522     1.0000 0.32460  0.39530  0.09570  Biso   1.000  C
  C523     1.0000 0.52070  0.36240  0.79230  Biso   1.000  C
  C524     1.0000 0.55130  0.35590  0.79330  Biso   1.000  C
  C525     1.0000 0.54840  0.32520  0.77960  Biso   1.000  C
  H217     1.0000 0.52660  0.30830  0.76990  Biso   1.000  H
  C526     1.0000 0.57670  0.31920  0.77990  Biso   1.000  C
  H218     1.0000 0.57410  0.29770  0.77120  Biso   1.000  H
  C527     1.0000 0.60880  0.34450  0.79280  Biso   1.000  C
  C528     1.0000 0.61240  0.37510  0.80630  Biso   1.000  C
  H219     1.0000 0.63470  0.39230  0.81540  Biso   1.000  H
  C529     1.0000 0.58320  0.38100  0.80650  Biso   1.000  C
  H220     1.0000 0.58550  0.40210  0.81580  Biso   1.000  H
  C530     1.0000 0.63980  0.33870  0.79250  Biso   1.000  C
  O135     1.0000 0.48300  0.63900  0.48400  Biso   1.000  O
  O136     1.0000 0.44800  0.58300  0.49200  Biso   1.000  O
  C531     1.0000 0.45750  0.61400  0.49970  Biso   1.000  C
  C532     1.0000 0.43060  0.62700  0.50710  Biso   1.000  C
  C533     1.0000 0.43950  0.66250  0.50970  Biso   1.000  C
  C534     1.0000 0.41320  0.67110  0.51630  Biso   1.000  C
  C535     1.0000 0.37800  0.64420  0.52000  Biso   1.000  C
  C536     1.0000 0.36900  0.60860  0.51770  Biso   1.000  C
  C537     1.0000 0.39530  0.60000  0.51100  Biso   1.000  C
  N62      1.0000 0.31470  0.62680  0.52000  Biso   1.000  N
  C538     1.0000 0.34790  0.65380  0.52000  Biso   1.000  C
  O137     1.0000 0.73600  0.75600  0.78200  Biso   1.000  O
  O138     1.0000 0.76560  0.75760  0.73790  Biso   1.000  O
  C539     1.0000 0.64150  0.65950  0.71400  Biso   1.000  C
  C540     1.0000 0.65200  0.69400  0.70430  Biso   1.000  C
  H221     1.0000 0.64010  0.69830  0.68770  Biso   1.000  H
  C541     1.0000 0.68180  0.72280  0.71880  Biso   1.000  C
  H222     1.0000 0.68930  0.74650  0.71200  Biso   1.000  H
  C542     1.0000 0.69980  0.71680  0.74300  Biso   1.000  C
  C543     1.0000 0.68900  0.68200  0.75290  Biso   1.000  C
  H223     1.0000 0.70160  0.67800  0.76950  Biso   1.000  H
  C544     1.0000 0.65950  0.65350  0.73800  Biso   1.000  C
  H224     1.0000 0.65240  0.62980  0.74520  Biso   1.000  H
  C545     1.0000 0.73500  0.74400  0.75200  Biso   1.000  C
  O139     1.0000 0.51150  0.66210  0.46540  Biso   1.000  O
  O140     1.0000 0.47660  0.60970  0.48390  Biso   1.000  O
  C546     1.0000 0.48330  0.64090  0.47950  Biso   1.000  C
  C547     1.0000 0.45210  0.64850  0.48250  Biso   1.000  C
  C548     1.0000 0.45650  0.68230  0.47790  Biso   1.000  C
  C549     1.0000 0.42750  0.68760  0.48100  Biso   1.000  C
  C550     1.0000 0.39400  0.65900  0.48870  Biso   1.000  C
  C551     1.0000 0.38960  0.62520  0.49330  Biso   1.000  C
  C552     1.0000 0.41870  0.62000  0.49020  Biso   1.000  C
  N63      1.0000 0.33070  0.63310  0.48850  Biso   1.000  N
  C553     1.0000 0.36110  0.66390  0.48850  Biso   1.000  C
  In15     1.0000 0.13292  0.70605  0.12432  Biso   1.000  In
  In16     1.0000 0.19584  0.95827  0.80062  Biso   1.000  In
  O141     1.0000 0.15557  0.76553  0.12223  Biso   1.000  O
  O142     1.0000 0.15517  0.73813  0.07823  Biso   1.000  O
  O143     1.0000 0.22187  0.98443  0.84823  Biso   1.000  O
  O144     1.0000 0.19457  0.92633  0.84253  Biso   1.000  O
  O145     1.0000 0.11027  0.66403  0.16363  Biso   1.000  O
  O146     1.0000 0.12407  0.71883  0.17453  Biso   1.000  O
  O147     1.0000 0.11757  0.50903  0.41403  Biso   1.000  O
  O148     1.0000 0.07117  0.49563  0.44343  Biso   1.000  O
  O149     1.0000 0.96517  0.71053  0.44813  Biso   1.000  O
  O150     1.0000 0.00197  0.76113  0.42443  Biso   1.000  O
  O151     1.0000 0.18867  0.72103  0.14123  Biso   1.000  O
  O152     1.0000 0.15997  0.67523  0.10893  Biso   1.000  O
  N64      1.0000 0.26027  0.93013  0.04823  Biso   1.000  N
  N65      1.0000 0.22737  0.90523  0.00103  Biso   1.000  N
  N66      1.0000 0.27267  0.96583  0.00253  Biso   1.000  N
  N67      1.0000 0.08257  0.62723  0.32793  Biso   1.000  N
  N68      1.0000 0.05817  0.63473  0.37573  Biso   1.000  N
  N69      1.0000 0.06647  0.67173  0.33123  Biso   1.000  N
  N70      1.0000 0.29927  0.63823  0.12593  Biso   1.000  N
  C554     1.0000 0.16277  0.76633  0.09243  Biso   1.000  C
  C555     1.0000 0.18137  0.80163  0.07683  Biso   1.000  C
  C556     1.0000 0.18287  0.80403  0.04423  Biso   1.000  C
  H225     1.0000 0.17257  0.78293  0.03163  Biso   1.000  H
  C557     1.0000 0.19937  0.83723  0.02943  Biso   1.000  C
  H226     1.0000 0.19957  0.83863  0.00673  Biso   1.000  H
  C558     1.0000 0.21537  0.86753  0.04673  Biso   1.000  C
  C559     1.0000 0.21457  0.86603  0.07973  Biso   1.000  C
  H227     1.0000 0.22567  0.88723  0.09213  Biso   1.000  H
  C560     1.0000 0.19687  0.83223  0.09453  Biso   1.000  C
  H228     1.0000 0.19567  0.83063  0.11713  Biso   1.000  H
  C561     1.0000 0.23497  0.90283  0.03113  Biso   1.000  C
  C562     1.0000 0.27887  0.96073  0.03293  Biso   1.000  C
  C563     1.0000 0.24537  0.93753  0.98773  Biso   1.000  C
  O153     1.0000 0.37187  0.08493  0.13013  Biso   1.000  O
  O154     1.0000 0.41537  0.09323  0.09953  Biso   1.000  O
  C564     1.0000 0.30797  0.98993  0.05073  Biso   1.000  C
  C565     1.0000 0.30457  0.99163  0.08313  Biso   1.000  C
  H229     1.0000 0.28437  0.97313  0.09373  Biso   1.000  H
  C566     1.0000 0.32977  0.01953  0.10033  Biso   1.000  C
  H230     1.0000 0.32617  0.02103  0.12253  Biso   1.000  H
  C567     1.0000 0.35767  0.04323  0.08703  Biso   1.000  C
  C568     1.0000 0.36477  0.04193  0.05433  Biso   1.000  C
  H231     1.0000 0.38697  0.05893  0.04513  Biso   1.000  H
  C569     1.0000 0.33777  0.01453  0.03573  Biso   1.000  C
  H232     1.0000 0.34047  0.01343  0.01333  Biso   1.000  H
  C570     1.0000 0.38327  0.07683  0.10603  Biso   1.000  C
  C571     1.0000 0.23717  0.94233  0.95523  Biso   1.000  C
  C572     1.0000 0.25077  0.97633  0.94223  Biso   1.000  C
  H233     1.0000 0.26547  0.99683  0.95473  Biso   1.000  H
  C573     1.0000 0.24307  0.98033  0.91133  Biso   1.000  C
  H234     1.0000 0.25317  0.00363  0.90233  Biso   1.000  H
  C574     1.0000 0.22037  0.95043  0.89303  Biso   1.000  C
  C575     1.0000 0.20677  0.91693  0.90623  Biso   1.000  C
  H235     1.0000 0.19177  0.89643  0.89383  Biso   1.000  H
  C576     1.0000 0.21447  0.91283  0.93693  Biso   1.000  C
  H236     1.0000 0.20417  0.88953  0.94593  Biso   1.000  H
  C577     1.0000 0.21187  0.95433  0.85923  Biso   1.000  C
  C578     1.0000 0.11227  0.68673  0.18333  Biso   1.000  C
  C579     1.0000 0.10007  0.70133  0.23753  Biso   1.000  C
  H237     1.0000 0.10377  0.72343  0.22943  Biso   1.000  H
  C580     1.0000 0.10337  0.67823  0.21753  Biso   1.000  C
  C581     1.0000 0.09147  0.69343  0.26893  Biso   1.000  C
  H238     1.0000 0.08857  0.70953  0.28233  Biso   1.000  H
  C582     1.0000 0.08677  0.66133  0.28143  Biso   1.000  C
  C583     1.0000 0.09037  0.63813  0.26143  Biso   1.000  C
  H239     1.0000 0.08757  0.61643  0.26963  Biso   1.000  H
  C584     1.0000 0.09787  0.64603  0.22963  Biso   1.000  C
  H240     1.0000 0.09927  0.62933  0.21593  Biso   1.000  H
  C585     1.0000 0.07797  0.65303  0.31523  Biso   1.000  C
  C586     1.0000 0.07217  0.61883  0.35753  Biso   1.000  C
  C587     1.0000 0.04037  0.67893  0.37963  Biso   1.000  C
  C588     1.0000 0.07787  0.59133  0.37343  Biso   1.000  C
  C589     1.0000 0.09837  0.57923  0.35943  Biso   1.000  C
  H241     1.0000 0.10817  0.58733  0.33883  Biso   1.000  H
  C590     1.0000 0.10467  0.55513  0.37553  Biso   1.000  C
  H242     1.0000 0.12127  0.54903  0.36703  Biso   1.000  H
  C591     1.0000 0.08777  0.53983  0.40333  Biso   1.000  C
  C592     1.0000 0.06447  0.54953  0.41603  Biso   1.000  C
  H243     1.0000 0.05167  0.53823  0.43493  Biso   1.000  H
  C593     1.0000 0.05927  0.57573  0.40173  Biso   1.000  C
  H244     1.0000 0.04367  0.58283  0.41083  Biso   1.000  H
  C594     1.0000 0.09137  0.51223  0.42083  Biso   1.000  C
  C595     1.0000 0.05597  0.66103  0.36143  Biso   1.000  C
  C596     1.0000 0.01867  0.66193  0.40573  Biso   1.000  C
  H245     1.0000 0.01507  0.63943  0.41253  Biso   1.000  H
  C597     1.0000 0.00267  0.67803  0.42193  Biso   1.000  C
  H246     1.0000 0.98747  0.66633  0.43963  Biso   1.000  H
  C598     1.0000 0.00857  0.71083  0.41233  Biso   1.000  C
  C599     1.0000 0.03047  0.72833  0.38643  Biso   1.000  C
  H247     1.0000 0.03467  0.75123  0.38023  Biso   1.000  H
  C600     1.0000 0.04587  0.71193  0.36973  Biso   1.000  C
  H248     1.0000 0.06017  0.72323  0.35153  Biso   1.000  H
  C601     1.0000 0.99127  0.72863  0.42903  Biso   1.000  C
  C602     1.0000 0.18737  0.69573  0.12563  Biso   1.000  C
  C603     1.0000 0.21797  0.68923  0.12663  Biso   1.000  C
  C604     1.0000 0.21507  0.65853  0.11293  Biso   1.000  C
  H249     1.0000 0.19327  0.64163  0.10323  Biso   1.000  H
  C605     1.0000 0.24337  0.65253  0.11323  Biso   1.000  C
  H250     1.0000 0.24077  0.63103  0.10453  Biso   1.000  H
  C606     1.0000 0.27547  0.67783  0.12613  Biso   1.000  C
  C607     1.0000 0.27907  0.70843  0.13963  Biso   1.000  C
  H251     1.0000 0.30137  0.72563  0.14873  Biso   1.000  H
  C608     1.0000 0.24987  0.71433  0.13983  Biso   1.000  C
  H252     1.0000 0.25217  0.73543  0.14913  Biso   1.000  H
  C609     1.0000 0.30647  0.67203  0.12583  Biso   1.000  C
  O155     1.0000 0.14967  0.97233  0.81733  Biso   1.000  O
  O156     1.0000 0.11467  0.91633  0.82533  Biso   1.000  O
  C610     1.0000 0.12417  0.94733  0.83303  Biso   1.000  C
  C611     1.0000 0.09727  0.96033  0.84043  Biso   1.000  C
  C612     1.0000 0.10617  0.99583  0.84303  Biso   1.000  C
  C613     1.0000 0.07987  0.00443  0.84963  Biso   1.000  C
  C614     1.0000 0.04467  0.97753  0.85333  Biso   1.000  C
  C615     1.0000 0.03567  0.94193  0.85103  Biso   1.000  C
  C616     1.0000 0.06197  0.93333  0.84433  Biso   1.000  C
  N71      1.0000 0.98137  0.96013  0.85333  Biso   1.000  N
  C617     1.0000 0.01457  0.98713  0.85333  Biso   1.000  C
  O157     1.0000 0.40267  0.08933  0.11533  Biso   1.000  O
  O158     1.0000 0.43227  0.09093  0.07123  Biso   1.000  O
  C618     1.0000 0.30817  0.99283  0.04733  Biso   1.000  C
  C619     1.0000 0.31867  0.02733  0.03763  Biso   1.000  C
  H253     1.0000 0.30677  0.03163  0.02103  Biso   1.000  H
  C620     1.0000 0.34847  0.05613  0.05213  Biso   1.000  C
  H254     1.0000 0.35597  0.07983  0.04533  Biso   1.000  H
  C621     1.0000 0.36647  0.05013  0.07633  Biso   1.000  C
  C622     1.0000 0.35567  0.01533  0.08623  Biso   1.000  C
  H255     1.0000 0.36827  0.01133  0.10283  Biso   1.000  H
  C623     1.0000 0.32617  0.98683  0.07133  Biso   1.000  C
  H256     1.0000 0.31907  0.96313  0.07853  Biso   1.000  H
  C624     1.0000 0.40167  0.07733  0.08533  Biso   1.000  C
  O159     1.0000 0.17817  0.99543  0.79873  Biso   1.000  O
  O160     1.0000 0.14327  0.94303  0.81723  Biso   1.000  O
  C625     1.0000 0.14997  0.97423  0.81283  Biso   1.000  C
  C626     1.0000 0.11877  0.98183  0.81583  Biso   1.000  C
  C627     1.0000 0.12317  0.01563  0.81123  Biso   1.000  C
  C628     1.0000 0.09417  0.02093  0.81433  Biso   1.000  C
  C629     1.0000 0.06067  0.99233  0.82203  Biso   1.000  C
  C630     1.0000 0.05627  0.95853  0.82663  Biso   1.000  C
  C631     1.0000 0.08537  0.95333  0.82353  Biso   1.000  C
  N72      1.0000 0.99737  0.96643  0.82183  Biso   1.000  N
  C632     1.0000 0.02777  0.99723  0.82183  Biso   1.000  C
  In17     1.0000 0.79958  0.03939  0.45766  Biso   1.000  In
  In18     1.0000 0.86250  0.29161  0.13396  Biso   1.000  In
  O161     1.0000 0.82223  0.09887  0.45557  Biso   1.000  O
  O162     1.0000 0.82183  0.07147  0.41157  Biso   1.000  O
  O163     1.0000 0.88853  0.31777  0.18157  Biso   1.000  O
  O164     1.0000 0.86123  0.25967  0.17587  Biso   1.000  O
  O165     1.0000 0.77693  0.99737  0.49697  Biso   1.000  O
  O166     1.0000 0.79073  0.05217  0.50787  Biso   1.000  O
  O167     1.0000 0.78423  0.84237  0.74737  Biso   1.000  O
  O168     1.0000 0.73783  0.82897  0.77677  Biso   1.000  O
  O169     1.0000 0.63183  0.04387  0.78147  Biso   1.000  O
  O170     1.0000 0.66863  0.09447  0.75777  Biso   1.000  O
  O171     1.0000 0.85533  0.05437  0.47457  Biso   1.000  O
  O172     1.0000 0.82663  0.00857  0.44227  Biso   1.000  O
  N73      1.0000 0.92693  0.26347  0.38157  Biso   1.000  N
  N74      1.0000 0.89403  0.23857  0.33437  Biso   1.000  N
  N75      1.0000 0.93933  0.29917  0.33587  Biso   1.000  N
  N76      1.0000 0.74923  0.96057  0.66127  Biso   1.000  N
  N77      1.0000 0.72483  0.96807  0.70907  Biso   1.000  N
  N78      1.0000 0.73313  0.00507  0.66457  Biso   1.000  N
  N79      1.0000 0.96593  0.97157  0.45927  Biso   1.000  N
  C633     1.0000 0.82943  0.09967  0.42577  Biso   1.000  C
  C634     1.0000 0.84803  0.13497  0.41017  Biso   1.000  C
  C635     1.0000 0.84953  0.13737  0.37757  Biso   1.000  C
  H257     1.0000 0.83923  0.11627  0.36497  Biso   1.000  H
  C636     1.0000 0.86603  0.17057  0.36277  Biso   1.000  C
  H258     1.0000 0.86623  0.17197  0.34007  Biso   1.000  H
  C637     1.0000 0.88203  0.20087  0.38007  Biso   1.000  C
  C638     1.0000 0.88123  0.19937  0.41307  Biso   1.000  C
  H259     1.0000 0.89233  0.22057  0.42547  Biso   1.000  H
  C639     1.0000 0.86353  0.16557  0.42787  Biso   1.000  C
  H260     1.0000 0.86233  0.16397  0.45047  Biso   1.000  H
  C640     1.0000 0.90163  0.23617  0.36447  Biso   1.000  C
  C641     1.0000 0.94553  0.29407  0.36627  Biso   1.000  C
  C642     1.0000 0.91203  0.27087  0.32107  Biso   1.000  C
  O173     1.0000 0.03853  0.41827  0.46347  Biso   1.000  O
  O174     1.0000 0.08203  0.42657  0.43287  Biso   1.000  O
  C643     1.0000 0.97463  0.32327  0.38407  Biso   1.000  C
  C644     1.0000 0.97123  0.32497  0.41647  Biso   1.000  C
  H261     1.0000 0.95103  0.30647  0.42707  Biso   1.000  H
  C645     1.0000 0.99643  0.35287  0.43367  Biso   1.000  C
  H262     1.0000 0.99283  0.35437  0.45587  Biso   1.000  H
  C646     1.0000 0.02433  0.37657  0.42037  Biso   1.000  C
  C647     1.0000 0.03143  0.37527  0.38767  Biso   1.000  C
  H263     1.0000 0.05363  0.39227  0.37847  Biso   1.000  H
  C648     1.0000 0.00443  0.34787  0.36907  Biso   1.000  C
  H264     1.0000 0.00713  0.34677  0.34667  Biso   1.000  H
  C649     1.0000 0.04993  0.41017  0.43937  Biso   1.000  C
  C650     1.0000 0.90383  0.27567  0.28857  Biso   1.000  C
  C651     1.0000 0.91743  0.30967  0.27557  Biso   1.000  C
  H265     1.0000 0.93213  0.33017  0.28807  Biso   1.000  H
  C652     1.0000 0.90973  0.31367  0.24467  Biso   1.000  C
  H266     1.0000 0.91983  0.33697  0.23567  Biso   1.000  H
  C653     1.0000 0.88703  0.28377  0.22637  Biso   1.000  C
  C654     1.0000 0.87343  0.25027  0.23957  Biso   1.000  C
  H267     1.0000 0.85843  0.22977  0.22717  Biso   1.000  H
  C655     1.0000 0.88113  0.24617  0.27027  Biso   1.000  C
  H268     1.0000 0.87083  0.22287  0.27927  Biso   1.000  H
  C656     1.0000 0.87853  0.28767  0.19257  Biso   1.000  C
  C657     1.0000 0.77893  0.02007  0.51667  Biso   1.000  C
  C658     1.0000 0.76673  0.03467  0.57087  Biso   1.000  C
  H269     1.0000 0.77043  0.05677  0.56277  Biso   1.000  H
  C659     1.0000 0.77003  0.01157  0.55087  Biso   1.000  C
  C660     1.0000 0.75813  0.02677  0.60227  Biso   1.000  C
  H270     1.0000 0.75523  0.04287  0.61567  Biso   1.000  H
  C661     1.0000 0.75343  0.99467  0.61477  Biso   1.000  C
  C662     1.0000 0.75703  0.97147  0.59477  Biso   1.000  C
  H271     1.0000 0.75423  0.94977  0.60297  Biso   1.000  H
  C663     1.0000 0.76453  0.97937  0.56297  Biso   1.000  C
  H272     1.0000 0.76593  0.96267  0.54927  Biso   1.000  H
  C664     1.0000 0.74463  0.98637  0.64857  Biso   1.000  C
  C665     1.0000 0.73883  0.95217  0.69087  Biso   1.000  C
  C666     1.0000 0.70703  0.01227  0.71297  Biso   1.000  C
  C667     1.0000 0.74453  0.92467  0.70677  Biso   1.000  C
  C668     1.0000 0.76503  0.91257  0.69277  Biso   1.000  C
  H273     1.0000 0.77483  0.92067  0.67217  Biso   1.000  H
  C669     1.0000 0.77133  0.88847  0.70887  Biso   1.000  C
  H274     1.0000 0.78793  0.88237  0.70037  Biso   1.000  H
  C670     1.0000 0.75443  0.87317  0.73667  Biso   1.000  C
  C671     1.0000 0.73113  0.88287  0.74937  Biso   1.000  C
  H275     1.0000 0.71833  0.87157  0.76827  Biso   1.000  H
  C672     1.0000 0.72593  0.90907  0.73507  Biso   1.000  C
  H276     1.0000 0.71033  0.91617  0.74417  Biso   1.000  H
  C673     1.0000 0.75803  0.84557  0.75417  Biso   1.000  C
  C674     1.0000 0.72263  0.99437  0.69477  Biso   1.000  C
  C675     1.0000 0.68533  0.99527  0.73907  Biso   1.000  C
  H277     1.0000 0.68173  0.97277  0.74587  Biso   1.000  H
  C676     1.0000 0.66933  0.01137  0.75527  Biso   1.000  C
  H278     1.0000 0.65413  0.99967  0.77297  Biso   1.000  H
  C677     1.0000 0.67523  0.04417  0.74567  Biso   1.000  C
  C678     1.0000 0.69713  0.06167  0.71977  Biso   1.000  C
  H279     1.0000 0.70133  0.08457  0.71357  Biso   1.000  H
  C679     1.0000 0.71253  0.04527  0.70307  Biso   1.000  C
  H280     1.0000 0.72683  0.05657  0.68487  Biso   1.000  H
  C680     1.0000 0.65793  0.06197  0.76237  Biso   1.000  C
  C681     1.0000 0.85403  0.02907  0.45897  Biso   1.000  C
  C682     1.0000 0.88463  0.02257  0.45997  Biso   1.000  C
  C683     1.0000 0.88173  0.99187  0.44627  Biso   1.000  C
  H281     1.0000 0.85993  0.97497  0.43657  Biso   1.000  H
  C684     1.0000 0.91003  0.98587  0.44657  Biso   1.000  C
  H282     1.0000 0.90743  0.96437  0.43787  Biso   1.000  H
  C685     1.0000 0.94213  0.01117  0.45947  Biso   1.000  C
  C686     1.0000 0.94573  0.04177  0.47297  Biso   1.000  C
  H283     1.0000 0.96803  0.05897  0.48207  Biso   1.000  H
  C687     1.0000 0.91653  0.04767  0.47317  Biso   1.000  C
  H284     1.0000 0.91883  0.06877  0.48247  Biso   1.000  H
  C688     1.0000 0.97313  0.00537  0.45917  Biso   1.000  C
  O175     1.0000 0.81633  0.30567  0.15067  Biso   1.000  O
  O176     1.0000 0.78133  0.24967  0.15867  Biso   1.000  O
  C689     1.0000 0.79083  0.28067  0.16637  Biso   1.000  C
  C690     1.0000 0.76393  0.29367  0.17377  Biso   1.000  C
  C691     1.0000 0.77283  0.32917  0.17637  Biso   1.000  C
  C692     1.0000 0.74653  0.33777  0.18297  Biso   1.000  C
  C693     1.0000 0.71133  0.31087  0.18667  Biso   1.000  C
  C694     1.0000 0.70233  0.27527  0.18437  Biso   1.000  C
  C695     1.0000 0.72863  0.26667  0.17767  Biso   1.000  C
  N80      1.0000 0.64803  0.29347  0.18667  Biso   1.000  N
  C696     1.0000 0.68123  0.32047  0.18667  Biso   1.000  C
  O177     1.0000 0.06933  0.42267  0.44867  Biso   1.000  O
  O178     1.0000 0.09893  0.42427  0.40457  Biso   1.000  O
  C697     1.0000 0.97483  0.32617  0.38067  Biso   1.000  C
  C698     1.0000 0.98533  0.36067  0.37097  Biso   1.000  C
  H285     1.0000 0.97343  0.36497  0.35437  Biso   1.000  H
  C699     1.0000 0.01513  0.38947  0.38547  Biso   1.000  C
  H286     1.0000 0.02263  0.41317  0.37867  Biso   1.000  H
  C700     1.0000 0.03313  0.38347  0.40967  Biso   1.000  C
  C701     1.0000 0.02233  0.34867  0.41957  Biso   1.000  C
  H287     1.0000 0.03493  0.34467  0.43617  Biso   1.000  H
  C702     1.0000 0.99283  0.32017  0.40467  Biso   1.000  C
  H288     1.0000 0.98573  0.29647  0.41187  Biso   1.000  H
  C703     1.0000 0.06833  0.41067  0.41867  Biso   1.000  C
  O179     1.0000 0.84483  0.32877  0.13207  Biso   1.000  O
  O180     1.0000 0.80993  0.27637  0.15057  Biso   1.000  O
  C704     1.0000 0.81663  0.30757  0.14617  Biso   1.000  C
  C705     1.0000 0.78543  0.31517  0.14917  Biso   1.000  C
  C706     1.0000 0.78983  0.34897  0.14457  Biso   1.000  C
  C707     1.0000 0.76083  0.35427  0.14767  Biso   1.000  C
  C708     1.0000 0.72733  0.32567  0.15537  Biso   1.000  C
  C709     1.0000 0.72293  0.29187  0.15997  Biso   1.000  C
  C710     1.0000 0.75203  0.28667  0.15687  Biso   1.000  C
  N81      1.0000 0.66403  0.29977  0.15517  Biso   1.000  N
  C711     1.0000 0.69443  0.33057  0.15517  Biso   1.000  C
  In19     1.0000 0.37272  0.90647  0.20901  Biso   1.000  In
  In20     1.0000 0.62494  0.09577  0.53271  Biso   1.000  In
  O181     1.0000 0.43220  0.94330  0.21110  Biso   1.000  O
  O182     1.0000 0.40480  0.91630  0.25510  Biso   1.000  O
  O183     1.0000 0.65110  0.09590  0.48510  Biso   1.000  O
  O184     1.0000 0.59300  0.06510  0.49080  Biso   1.000  O
  O185     1.0000 0.33070  0.88710  0.16970  Biso   1.000  O
  O186     1.0000 0.38550  0.92810  0.15880  Biso   1.000  O
  O187     1.0000 0.17570  0.72480  0.91930  Biso   1.000  O
  O188     1.0000 0.16230  0.75780  0.88990  Biso   1.000  O
  O189     1.0000 0.37720  0.07870  0.88520  Biso   1.000  O
  O190     1.0000 0.42780  0.09250  0.90890  Biso   1.000  O
  O191     1.0000 0.38770  0.86570  0.19210  Biso   1.000  O
  O192     1.0000 0.34190  0.84860  0.22440  Biso   1.000  O
  N82      1.0000 0.59680  0.00320  0.28510  Biso   1.000  N
  N83      1.0000 0.57190  0.01120  0.33230  Biso   1.000  N
  N84      1.0000 0.63250  0.02650  0.33080  Biso   1.000  N
  N85      1.0000 0.29390  0.87800  0.00540  Biso   1.000  N
  N86      1.0000 0.30140  0.90990  0.95760  Biso   1.000  N
  N87      1.0000 0.33840  0.93860  0.00210  Biso   1.000  N
  N88      1.0000 0.30490  0.67230  0.20740  Biso   1.000  N
  C712     1.0000 0.43300  0.93690  0.24090  Biso   1.000  C
  C713     1.0000 0.46830  0.95360  0.25650  Biso   1.000  C
  C714     1.0000 0.47070  0.95450  0.28910  Biso   1.000  C
  H289     1.0000 0.44960  0.94370  0.30170  Biso   1.000  H
  C715     1.0000 0.50390  0.97120  0.30390  Biso   1.000  C
  H290     1.0000 0.50530  0.97240  0.32660  Biso   1.000  H
  C716     1.0000 0.53420  0.98550  0.28660  Biso   1.000  C
  C717     1.0000 0.53270  0.98480  0.25360  Biso   1.000  C
  H291     1.0000 0.55390  0.99490  0.24120  Biso   1.000  H
  C718     1.0000 0.49890  0.96870  0.23880  Biso   1.000  C
  H292     1.0000 0.49730  0.96830  0.21620  Biso   1.000  H
  C719     1.0000 0.56950  0.00120  0.30220  Biso   1.000  C
  C720     1.0000 0.62740  0.01520  0.30040  Biso   1.000  C
  C721     1.0000 0.60420  0.02550  0.34560  Biso   1.000  C
  O193     1.0000 0.75160  0.04640  0.20320  Biso   1.000  O
  O194     1.0000 0.75990  0.01120  0.23380  Biso   1.000  O
  C722     1.0000 0.65660  0.01530  0.28260  Biso   1.000  C
  C723     1.0000 0.65830  0.02040  0.25020  Biso   1.000  C
  H293     1.0000 0.63980  0.02210  0.23960  Biso   1.000  H
  C724     1.0000 0.68620  0.02310  0.23300  Biso   1.000  C
  H294     1.0000 0.68770  0.02820  0.21080  Biso   1.000  H
  C725     1.0000 0.70990  0.01890  0.24630  Biso   1.000  C
  C726     1.0000 0.70860  0.01050  0.27900  Biso   1.000  C
  H295     1.0000 0.72560  0.00530  0.28820  Biso   1.000  H
  C727     1.0000 0.68120  0.01010  0.29760  Biso   1.000  C
  H296     1.0000 0.68010  0.00630  0.32000  Biso   1.000  H
  C728     1.0000 0.74350  0.02690  0.22730  Biso   1.000  C
  C729     1.0000 0.60900  0.03850  0.37810  Biso   1.000  C
  C730     1.0000 0.64300  0.05890  0.39110  Biso   1.000  C
  H297     1.0000 0.66350  0.06470  0.37860  Biso   1.000  H
  C731     1.0000 0.64700  0.07060  0.42200  Biso   1.000  C
  H298     1.0000 0.67030  0.08380  0.43100  Biso   1.000  H
  C732     1.0000 0.61710  0.06340  0.44030  Biso   1.000  C
  C733     1.0000 0.58360  0.04350  0.42710  Biso   1.000  C
  H299     1.0000 0.56310  0.03800  0.43950  Biso   1.000  H
  C734     1.0000 0.57950  0.03170  0.39640  Biso   1.000  C
  H300     1.0000 0.55620  0.01870  0.38740  Biso   1.000  H
  C735     1.0000 0.62100  0.07580  0.47410  Biso   1.000  C
  C736     1.0000 0.35340  0.90780  0.15000  Biso   1.000  C
  C737     1.0000 0.36800  0.93460  0.09580  Biso   1.000  C
  H301     1.0000 0.39010  0.95300  0.10390  Biso   1.000  H
  C738     1.0000 0.34490  0.90820  0.11580  Biso   1.000  C
  C739     1.0000 0.36010  0.93530  0.06440  Biso   1.000  C
  H302     1.0000 0.37620  0.95430  0.05100  Biso   1.000  H
  C740     1.0000 0.32800  0.90790  0.05190  Biso   1.000  C
  C741     1.0000 0.30480  0.88110  0.07190  Biso   1.000  C
  H303     1.0000 0.28310  0.86220  0.06370  Biso   1.000  H
  C742     1.0000 0.31270  0.88150  0.10370  Biso   1.000  C
  H304     1.0000 0.29600  0.86340  0.11740  Biso   1.000  H
  C743     1.0000 0.31970  0.90840  0.01810  Biso   1.000  C
  C744     1.0000 0.28550  0.88000  0.97580  Biso   1.000  C
  C745     1.0000 0.34560  0.97190  0.95370  Biso   1.000  C
  C746     1.0000 0.25800  0.84680  0.95990  Biso   1.000  C
  C747     1.0000 0.24590  0.81420  0.97390  Biso   1.000  C
  H305     1.0000 0.25400  0.81250  0.99450  Biso   1.000  H
  C748     1.0000 0.22180  0.78380  0.95780  Biso   1.000  C
  H306     1.0000 0.21570  0.76110  0.96630  Biso   1.000  H
  C749     1.0000 0.20650  0.78540  0.93000  Biso   1.000  C
  C750     1.0000 0.21620  0.81840  0.91730  Biso   1.000  C
  H307     1.0000 0.20490  0.81990  0.89840  Biso   1.000  H
  C751     1.0000 0.24240  0.84980  0.93160  Biso   1.000  C
  H308     1.0000 0.24950  0.87250  0.92250  Biso   1.000  H
  C752     1.0000 0.17890  0.75420  0.91250  Biso   1.000  C
  C753     1.0000 0.32770  0.93840  0.97190  Biso   1.000  C
  C754     1.0000 0.32860  0.97660  0.92760  Biso   1.000  C
  H309     1.0000 0.30610  0.95770  0.92080  Biso   1.000  H
  C755     1.0000 0.34470  0.00870  0.91140  Biso   1.000  C
  H310     1.0000 0.33300  0.01220  0.89370  Biso   1.000  H
  C756     1.0000 0.37750  0.03560  0.92100  Biso   1.000  C
  C757     1.0000 0.39500  0.03120  0.94690  Biso   1.000  C
  H311     1.0000 0.41790  0.04990  0.95310  Biso   1.000  H
  C758     1.0000 0.37860  0.99940  0.96360  Biso   1.000  C
  H312     1.0000 0.38990  0.99640  0.98180  Biso   1.000  H
  C759     1.0000 0.39530  0.07070  0.90430  Biso   1.000  C
  C760     1.0000 0.36240  0.84170  0.20770  Biso   1.000  C
  C761     1.0000 0.35590  0.80460  0.20670  Biso   1.000  C
  C762     1.0000 0.32520  0.77680  0.22040  Biso   1.000  C
  H313     1.0000 0.30830  0.78170  0.23010  Biso   1.000  H
  C763     1.0000 0.31920  0.74250  0.22010  Biso   1.000  C
  H314     1.0000 0.29770  0.72360  0.22880  Biso   1.000  H
  C764     1.0000 0.34450  0.73570  0.20720  Biso   1.000  C
  C765     1.0000 0.37510  0.76270  0.19370  Biso   1.000  C
  H315     1.0000 0.39230  0.75760  0.18460  Biso   1.000  H
  C766     1.0000 0.38100  0.79780  0.19350  Biso   1.000  C
  H316     1.0000 0.40210  0.81660  0.18420  Biso   1.000  H
  C767     1.0000 0.33870  0.69890  0.20750  Biso   1.000  C
  O195     1.0000 0.63900  0.15600  0.51600  Biso   1.000  O
  O196     1.0000 0.58300  0.13500  0.50800  Biso   1.000  O
  C768     1.0000 0.61400  0.15650  0.50030  Biso   1.000  C
  C769     1.0000 0.62700  0.19640  0.49290  Biso   1.000  C
  C770     1.0000 0.66250  0.22300  0.49030  Biso   1.000  C
  C771     1.0000 0.67110  0.25790  0.48370  Biso   1.000  C
  C772     1.0000 0.64420  0.26620  0.48000  Biso   1.000  C
  C773     1.0000 0.60860  0.23960  0.48230  Biso   1.000  C
  C774     1.0000 0.60000  0.20470  0.48900  Biso   1.000  C
  N89      1.0000 0.62680  0.31210  0.48000  Biso   1.000  N
  C775     1.0000 0.65380  0.30590  0.48000  Biso   1.000  C
  O197     1.0000 0.75600  0.02000  0.21800  Biso   1.000  O
  O198     1.0000 0.75760  0.99200  0.26210  Biso   1.000  O
  C776     1.0000 0.65950  0.01800  0.28600  Biso   1.000  C
  C777     1.0000 0.69400  0.04200  0.29570  Biso   1.000  C
  H317     1.0000 0.69830  0.05820  0.31230  Biso   1.000  H
  C778     1.0000 0.72280  0.04100  0.28120  Biso   1.000  C
  H318     1.0000 0.74650  0.05720  0.28800  Biso   1.000  H
  C779     1.0000 0.71680  0.01700  0.25700  Biso   1.000  C
  C780     1.0000 0.68200  0.99300  0.24710  Biso   1.000  C
  H319     1.0000 0.67800  0.97640  0.23050  Biso   1.000  H
  C781     1.0000 0.65350  0.99400  0.26200  Biso   1.000  C
  H320     1.0000 0.62980  0.97740  0.25480  Biso   1.000  H
  C782     1.0000 0.74400  0.00900  0.24800  Biso   1.000  C
  O199     1.0000 0.66210  0.15060  0.53460  Biso   1.000  O
  O200     1.0000 0.60970  0.13310  0.51610  Biso   1.000  O
  C783     1.0000 0.64090  0.15760  0.52050  Biso   1.000  C
  C784     1.0000 0.64850  0.19640  0.51750  Biso   1.000  C
  C785     1.0000 0.68230  0.22580  0.52210  Biso   1.000  C
  C786     1.0000 0.68760  0.26010  0.51900  Biso   1.000  C
  C787     1.0000 0.65900  0.26500  0.51130  Biso   1.000  C
  C788     1.0000 0.62520  0.23560  0.50670  Biso   1.000  C
  C789     1.0000 0.62000  0.20130  0.50980  Biso   1.000  C
  N90      1.0000 0.63310  0.30240  0.51150  Biso   1.000  N
  C790     1.0000 0.66390  0.30280  0.51150  Biso   1.000  C
  In21     1.0000 0.03939  0.23980  0.54234  Biso   1.000  In
  In22     1.0000 0.29161  0.42910  0.86604  Biso   1.000  In
  O201     1.0000 0.09887  0.27663  0.54443  Biso   1.000  O
  O202     1.0000 0.07147  0.24963  0.58843  Biso   1.000  O
  O203     1.0000 0.31777  0.42923  0.81843  Biso   1.000  O
  O204     1.0000 0.25967  0.39843  0.82413  Biso   1.000  O
  O205     1.0000 0.99737  0.22043  0.50303  Biso   1.000  O
  O206     1.0000 0.05217  0.26143  0.49213  Biso   1.000  O
  O207     1.0000 0.84237  0.05813  0.25263  Biso   1.000  O
  O208     1.0000 0.82897  0.09113  0.22323  Biso   1.000  O
  O209     1.0000 0.04387  0.41203  0.21853  Biso   1.000  O
  O210     1.0000 0.09447  0.42583  0.24223  Biso   1.000  O
  O211     1.0000 0.05437  0.19903  0.52543  Biso   1.000  O
  O212     1.0000 0.00857  0.18193  0.55773  Biso   1.000  O
  N91      1.0000 0.26347  0.33653  0.61843  Biso   1.000  N
  N92      1.0000 0.23857  0.34453  0.66563  Biso   1.000  N
  N93      1.0000 0.29917  0.35983  0.66413  Biso   1.000  N
  N94      1.0000 0.96057  0.21133  0.33873  Biso   1.000  N
  N95      1.0000 0.96807  0.24323  0.29093  Biso   1.000  N
  N96      1.0000 0.00507  0.27193  0.33543  Biso   1.000  N
  N97      1.0000 0.97157  0.00563  0.54073  Biso   1.000  N
  C791     1.0000 0.09967  0.27023  0.57423  Biso   1.000  C
  C792     1.0000 0.13497  0.28693  0.58983  Biso   1.000  C
  C793     1.0000 0.13737  0.28783  0.62243  Biso   1.000  C
  H321     1.0000 0.11627  0.27703  0.63503  Biso   1.000  H
  C794     1.0000 0.17057  0.30453  0.63723  Biso   1.000  C
  H322     1.0000 0.17197  0.30573  0.65993  Biso   1.000  H
  C795     1.0000 0.20087  0.31883  0.61993  Biso   1.000  C
  C796     1.0000 0.19937  0.31813  0.58693  Biso   1.000  C
  H323     1.0000 0.22057  0.32823  0.57453  Biso   1.000  H
  C797     1.0000 0.16557  0.30203  0.57213  Biso   1.000  C
  H324     1.0000 0.16397  0.30163  0.54953  Biso   1.000  H
  C798     1.0000 0.23617  0.33453  0.63553  Biso   1.000  C
  C799     1.0000 0.29407  0.34853  0.63373  Biso   1.000  C
  C800     1.0000 0.27087  0.35883  0.67893  Biso   1.000  C
  O213     1.0000 0.41827  0.37973  0.53653  Biso   1.000  O
  O214     1.0000 0.42657  0.34453  0.56713  Biso   1.000  O
  C801     1.0000 0.32327  0.34863  0.61593  Biso   1.000  C
  C802     1.0000 0.32497  0.35373  0.58353  Biso   1.000  C
  H325     1.0000 0.30647  0.35543  0.57293  Biso   1.000  H
  C803     1.0000 0.35287  0.35643  0.56633  Biso   1.000  C
  H326     1.0000 0.35437  0.36153  0.54413  Biso   1.000  H
  C804     1.0000 0.37657  0.35223  0.57963  Biso   1.000  C
  C805     1.0000 0.37527  0.34383  0.61233  Biso   1.000  C
  H327     1.0000 0.39227  0.33863  0.62153  Biso   1.000  H
  C806     1.0000 0.34787  0.34343  0.63093  Biso   1.000  C
  H328     1.0000 0.34677  0.33963  0.65333  Biso   1.000  H
  C807     1.0000 0.41017  0.36023  0.56063  Biso   1.000  C
  C808     1.0000 0.27567  0.37183  0.71143  Biso   1.000  C
  C809     1.0000 0.30967  0.39223  0.72443  Biso   1.000  C
  H329     1.0000 0.33017  0.39803  0.71193  Biso   1.000  H
  C810     1.0000 0.31367  0.40393  0.75533  Biso   1.000  C
  H330     1.0000 0.33697  0.41713  0.76433  Biso   1.000  H
  C811     1.0000 0.28377  0.39673  0.77363  Biso   1.000  C
  C812     1.0000 0.25027  0.37683  0.76043  Biso   1.000  C
  H331     1.0000 0.22977  0.37133  0.77283  Biso   1.000  H
  C813     1.0000 0.24617  0.36503  0.72973  Biso   1.000  C
  H332     1.0000 0.22287  0.35203  0.72073  Biso   1.000  H
  C814     1.0000 0.28767  0.40913  0.80743  Biso   1.000  C
  C815     1.0000 0.02007  0.24113  0.48333  Biso   1.000  C
  C816     1.0000 0.03467  0.26793  0.42913  Biso   1.000  C
  H333     1.0000 0.05677  0.28633  0.43723  Biso   1.000  H
  C817     1.0000 0.01157  0.24153  0.44913  Biso   1.000  C
  C818     1.0000 0.02677  0.26863  0.39773  Biso   1.000  C
  H334     1.0000 0.04287  0.28763  0.38433  Biso   1.000  H
  C819     1.0000 0.99467  0.24123  0.38523  Biso   1.000  C
  C820     1.0000 0.97147  0.21443  0.40523  Biso   1.000  C
  H335     1.0000 0.94977  0.19553  0.39703  Biso   1.000  H
  C821     1.0000 0.97937  0.21483  0.43703  Biso   1.000  C
  H336     1.0000 0.96267  0.19673  0.45073  Biso   1.000  H
  C822     1.0000 0.98637  0.24173  0.35143  Biso   1.000  C
  C823     1.0000 0.95217  0.21333  0.30913  Biso   1.000  C
  C824     1.0000 0.01227  0.30523  0.28703  Biso   1.000  C
  C825     1.0000 0.92467  0.18013  0.29323  Biso   1.000  C
  C826     1.0000 0.91257  0.14753  0.30723  Biso   1.000  C
  H337     1.0000 0.92067  0.14583  0.32783  Biso   1.000  H
  C827     1.0000 0.88847  0.11713  0.29113  Biso   1.000  C
  H338     1.0000 0.88237  0.09443  0.29963  Biso   1.000  H
  C828     1.0000 0.87317  0.11873  0.26333  Biso   1.000  C
  C829     1.0000 0.88287  0.15173  0.25063  Biso   1.000  C
  H339     1.0000 0.87157  0.15323  0.23173  Biso   1.000  H
  C830     1.0000 0.90907  0.18313  0.26493  Biso   1.000  C
  H340     1.0000 0.91617  0.20583  0.25583  Biso   1.000  H
  C831     1.0000 0.84557  0.08753  0.24583  Biso   1.000  C
  C832     1.0000 0.99437  0.27173  0.30523  Biso   1.000  C
  C833     1.0000 0.99527  0.30993  0.26093  Biso   1.000  C
  H341     1.0000 0.97277  0.29103  0.25413  Biso   1.000  H
  C834     1.0000 0.01137  0.34203  0.24473  Biso   1.000  C
  H342     1.0000 0.99967  0.34553  0.22703  Biso   1.000  H
  C835     1.0000 0.04417  0.36893  0.25433  Biso   1.000  C
  C836     1.0000 0.06167  0.36453  0.28023  Biso   1.000  C
  H343     1.0000 0.08457  0.38323  0.28643  Biso   1.000  H
  C837     1.0000 0.04527  0.33273  0.29693  Biso   1.000  C
  H344     1.0000 0.05657  0.32973  0.31513  Biso   1.000  H
  C838     1.0000 0.06197  0.40403  0.23763  Biso   1.000  C
  C839     1.0000 0.02907  0.17503  0.54103  Biso   1.000  C
  C840     1.0000 0.02257  0.13793  0.54003  Biso   1.000  C
  C841     1.0000 0.99187  0.11013  0.55373  Biso   1.000  C
  H345     1.0000 0.97497  0.11503  0.56343  Biso   1.000  H
  C842     1.0000 0.98587  0.07583  0.55343  Biso   1.000  C
  H346     1.0000 0.96437  0.05693  0.56213  Biso   1.000  H
  C843     1.0000 0.01117  0.06903  0.54053  Biso   1.000  C
  C844     1.0000 0.04177  0.09603  0.52703  Biso   1.000  C
  H347     1.0000 0.05897  0.09093  0.51793  Biso   1.000  H
  C845     1.0000 0.04767  0.13113  0.52683  Biso   1.000  C
  H348     1.0000 0.06877  0.14993  0.51753  Biso   1.000  H
  C846     1.0000 0.00537  0.03223  0.54083  Biso   1.000  C
  O215     1.0000 0.30567  0.48933  0.84933  Biso   1.000  O
  O216     1.0000 0.24967  0.46833  0.84133  Biso   1.000  O
  C847     1.0000 0.28067  0.48983  0.83363  Biso   1.000  C
  C848     1.0000 0.29367  0.52973  0.82623  Biso   1.000  C
  C849     1.0000 0.32917  0.55633  0.82363  Biso   1.000  C
  C850     1.0000 0.33777  0.59123  0.81703  Biso   1.000  C
  C851     1.0000 0.31087  0.59953  0.81333  Biso   1.000  C
  C852     1.0000 0.27527  0.57293  0.81563  Biso   1.000  C
  C853     1.0000 0.26667  0.53803  0.82233  Biso   1.000  C
  N98      1.0000 0.29347  0.64543  0.81333  Biso   1.000  N
  C854     1.0000 0.32047  0.63923  0.81333  Biso   1.000  C
  O217     1.0000 0.42267  0.35333  0.55133  Biso   1.000  O
  O218     1.0000 0.42427  0.32533  0.59543  Biso   1.000  O
  C855     1.0000 0.32617  0.35133  0.61933  Biso   1.000  C
  C856     1.0000 0.36067  0.37533  0.62903  Biso   1.000  C
  H349     1.0000 0.36497  0.39153  0.64563  Biso   1.000  H
  C857     1.0000 0.38947  0.37433  0.61453  Biso   1.000  C
  H350     1.0000 0.41317  0.39053  0.62133  Biso   1.000  H
  C858     1.0000 0.38347  0.35033  0.59033  Biso   1.000  C
  C859     1.0000 0.34867  0.32633  0.58043  Biso   1.000  C
  H351     1.0000 0.34467  0.30973  0.56383  Biso   1.000  H
  C860     1.0000 0.32017  0.32733  0.59533  Biso   1.000  C
  H352     1.0000 0.29647  0.31073  0.58813  Biso   1.000  H
  C861     1.0000 0.41067  0.34233  0.58133  Biso   1.000  C
  O219     1.0000 0.32877  0.48393  0.86793  Biso   1.000  O
  O220     1.0000 0.27637  0.46643  0.84943  Biso   1.000  O
  C862     1.0000 0.30757  0.49093  0.85383  Biso   1.000  C
  C863     1.0000 0.31517  0.52973  0.85083  Biso   1.000  C
  C864     1.0000 0.34897  0.55913  0.85543  Biso   1.000  C
  C865     1.0000 0.35427  0.59343  0.85233  Biso   1.000  C
  C866     1.0000 0.32567  0.59833  0.84463  Biso   1.000  C
  C867     1.0000 0.29187  0.56893  0.84003  Biso   1.000  C
  C868     1.0000 0.28667  0.53463  0.84313  Biso   1.000  C
  N99      1.0000 0.29977  0.63573  0.84483  Biso   1.000  N
  C869     1.0000 0.33057  0.63613  0.84483  Biso   1.000  C
  In23     1.0000 0.70605  0.57314  0.87568  Biso   1.000  In
  In24     1.0000 0.95827  0.76244  0.19938  Biso   1.000  In
  O221     1.0000 0.76553  0.60997  0.87777  Biso   1.000  O
  O222     1.0000 0.73813  0.58297  0.92177  Biso   1.000  O
  O223     1.0000 0.98443  0.76257  0.15177  Biso   1.000  O
  O224     1.0000 0.92633  0.73177  0.15747  Biso   1.000  O
  O225     1.0000 0.66403  0.55377  0.83637  Biso   1.000  O
  O226     1.0000 0.71883  0.59477  0.82547  Biso   1.000  O
  O227     1.0000 0.50903  0.39147  0.58597  Biso   1.000  O
  O228     1.0000 0.49563  0.42447  0.55657  Biso   1.000  O
  O229     1.0000 0.71053  0.74537  0.55187  Biso   1.000  O
  O230     1.0000 0.76113  0.75917  0.57557  Biso   1.000  O
  O231     1.0000 0.72103  0.53237  0.85877  Biso   1.000  O
  O232     1.0000 0.67523  0.51527  0.89107  Biso   1.000  O
  N100     1.0000 0.93013  0.66987  0.95177  Biso   1.000  N
  N101     1.0000 0.90523  0.67787  0.99897  Biso   1.000  N
  N102     1.0000 0.96583  0.69317  0.99747  Biso   1.000  N
  N103     1.0000 0.62723  0.54467  0.67207  Biso   1.000  N
  N104     1.0000 0.63473  0.57657  0.62427  Biso   1.000  N
  N105     1.0000 0.67173  0.60527  0.66877  Biso   1.000  N
  N106     1.0000 0.63823  0.33897  0.87407  Biso   1.000  N
  C870     1.0000 0.76633  0.60357  0.90757  Biso   1.000  C
  C871     1.0000 0.80163  0.62027  0.92317  Biso   1.000  C
  C872     1.0000 0.80403  0.62117  0.95577  Biso   1.000  C
  H353     1.0000 0.78293  0.61037  0.96837  Biso   1.000  H
  C873     1.0000 0.83723  0.63787  0.97057  Biso   1.000  C
  H354     1.0000 0.83863  0.63907  0.99327  Biso   1.000  H
  C874     1.0000 0.86753  0.65217  0.95327  Biso   1.000  C
  C875     1.0000 0.86603  0.65147  0.92027  Biso   1.000  C
  H355     1.0000 0.88723  0.66157  0.90787  Biso   1.000  H
  C876     1.0000 0.83223  0.63537  0.90547  Biso   1.000  C
  H356     1.0000 0.83063  0.63497  0.88287  Biso   1.000  H
  C877     1.0000 0.90283  0.66787  0.96887  Biso   1.000  C
  C878     1.0000 0.96073  0.68187  0.96707  Biso   1.000  C
  C879     1.0000 0.93753  0.69217  0.01227  Biso   1.000  C
  O233     1.0000 0.08493  0.71307  0.86987  Biso   1.000  O
  O234     1.0000 0.09323  0.67787  0.90047  Biso   1.000  O
  C880     1.0000 0.98993  0.68197  0.94927  Biso   1.000  C
  C881     1.0000 0.99163  0.68707  0.91687  Biso   1.000  C
  H357     1.0000 0.97313  0.68877  0.90627  Biso   1.000  H
  C882     1.0000 0.01953  0.68977  0.89967  Biso   1.000  C
  H358     1.0000 0.02103  0.69487  0.87747  Biso   1.000  H
  C883     1.0000 0.04323  0.68557  0.91297  Biso   1.000  C
  C884     1.0000 0.04193  0.67717  0.94567  Biso   1.000  C
  H359     1.0000 0.05893  0.67197  0.95487  Biso   1.000  H
  C885     1.0000 0.01453  0.67677  0.96427  Biso   1.000  C
  H360     1.0000 0.01343  0.67297  0.98667  Biso   1.000  H
  C886     1.0000 0.07683  0.69357  0.89397  Biso   1.000  C
  C887     1.0000 0.94233  0.70517  0.04477  Biso   1.000  C
  C888     1.0000 0.97633  0.72557  0.05777  Biso   1.000  C
  H361     1.0000 0.99683  0.73137  0.04527  Biso   1.000  H
  C889     1.0000 0.98033  0.73727  0.08867  Biso   1.000  C
  H362     1.0000 0.00363  0.75047  0.09767  Biso   1.000  H
  C890     1.0000 0.95043  0.73007  0.10697  Biso   1.000  C
  C891     1.0000 0.91693  0.71017  0.09377  Biso   1.000  C
  H363     1.0000 0.89643  0.70467  0.10617  Biso   1.000  H
  C892     1.0000 0.91283  0.69837  0.06307  Biso   1.000  C
  H364     1.0000 0.88953  0.68537  0.05407  Biso   1.000  H
  C893     1.0000 0.95433  0.74247  0.14077  Biso   1.000  C
  C894     1.0000 0.68673  0.57447  0.81667  Biso   1.000  C
  C895     1.0000 0.70133  0.60127  0.76247  Biso   1.000  C
  H365     1.0000 0.72343  0.61967  0.77057  Biso   1.000  H
  C896     1.0000 0.67823  0.57487  0.78247  Biso   1.000  C
  C897     1.0000 0.69343  0.60197  0.73107  Biso   1.000  C
  H366     1.0000 0.70953  0.62097  0.71767  Biso   1.000  H
  C898     1.0000 0.66133  0.57457  0.71857  Biso   1.000  C
  C899     1.0000 0.63813  0.54777  0.73857  Biso   1.000  C
  H367     1.0000 0.61643  0.52887  0.73037  Biso   1.000  H
  C900     1.0000 0.64603  0.54817  0.77037  Biso   1.000  C
  H368     1.0000 0.62933  0.53007  0.78407  Biso   1.000  H
  C901     1.0000 0.65303  0.57507  0.68477  Biso   1.000  C
  C902     1.0000 0.61883  0.54667  0.64247  Biso   1.000  C
  C903     1.0000 0.67893  0.63857  0.62037  Biso   1.000  C
  C904     1.0000 0.59133  0.51347  0.62657  Biso   1.000  C
  C905     1.0000 0.57923  0.48087  0.64057  Biso   1.000  C
  H369     1.0000 0.58733  0.47917  0.66117  Biso   1.000  H
  C906     1.0000 0.55513  0.45047  0.62447  Biso   1.000  C
  H370     1.0000 0.54903  0.42777  0.63297  Biso   1.000  H
  C907     1.0000 0.53983  0.45207  0.59667  Biso   1.000  C
  C908     1.0000 0.54953  0.48507  0.58397  Biso   1.000  C
  H371     1.0000 0.53823  0.48657  0.56507  Biso   1.000  H
  C909     1.0000 0.57573  0.51647  0.59827  Biso   1.000  C
  H372     1.0000 0.58283  0.53917  0.58917  Biso   1.000  H
  C910     1.0000 0.51223  0.42087  0.57917  Biso   1.000  C
  C911     1.0000 0.66103  0.60507  0.63857  Biso   1.000  C
  C912     1.0000 0.66193  0.64327  0.59427  Biso   1.000  C
  H373     1.0000 0.63943  0.62437  0.58747  Biso   1.000  H
  C913     1.0000 0.67803  0.67537  0.57807  Biso   1.000  C
  H374     1.0000 0.66633  0.67887  0.56037  Biso   1.000  H
  C914     1.0000 0.71083  0.70227  0.58767  Biso   1.000  C
  C915     1.0000 0.72833  0.69787  0.61357  Biso   1.000  C
  H375     1.0000 0.75123  0.71657  0.61977  Biso   1.000  H
  C916     1.0000 0.71193  0.66607  0.63027  Biso   1.000  C
  H376     1.0000 0.72323  0.66307  0.64847  Biso   1.000  H
  C917     1.0000 0.72863  0.73737  0.57097  Biso   1.000  C
  C918     1.0000 0.69573  0.50837  0.87437  Biso   1.000  C
  C919     1.0000 0.68923  0.47127  0.87337  Biso   1.000  C
  C920     1.0000 0.65853  0.44347  0.88707  Biso   1.000  C
  H377     1.0000 0.64163  0.44837  0.89677  Biso   1.000  H
  C921     1.0000 0.65253  0.40917  0.88677  Biso   1.000  C
  H378     1.0000 0.63103  0.39027  0.89547  Biso   1.000  H
  C922     1.0000 0.67783  0.40237  0.87387  Biso   1.000  C
  C923     1.0000 0.70843  0.42937  0.86037  Biso   1.000  C
  H379     1.0000 0.72563  0.42427  0.85127  Biso   1.000  H
  C924     1.0000 0.71433  0.46447  0.86017  Biso   1.000  C
  H380     1.0000 0.73543  0.48327  0.85087  Biso   1.000  H
  C925     1.0000 0.67203  0.36557  0.87417  Biso   1.000  C
  O235     1.0000 0.97233  0.82267  0.18267  Biso   1.000  O
  O236     1.0000 0.91633  0.80167  0.17467  Biso   1.000  O
  C926     1.0000 0.94733  0.82317  0.16697  Biso   1.000  C
  C927     1.0000 0.96033  0.86307  0.15957  Biso   1.000  C
  C928     1.0000 0.99583  0.88967  0.15697  Biso   1.000  C
  C929     1.0000 0.00443  0.92457  0.15037  Biso   1.000  C
  C930     1.0000 0.97753  0.93287  0.14667  Biso   1.000  C
  C931     1.0000 0.94193  0.90627  0.14897  Biso   1.000  C
  C932     1.0000 0.93333  0.87137  0.15567  Biso   1.000  C
  N107     1.0000 0.96013  0.97877  0.14667  Biso   1.000  N
  C933     1.0000 0.98713  0.97257  0.14667  Biso   1.000  C
  O237     1.0000 0.08933  0.68667  0.88467  Biso   1.000  O
  O238     1.0000 0.09093  0.65867  0.92877  Biso   1.000  O
  C934     1.0000 0.99283  0.68467  0.95267  Biso   1.000  C
  C935     1.0000 0.02733  0.70867  0.96237  Biso   1.000  C
  H381     1.0000 0.03163  0.72487  0.97897  Biso   1.000  H
  C936     1.0000 0.05613  0.70767  0.94787  Biso   1.000  C
  H382     1.0000 0.07983  0.72387  0.95467  Biso   1.000  H
  C937     1.0000 0.05013  0.68367  0.92367  Biso   1.000  C
  C938     1.0000 0.01533  0.65967  0.91377  Biso   1.000  C
  H383     1.0000 0.01133  0.64307  0.89717  Biso   1.000  H
  C939     1.0000 0.98683  0.66067  0.92867  Biso   1.000  C
  H384     1.0000 0.96313  0.64407  0.92147  Biso   1.000  H
  C940     1.0000 0.07733  0.67567  0.91467  Biso   1.000  C
  O239     1.0000 0.99543  0.81727  0.20127  Biso   1.000  O
  O240     1.0000 0.94303  0.79977  0.18277  Biso   1.000  O
  C941     1.0000 0.97423  0.82427  0.18717  Biso   1.000  C
  C942     1.0000 0.98183  0.86307  0.18417  Biso   1.000  C
  C943     1.0000 0.01563  0.89247  0.18877  Biso   1.000  C
  C944     1.0000 0.02093  0.92677  0.18567  Biso   1.000  C
  C945     1.0000 0.99233  0.93167  0.17797  Biso   1.000  C
  C946     1.0000 0.95853  0.90227  0.17337  Biso   1.000  C
  C947     1.0000 0.95333  0.86797  0.17647  Biso   1.000  C
  N108     1.0000 0.96643  0.96907  0.17817  Biso   1.000  N
  C948     1.0000 0.99723  0.96947  0.17817  Biso   1.000  C
  In25     1.0000 0.09353  0.46625  0.20901  Biso   1.000  In
  In26     1.0000 0.90423  0.52917  0.53271  Biso   1.000  In
  O241     1.0000 0.05670  0.48890  0.21110  Biso   1.000  O
  O242     1.0000 0.08370  0.48850  0.25510  Biso   1.000  O
  O243     1.0000 0.90410  0.55520  0.48510  Biso   1.000  O
  O244     1.0000 0.93490  0.52790  0.49080  Biso   1.000  O
  O245     1.0000 0.11290  0.44360  0.16970  Biso   1.000  O
  O246     1.0000 0.07190  0.45740  0.15880  Biso   1.000  O
  O247     1.0000 0.27520  0.45090  0.91930  Biso   1.000  O
  O248     1.0000 0.24220  0.40450  0.88990  Biso   1.000  O
  O249     1.0000 0.92130  0.29850  0.88520  Biso   1.000  O
  O250     1.0000 0.90750  0.33530  0.90890  Biso   1.000  O
  O251     1.0000 0.13430  0.52200  0.19210  Biso   1.000  O
  O252     1.0000 0.15140  0.49330  0.22440  Biso   1.000  O
  N109     1.0000 0.99680  0.59360  0.28510  Biso   1.000  N
  N110     1.0000 0.98880  0.56070  0.33230  Biso   1.000  N
  N111     1.0000 0.97350  0.60600  0.33080  Biso   1.000  N
  N112     1.0000 0.12200  0.41590  0.00540  Biso   1.000  N
  N113     1.0000 0.09010  0.39150  0.95760  Biso   1.000  N
  N114     1.0000 0.06140  0.39980  0.00210  Biso   1.000  N
  N115     1.0000 0.32770  0.63260  0.20740  Biso   1.000  N
  C949     1.0000 0.06310  0.49610  0.24090  Biso   1.000  C
  C950     1.0000 0.04640  0.51470  0.25650  Biso   1.000  C
  C951     1.0000 0.04550  0.51620  0.28910  Biso   1.000  C
  H385     1.0000 0.05630  0.50590  0.30170  Biso   1.000  H
  C952     1.0000 0.02880  0.53270  0.30390  Biso   1.000  C
  H386     1.0000 0.02760  0.53290  0.32660  Biso   1.000  H
  C953     1.0000 0.01450  0.54870  0.28660  Biso   1.000  C
  C954     1.0000 0.01520  0.54790  0.25360  Biso   1.000  C
  H387     1.0000 0.00510  0.55900  0.24120  Biso   1.000  H
  C955     1.0000 0.03130  0.53020  0.23880  Biso   1.000  C
  H388     1.0000 0.03170  0.52900  0.21620  Biso   1.000  H
  C956     1.0000 0.99880  0.56830  0.30220  Biso   1.000  C
  C957     1.0000 0.98480  0.61220  0.30040  Biso   1.000  C
  C958     1.0000 0.97450  0.57870  0.34560  Biso   1.000  C
  O253     1.0000 0.95360  0.70520  0.20320  Biso   1.000  O
  O254     1.0000 0.98880  0.74870  0.23380  Biso   1.000  O
  C959     1.0000 0.98470  0.64130  0.28260  Biso   1.000  C
  C960     1.0000 0.97960  0.63790  0.25020  Biso   1.000  C
  H389     1.0000 0.97790  0.61770  0.23960  Biso   1.000  H
  C961     1.0000 0.97690  0.66310  0.23300  Biso   1.000  C
  H390     1.0000 0.97180  0.65950  0.21080  Biso   1.000  H
  C962     1.0000 0.98110  0.69100  0.24630  Biso   1.000  C
  C963     1.0000 0.98950  0.69810  0.27900  Biso   1.000  C
  H391     1.0000 0.99470  0.72030  0.28820  Biso   1.000  H
  C964     1.0000 0.98990  0.67110  0.29760  Biso   1.000  C
  H392     1.0000 0.99370  0.67380  0.32000  Biso   1.000  H
  C965     1.0000 0.97310  0.71660  0.22730  Biso   1.000  C
  C966     1.0000 0.96150  0.57050  0.37810  Biso   1.000  C
  C967     1.0000 0.94110  0.58410  0.39110  Biso   1.000  C
  H393     1.0000 0.93530  0.59880  0.37860  Biso   1.000  H
  C968     1.0000 0.92940  0.57640  0.42200  Biso   1.000  C
  H394     1.0000 0.91620  0.58650  0.43100  Biso   1.000  H
  C969     1.0000 0.93660  0.55370  0.44030  Biso   1.000  C
  C970     1.0000 0.95650  0.54010  0.42710  Biso   1.000  C
  H395     1.0000 0.96200  0.52510  0.43950  Biso   1.000  H
  C971     1.0000 0.96830  0.54780  0.39640  Biso   1.000  C
  H396     1.0000 0.98130  0.53750  0.38740  Biso   1.000  H
  C972     1.0000 0.92420  0.54520  0.47410  Biso   1.000  C
  C973     1.0000 0.09220  0.44560  0.15000  Biso   1.000  C
  C974     1.0000 0.06540  0.43340  0.09580  Biso   1.000  C
  H397     1.0000 0.04700  0.43710  0.10390  Biso   1.000  H
  C975     1.0000 0.09180  0.43670  0.11580  Biso   1.000  C
  C976     1.0000 0.06470  0.42480  0.06440  Biso   1.000  C
  H398     1.0000 0.04570  0.42190  0.05100  Biso   1.000  H
  C977     1.0000 0.09210  0.42010  0.05190  Biso   1.000  C
  C978     1.0000 0.11890  0.42370  0.07190  Biso   1.000  C
  H399     1.0000 0.13780  0.42090  0.06370  Biso   1.000  H
  C979     1.0000 0.11850  0.43120  0.10370  Biso   1.000  C
  H400     1.0000 0.13660  0.43260  0.11740  Biso   1.000  H
  C980     1.0000 0.09160  0.41130  0.01810  Biso   1.000  C
  C981     1.0000 0.12000  0.40550  0.97580  Biso   1.000  C
  C982     1.0000 0.02810  0.37370  0.95370  Biso   1.000  C
  C983     1.0000 0.15320  0.41120  0.95990  Biso   1.000  C
  C984     1.0000 0.18580  0.43170  0.97390  Biso   1.000  C
  H401     1.0000 0.18750  0.44150  0.99450  Biso   1.000  H
  C985     1.0000 0.21620  0.43800  0.95780  Biso   1.000  C
  H402     1.0000 0.23890  0.45460  0.96630  Biso   1.000  H
  C986     1.0000 0.21460  0.42110  0.93000  Biso   1.000  C
  C987     1.0000 0.18160  0.39780  0.91730  Biso   1.000  C
  H403     1.0000 0.18010  0.38500  0.89840  Biso   1.000  H
  C988     1.0000 0.15020  0.39260  0.93160  Biso   1.000  C
  H404     1.0000 0.12750  0.37700  0.92250  Biso   1.000  H
  C989     1.0000 0.24580  0.42470  0.91250  Biso   1.000  C
  C990     1.0000 0.06160  0.38930  0.97190  Biso   1.000  C
  C991     1.0000 0.02340  0.35200  0.92760  Biso   1.000  C
  H405     1.0000 0.04230  0.34840  0.92080  Biso   1.000  H
  C992     1.0000 0.99130  0.33600  0.91140  Biso   1.000  C
  H406     1.0000 0.98780  0.32080  0.89370  Biso   1.000  H
  C993     1.0000 0.96440  0.34190  0.92100  Biso   1.000  C
  C994     1.0000 0.96880  0.36380  0.94690  Biso   1.000  C
  H407     1.0000 0.95010  0.36800  0.95310  Biso   1.000  H
  C995     1.0000 0.00060  0.37920  0.96360  Biso   1.000  C
  H408     1.0000 0.00360  0.39350  0.98180  Biso   1.000  H
  C996     1.0000 0.92930  0.32460  0.90430  Biso   1.000  C
  C997     1.0000 0.15830  0.52070  0.20770  Biso   1.000  C
  C998     1.0000 0.19540  0.55130  0.20670  Biso   1.000  C
  C999     1.0000 0.22320  0.54840  0.22040  Biso   1.000  C
  H409     1.0000 0.21830  0.52660  0.23010  Biso   1.000  H
  C1000    1.0000 0.25750  0.57670  0.22010  Biso   1.000  C
  H410     1.0000 0.27640  0.57410  0.22880  Biso   1.000  H
  C1001    1.0000 0.26430  0.60880  0.20720  Biso   1.000  C
  C1002    1.0000 0.23730  0.61240  0.19370  Biso   1.000  C
  H411     1.0000 0.24240  0.63470  0.18460  Biso   1.000  H
  C1003    1.0000 0.20220  0.58320  0.19350  Biso   1.000  C
  H412     1.0000 0.18340  0.58550  0.18420  Biso   1.000  H
  C1004    1.0000 0.30110  0.63980  0.20750  Biso   1.000  C
  O255     1.0000 0.84400  0.48300  0.51600  Biso   1.000  O
  O256     1.0000 0.86500  0.44800  0.50800  Biso   1.000  O
  C1005    1.0000 0.84350  0.45750  0.50030  Biso   1.000  C
  C1006    1.0000 0.80360  0.43060  0.49290  Biso   1.000  C
  C1007    1.0000 0.77700  0.43950  0.49030  Biso   1.000  C
  C1008    1.0000 0.74210  0.41320  0.48370  Biso   1.000  C
  C1009    1.0000 0.73380  0.37800  0.48000  Biso   1.000  C
  C1010    1.0000 0.76040  0.36900  0.48230  Biso   1.000  C
  C1011    1.0000 0.79530  0.39530  0.48900  Biso   1.000  C
  N116     1.0000 0.68790  0.31470  0.48000  Biso   1.000  N
  C1012    1.0000 0.69410  0.34790  0.48000  Biso   1.000  C
  O257     1.0000 0.98000  0.73600  0.21800  Biso   1.000  O
  O258     1.0000 0.00800  0.76560  0.26210  Biso   1.000  O
  C1013    1.0000 0.98200  0.64150  0.28600  Biso   1.000  C
  C1014    1.0000 0.95800  0.65200  0.29570  Biso   1.000  C
  H413     1.0000 0.94180  0.64010  0.31230  Biso   1.000  H
  C1015    1.0000 0.95900  0.68180  0.28120  Biso   1.000  C
  H414     1.0000 0.94280  0.68930  0.28800  Biso   1.000  H
  C1016    1.0000 0.98300  0.69980  0.25700  Biso   1.000  C
  C1017    1.0000 0.00700  0.68900  0.24710  Biso   1.000  C
  H415     1.0000 0.02360  0.70160  0.23050  Biso   1.000  H
  C1018    1.0000 0.00600  0.65950  0.26200  Biso   1.000  C
  H416     1.0000 0.02260  0.65240  0.25480  Biso   1.000  H
  C1019    1.0000 0.99100  0.73500  0.24800  Biso   1.000  C
  O259     1.0000 0.84940  0.51150  0.53460  Biso   1.000  O
  O260     1.0000 0.86690  0.47660  0.51610  Biso   1.000  O
  C1020    1.0000 0.84240  0.48330  0.52050  Biso   1.000  C
  C1021    1.0000 0.80360  0.45210  0.51750  Biso   1.000  C
  C1022    1.0000 0.77420  0.45650  0.52210  Biso   1.000  C
  C1023    1.0000 0.73990  0.42750  0.51900  Biso   1.000  C
  C1024    1.0000 0.73500  0.39400  0.51130  Biso   1.000  C
  C1025    1.0000 0.76440  0.38960  0.50670  Biso   1.000  C
  C1026    1.0000 0.79870  0.41870  0.50980  Biso   1.000  C
  N117     1.0000 0.69760  0.33070  0.51150  Biso   1.000  N
  C1027    1.0000 0.69720  0.36110  0.51150  Biso   1.000  C
  In27     1.0000 0.76020  0.79958  0.54234  Biso   1.000  In
  In28     1.0000 0.57090  0.86250  0.86604  Biso   1.000  In
  O261     1.0000 0.72337  0.82223  0.54443  Biso   1.000  O
  O262     1.0000 0.75037  0.82183  0.58843  Biso   1.000  O
  O263     1.0000 0.57077  0.88853  0.81843  Biso   1.000  O
  O264     1.0000 0.60157  0.86123  0.82413  Biso   1.000  O
  O265     1.0000 0.77957  0.77693  0.50303  Biso   1.000  O
  O266     1.0000 0.73857  0.79073  0.49213  Biso   1.000  O
  O267     1.0000 0.94187  0.78423  0.25263  Biso   1.000  O
  O268     1.0000 0.90887  0.73783  0.22323  Biso   1.000  O
  O269     1.0000 0.58797  0.63183  0.21853  Biso   1.000  O
  O270     1.0000 0.57417  0.66863  0.24223  Biso   1.000  O
  O271     1.0000 0.80097  0.85533  0.52543  Biso   1.000  O
  O272     1.0000 0.81807  0.82663  0.55773  Biso   1.000  O
  N118     1.0000 0.66347  0.92693  0.61843  Biso   1.000  N
  N119     1.0000 0.65547  0.89403  0.66563  Biso   1.000  N
  N120     1.0000 0.64017  0.93933  0.66413  Biso   1.000  N
  N121     1.0000 0.78867  0.74923  0.33873  Biso   1.000  N
  N122     1.0000 0.75677  0.72483  0.29093  Biso   1.000  N
  N123     1.0000 0.72807  0.73313  0.33543  Biso   1.000  N
  N124     1.0000 0.99437  0.96593  0.54073  Biso   1.000  N
  C1028    1.0000 0.72977  0.82943  0.57423  Biso   1.000  C
  C1029    1.0000 0.71307  0.84803  0.58983  Biso   1.000  C
  C1030    1.0000 0.71217  0.84953  0.62243  Biso   1.000  C
  H417     1.0000 0.72297  0.83923  0.63503  Biso   1.000  H
  C1031    1.0000 0.69547  0.86603  0.63723  Biso   1.000  C
  H418     1.0000 0.69427  0.86623  0.65993  Biso   1.000  H
  C1032    1.0000 0.68117  0.88203  0.61993  Biso   1.000  C
  C1033    1.0000 0.68187  0.88123  0.58693  Biso   1.000  C
  H419     1.0000 0.67177  0.89233  0.57453  Biso   1.000  H
  C1034    1.0000 0.69797  0.86353  0.57213  Biso   1.000  C
  H420     1.0000 0.69837  0.86233  0.54953  Biso   1.000  H
  C1035    1.0000 0.66547  0.90163  0.63553  Biso   1.000  C
  C1036    1.0000 0.65147  0.94553  0.63373  Biso   1.000  C
  C1037    1.0000 0.64117  0.91203  0.67893  Biso   1.000  C
  O273     1.0000 0.62027  0.03853  0.53653  Biso   1.000  O
  O274     1.0000 0.65547  0.08203  0.56713  Biso   1.000  O
  C1038    1.0000 0.65137  0.97463  0.61593  Biso   1.000  C
  C1039    1.0000 0.64627  0.97123  0.58353  Biso   1.000  C
  H421     1.0000 0.64457  0.95103  0.57293  Biso   1.000  H
  C1040    1.0000 0.64357  0.99643  0.56633  Biso   1.000  C
  H422     1.0000 0.63847  0.99283  0.54413  Biso   1.000  H
  C1041    1.0000 0.64777  0.02433  0.57963  Biso   1.000  C
  C1042    1.0000 0.65617  0.03143  0.61233  Biso   1.000  C
  H423     1.0000 0.66137  0.05363  0.62153  Biso   1.000  H
  C1043    1.0000 0.65657  0.00443  0.63093  Biso   1.000  C
  H424     1.0000 0.66037  0.00713  0.65333  Biso   1.000  H
  C1044    1.0000 0.63977  0.04993  0.56063  Biso   1.000  C
  C1045    1.0000 0.62817  0.90383  0.71143  Biso   1.000  C
  C1046    1.0000 0.60777  0.91743  0.72443  Biso   1.000  C
  H425     1.0000 0.60197  0.93213  0.71193  Biso   1.000  H
  C1047    1.0000 0.59607  0.90973  0.75533  Biso   1.000  C
  H426     1.0000 0.58287  0.91983  0.76433  Biso   1.000  H
  C1048    1.0000 0.60327  0.88703  0.77363  Biso   1.000  C
  C1049    1.0000 0.62317  0.87343  0.76043  Biso   1.000  C
  H427     1.0000 0.62867  0.85843  0.77283  Biso   1.000  H
  C1050    1.0000 0.63497  0.88113  0.72973  Biso   1.000  C
  H428     1.0000 0.64797  0.87083  0.72073  Biso   1.000  H
  C1051    1.0000 0.59087  0.87853  0.80743  Biso   1.000  C
  C1052    1.0000 0.75887  0.77893  0.48333  Biso   1.000  C
  C1053    1.0000 0.73207  0.76673  0.42913  Biso   1.000  C
  H429     1.0000 0.71367  0.77043  0.43723  Biso   1.000  H
  C1054    1.0000 0.75847  0.77003  0.44913  Biso   1.000  C
  C1055    1.0000 0.73137  0.75813  0.39773  Biso   1.000  C
  H430     1.0000 0.71237  0.75523  0.38433  Biso   1.000  H
  C1056    1.0000 0.75877  0.75343  0.38523  Biso   1.000  C
  C1057    1.0000 0.78557  0.75703  0.40523  Biso   1.000  C
  H431     1.0000 0.80447  0.75423  0.39703  Biso   1.000  H
  C1058    1.0000 0.78517  0.76453  0.43703  Biso   1.000  C
  H432     1.0000 0.80327  0.76593  0.45073  Biso   1.000  H
  C1059    1.0000 0.75827  0.74463  0.35143  Biso   1.000  C
  C1060    1.0000 0.78667  0.73883  0.30913  Biso   1.000  C
  C1061    1.0000 0.69477  0.70703  0.28703  Biso   1.000  C
  C1062    1.0000 0.81987  0.74453  0.29323  Biso   1.000  C
  C1063    1.0000 0.85247  0.76503  0.30723  Biso   1.000  C
  H433     1.0000 0.85417  0.77483  0.32783  Biso   1.000  H
  C1064    1.0000 0.88287  0.77133  0.29113  Biso   1.000  C
  H434     1.0000 0.90557  0.78793  0.29963  Biso   1.000  H
  C1065    1.0000 0.88127  0.75443  0.26333  Biso   1.000  C
  C1066    1.0000 0.84827  0.73113  0.25063  Biso   1.000  C
  H435     1.0000 0.84677  0.71833  0.23173  Biso   1.000  H
  C1067    1.0000 0.81687  0.72593  0.26493  Biso   1.000  C
  H436     1.0000 0.79417  0.71033  0.25583  Biso   1.000  H
  C1068    1.0000 0.91247  0.75803  0.24583  Biso   1.000  C
  C1069    1.0000 0.72827  0.72263  0.30523  Biso   1.000  C
  C1070    1.0000 0.69007  0.68533  0.26093  Biso   1.000  C
  H437     1.0000 0.70897  0.68173  0.25413  Biso   1.000  H
  C1071    1.0000 0.65797  0.66933  0.24473  Biso   1.000  C
  H438     1.0000 0.65447  0.65413  0.22703  Biso   1.000  H
  C1072    1.0000 0.63107  0.67523  0.25433  Biso   1.000  C
  C1073    1.0000 0.63547  0.69713  0.28023  Biso   1.000  C
  H439     1.0000 0.61677  0.70133  0.28643  Biso   1.000  H
  C1074    1.0000 0.66727  0.71253  0.29693  Biso   1.000  C
  H440     1.0000 0.67027  0.72683  0.31513  Biso   1.000  H
  C1075    1.0000 0.59597  0.65793  0.23763  Biso   1.000  C
  C1076    1.0000 0.82497  0.85403  0.54103  Biso   1.000  C
  C1077    1.0000 0.86207  0.88463  0.54003  Biso   1.000  C
  C1078    1.0000 0.88987  0.88173  0.55373  Biso   1.000  C
  H441     1.0000 0.88497  0.85993  0.56343  Biso   1.000  H
  C1079    1.0000 0.92417  0.91003  0.55343  Biso   1.000  C
  H442     1.0000 0.94307  0.90743  0.56213  Biso   1.000  H
  C1080    1.0000 0.93097  0.94213  0.54053  Biso   1.000  C
  C1081    1.0000 0.90397  0.94573  0.52703  Biso   1.000  C
  H443     1.0000 0.90907  0.96803  0.51793  Biso   1.000  H
  C1082    1.0000 0.86887  0.91653  0.52683  Biso   1.000  C
  H444     1.0000 0.85007  0.91883  0.51753  Biso   1.000  H
  C1083    1.0000 0.96777  0.97313  0.54083  Biso   1.000  C
  O275     1.0000 0.51067  0.81633  0.84933  Biso   1.000  O
  O276     1.0000 0.53167  0.78133  0.84133  Biso   1.000  O
  C1084    1.0000 0.51017  0.79083  0.83363  Biso   1.000  C
  C1085    1.0000 0.47027  0.76393  0.82623  Biso   1.000  C
  C1086    1.0000 0.44367  0.77283  0.82363  Biso   1.000  C
  C1087    1.0000 0.40877  0.74653  0.81703  Biso   1.000  C
  C1088    1.0000 0.40047  0.71133  0.81333  Biso   1.000  C
  C1089    1.0000 0.42707  0.70233  0.81563  Biso   1.000  C
  C1090    1.0000 0.46197  0.72863  0.82233  Biso   1.000  C
  N125     1.0000 0.35457  0.64803  0.81333  Biso   1.000  N
  C1091    1.0000 0.36077  0.68123  0.81333  Biso   1.000  C
  O277     1.0000 0.64667  0.06933  0.55133  Biso   1.000  O
  O278     1.0000 0.67467  0.09893  0.59543  Biso   1.000  O
  C1092    1.0000 0.64867  0.97483  0.61933  Biso   1.000  C
  C1093    1.0000 0.62467  0.98533  0.62903  Biso   1.000  C
  H445     1.0000 0.60847  0.97343  0.64563  Biso   1.000  H
  C1094    1.0000 0.62567  0.01513  0.61453  Biso   1.000  C
  H446     1.0000 0.60947  0.02263  0.62133  Biso   1.000  H
  C1095    1.0000 0.64967  0.03313  0.59033  Biso   1.000  C
  C1096    1.0000 0.67367  0.02233  0.58043  Biso   1.000  C
  H447     1.0000 0.69027  0.03493  0.56383  Biso   1.000  H
  C1097    1.0000 0.67267  0.99283  0.59533  Biso   1.000  C
  H448     1.0000 0.68927  0.98573  0.58813  Biso   1.000  H
  C1098    1.0000 0.65767  0.06833  0.58133  Biso   1.000  C
  O279     1.0000 0.51607  0.84483  0.86793  Biso   1.000  O
  O280     1.0000 0.53357  0.80993  0.84943  Biso   1.000  O
  C1099    1.0000 0.50907  0.81663  0.85383  Biso   1.000  C
  C1100    1.0000 0.47027  0.78543  0.85083  Biso   1.000  C
  C1101    1.0000 0.44087  0.78983  0.85543  Biso   1.000  C
  C1102    1.0000 0.40657  0.76083  0.85233  Biso   1.000  C
  C1103    1.0000 0.40167  0.72733  0.84463  Biso   1.000  C
  C1104    1.0000 0.43107  0.72293  0.84003  Biso   1.000  C
  C1105    1.0000 0.46537  0.75203  0.84313  Biso   1.000  C
  N126     1.0000 0.36427  0.66403  0.84483  Biso   1.000  N
  C1106    1.0000 0.36387  0.69443  0.84483  Biso   1.000  C
  In29     1.0000 0.42686  0.13292  0.87568  Biso   1.000  In
  In30     1.0000 0.23756  0.19584  0.19938  Biso   1.000  In
  O281     1.0000 0.39003  0.15557  0.87777  Biso   1.000  O
  O282     1.0000 0.41703  0.15517  0.92177  Biso   1.000  O
  O283     1.0000 0.23743  0.22187  0.15177  Biso   1.000  O
  O284     1.0000 0.26823  0.19457  0.15747  Biso   1.000  O
  O285     1.0000 0.44623  0.11027  0.83637  Biso   1.000  O
  O286     1.0000 0.40523  0.12407  0.82547  Biso   1.000  O
  O287     1.0000 0.60853  0.11757  0.58597  Biso   1.000  O
  O288     1.0000 0.57553  0.07117  0.55657  Biso   1.000  O
  O289     1.0000 0.25463  0.96517  0.55187  Biso   1.000  O
  O290     1.0000 0.24083  0.00197  0.57557  Biso   1.000  O
  O291     1.0000 0.46763  0.18867  0.85877  Biso   1.000  O
  O292     1.0000 0.48473  0.15997  0.89107  Biso   1.000  O
  N127     1.0000 0.33013  0.26027  0.95177  Biso   1.000  N
  N128     1.0000 0.32213  0.22737  0.99897  Biso   1.000  N
  N129     1.0000 0.30683  0.27267  0.99747  Biso   1.000  N
  N130     1.0000 0.45533  0.08257  0.67207  Biso   1.000  N
  N131     1.0000 0.42343  0.05817  0.62427  Biso   1.000  N
  N132     1.0000 0.39473  0.06647  0.66877  Biso   1.000  N
  N133     1.0000 0.66103  0.29927  0.87407  Biso   1.000  N
  C1107    1.0000 0.39643  0.16277  0.90757  Biso   1.000  C
  C1108    1.0000 0.37973  0.18137  0.92317  Biso   1.000  C
  C1109    1.0000 0.37883  0.18287  0.95577  Biso   1.000  C
  H449     1.0000 0.38963  0.17257  0.96837  Biso   1.000  H
  C1110    1.0000 0.36213  0.19937  0.97057  Biso   1.000  C
  H450     1.0000 0.36093  0.19957  0.99327  Biso   1.000  H
  C1111    1.0000 0.34783  0.21537  0.95327  Biso   1.000  C
  C1112    1.0000 0.34853  0.21457  0.92027  Biso   1.000  C
  H451     1.0000 0.33843  0.22567  0.90787  Biso   1.000  H
  C1113    1.0000 0.36463  0.19687  0.90547  Biso   1.000  C
  H452     1.0000 0.36503  0.19567  0.88287  Biso   1.000  H
  C1114    1.0000 0.33213  0.23497  0.96887  Biso   1.000  C
  C1115    1.0000 0.31813  0.27887  0.96707  Biso   1.000  C
  C1116    1.0000 0.30783  0.24537  0.01227  Biso   1.000  C
  O293     1.0000 0.28693  0.37187  0.86987  Biso   1.000  O
  O294     1.0000 0.32213  0.41537  0.90047  Biso   1.000  O
  C1117    1.0000 0.31803  0.30797  0.94927  Biso   1.000  C
  C1118    1.0000 0.31293  0.30457  0.91687  Biso   1.000  C
  H453     1.0000 0.31123  0.28437  0.90627  Biso   1.000  H
  C1119    1.0000 0.31023  0.32977  0.89967  Biso   1.000  C
  H454     1.0000 0.30513  0.32617  0.87747  Biso   1.000  H
  C1120    1.0000 0.31443  0.35767  0.91297  Biso   1.000  C
  C1121    1.0000 0.32283  0.36477  0.94567  Biso   1.000  C
  H455     1.0000 0.32803  0.38697  0.95487  Biso   1.000  H
  C1122    1.0000 0.32323  0.33777  0.96427  Biso   1.000  C
  H456     1.0000 0.32703  0.34047  0.98667  Biso   1.000  H
  C1123    1.0000 0.30643  0.38327  0.89397  Biso   1.000  C
  C1124    1.0000 0.29483  0.23717  0.04477  Biso   1.000  C
  C1125    1.0000 0.27443  0.25077  0.05777  Biso   1.000  C
  H457     1.0000 0.26863  0.26547  0.04527  Biso   1.000  H
  C1126    1.0000 0.26273  0.24307  0.08867  Biso   1.000  C
  H458     1.0000 0.24953  0.25317  0.09767  Biso   1.000  H
  C1127    1.0000 0.26993  0.22037  0.10697  Biso   1.000  C
  C1128    1.0000 0.28983  0.20677  0.09377  Biso   1.000  C
  H459     1.0000 0.29533  0.19177  0.10617  Biso   1.000  H
  C1129    1.0000 0.30163  0.21447  0.06307  Biso   1.000  C
  H460     1.0000 0.31463  0.20417  0.05407  Biso   1.000  H
  C1130    1.0000 0.25753  0.21187  0.14077  Biso   1.000  C
  C1131    1.0000 0.42553  0.11227  0.81667  Biso   1.000  C
  C1132    1.0000 0.39873  0.10007  0.76247  Biso   1.000  C
  H461     1.0000 0.38033  0.10377  0.77057  Biso   1.000  H
  C1133    1.0000 0.42513  0.10337  0.78247  Biso   1.000  C
  C1134    1.0000 0.39803  0.09147  0.73107  Biso   1.000  C
  H462     1.0000 0.37903  0.08857  0.71767  Biso   1.000  H
  C1135    1.0000 0.42543  0.08677  0.71857  Biso   1.000  C
  C1136    1.0000 0.45223  0.09037  0.73857  Biso   1.000  C
  H463     1.0000 0.47113  0.08757  0.73037  Biso   1.000  H
  C1137    1.0000 0.45183  0.09787  0.77037  Biso   1.000  C
  H464     1.0000 0.46993  0.09927  0.78407  Biso   1.000  H
  C1138    1.0000 0.42493  0.07797  0.68477  Biso   1.000  C
  C1139    1.0000 0.45333  0.07217  0.64247  Biso   1.000  C
  C1140    1.0000 0.36143  0.04037  0.62037  Biso   1.000  C
  C1141    1.0000 0.48653  0.07787  0.62657  Biso   1.000  C
  C1142    1.0000 0.51913  0.09837  0.64057  Biso   1.000  C
  H465     1.0000 0.52083  0.10817  0.66117  Biso   1.000  H
  C1143    1.0000 0.54953  0.10467  0.62447  Biso   1.000  C
  H466     1.0000 0.57223  0.12127  0.63297  Biso   1.000  H
  C1144    1.0000 0.54793  0.08777  0.59667  Biso   1.000  C
  C1145    1.0000 0.51493  0.06447  0.58397  Biso   1.000  C
  H467     1.0000 0.51343  0.05167  0.56507  Biso   1.000  H
  C1146    1.0000 0.48353  0.05927  0.59827  Biso   1.000  C
  H468     1.0000 0.46083  0.04367  0.58917  Biso   1.000  H
  C1147    1.0000 0.57913  0.09137  0.57917  Biso   1.000  C
  C1148    1.0000 0.39493  0.05597  0.63857  Biso   1.000  C
  C1149    1.0000 0.35673  0.01867  0.59427  Biso   1.000  C
  H469     1.0000 0.37563  0.01507  0.58747  Biso   1.000  H
  C1150    1.0000 0.32463  0.00267  0.57807  Biso   1.000  C
  H470     1.0000 0.32113  0.98747  0.56037  Biso   1.000  H
  C1151    1.0000 0.29773  0.00857  0.58767  Biso   1.000  C
  C1152    1.0000 0.30213  0.03047  0.61357  Biso   1.000  C
  H471     1.0000 0.28343  0.03467  0.61977  Biso   1.000  H
  C1153    1.0000 0.33393  0.04587  0.63027  Biso   1.000  C
  H472     1.0000 0.33693  0.06017  0.64847  Biso   1.000  H
  C1154    1.0000 0.26263  0.99127  0.57097  Biso   1.000  C
  C1155    1.0000 0.49163  0.18737  0.87437  Biso   1.000  C
  C1156    1.0000 0.52873  0.21797  0.87337  Biso   1.000  C
  C1157    1.0000 0.55653  0.21507  0.88707  Biso   1.000  C
  H473     1.0000 0.55163  0.19327  0.89677  Biso   1.000  H
  C1158    1.0000 0.59083  0.24337  0.88677  Biso   1.000  C
  H474     1.0000 0.60973  0.24077  0.89547  Biso   1.000  H
  C1159    1.0000 0.59763  0.27547  0.87387  Biso   1.000  C
  C1160    1.0000 0.57063  0.27907  0.86037  Biso   1.000  C
  H475     1.0000 0.57573  0.30137  0.85127  Biso   1.000  H
  C1161    1.0000 0.53553  0.24987  0.86017  Biso   1.000  C
  H476     1.0000 0.51673  0.25217  0.85087  Biso   1.000  H
  C1162    1.0000 0.63443  0.30647  0.87417  Biso   1.000  C
  O295     1.0000 0.17733  0.14967  0.18267  Biso   1.000  O
  O296     1.0000 0.19833  0.11467  0.17467  Biso   1.000  O
  C1163    1.0000 0.17683  0.12417  0.16697  Biso   1.000  C
  C1164    1.0000 0.13693  0.09727  0.15957  Biso   1.000  C
  C1165    1.0000 0.11033  0.10617  0.15697  Biso   1.000  C
  C1166    1.0000 0.07543  0.07987  0.15037  Biso   1.000  C
  C1167    1.0000 0.06713  0.04467  0.14667  Biso   1.000  C
  C1168    1.0000 0.09373  0.03567  0.14897  Biso   1.000  C
  C1169    1.0000 0.12863  0.06197  0.15567  Biso   1.000  C
  N134     1.0000 0.02123  0.98137  0.14667  Biso   1.000  N
  C1170    1.0000 0.02743  0.01457  0.14667  Biso   1.000  C
  O297     1.0000 0.31333  0.40267  0.88467  Biso   1.000  O
  O298     1.0000 0.34133  0.43227  0.92877  Biso   1.000  O
  C1171    1.0000 0.31533  0.30817  0.95267  Biso   1.000  C
  C1172    1.0000 0.29133  0.31867  0.96237  Biso   1.000  C
  H477     1.0000 0.27513  0.30677  0.97897  Biso   1.000  H
  C1173    1.0000 0.29233  0.34847  0.94787  Biso   1.000  C
  H478     1.0000 0.27613  0.35597  0.95467  Biso   1.000  H
  C1174    1.0000 0.31633  0.36647  0.92367  Biso   1.000  C
  C1175    1.0000 0.34033  0.35567  0.91377  Biso   1.000  C
  H479     1.0000 0.35693  0.36827  0.89717  Biso   1.000  H
  C1176    1.0000 0.33933  0.32617  0.92867  Biso   1.000  C
  H480     1.0000 0.35593  0.31907  0.92147  Biso   1.000  H
  C1177    1.0000 0.32433  0.40167  0.91467  Biso   1.000  C
  O299     1.0000 0.18273  0.17817  0.20127  Biso   1.000  O
  O300     1.0000 0.20023  0.14327  0.18277  Biso   1.000  O
  C1178    1.0000 0.17573  0.14997  0.18717  Biso   1.000  C
  C1179    1.0000 0.13693  0.11877  0.18417  Biso   1.000  C
  C1180    1.0000 0.10753  0.12317  0.18877  Biso   1.000  C
  C1181    1.0000 0.07323  0.09417  0.18567  Biso   1.000  C
  C1182    1.0000 0.06833  0.06067  0.17797  Biso   1.000  C
  C1183    1.0000 0.09773  0.05627  0.17337  Biso   1.000  C
  C1184    1.0000 0.13203  0.08537  0.17647  Biso   1.000  C
  N135     1.0000 0.03093  0.99737  0.17817  Biso   1.000  N
  C1185    1.0000 0.03053  0.02777  0.17817  Biso   1.000  C
  In31     1.0000 0.53375  0.62728  0.20901  Biso   1.000  In
  In32     1.0000 0.47083  0.37506  0.53271  Biso   1.000  In
  O301     1.0000 0.51110  0.56780  0.21110  Biso   1.000  O
  O302     1.0000 0.51150  0.59520  0.25510  Biso   1.000  O
  O303     1.0000 0.44480  0.34890  0.48510  Biso   1.000  O
  O304     1.0000 0.47210  0.40700  0.49080  Biso   1.000  O
  O305     1.0000 0.55640  0.66930  0.16970  Biso   1.000  O
  O306     1.0000 0.54260  0.61450  0.15880  Biso   1.000  O
  O307     1.0000 0.54910  0.82430  0.91930  Biso   1.000  O
  O308     1.0000 0.59550  0.83770  0.88990  Biso   1.000  O
  O309     1.0000 0.70150  0.62280  0.88520  Biso   1.000  O
  O310     1.0000 0.66470  0.57220  0.90890  Biso   1.000  O
  O311     1.0000 0.47800  0.61230  0.19210  Biso   1.000  O
  O312     1.0000 0.50670  0.65810  0.22440  Biso   1.000  O
  N136     1.0000 0.40640  0.40320  0.28510  Biso   1.000  N
  N137     1.0000 0.43930  0.42810  0.33230  Biso   1.000  N
  N138     1.0000 0.39400  0.36750  0.33080  Biso   1.000  N
  N139     1.0000 0.58410  0.70610  0.00540  Biso   1.000  N
  N140     1.0000 0.60850  0.69860  0.95760  Biso   1.000  N
  N141     1.0000 0.60020  0.66160  0.00210  Biso   1.000  N
  N142     1.0000 0.36740  0.69510  0.20740  Biso   1.000  N
  C1186    1.0000 0.50390  0.56700  0.24090  Biso   1.000  C
  C1187    1.0000 0.48530  0.53170  0.25650  Biso   1.000  C
  C1188    1.0000 0.48380  0.52930  0.28910  Biso   1.000  C
  H481     1.0000 0.49410  0.55040  0.30170  Biso   1.000  H
  C1189    1.0000 0.46730  0.49610  0.30390  Biso   1.000  C
  H482     1.0000 0.46710  0.49470  0.32660  Biso   1.000  H
  C1190    1.0000 0.45130  0.46580  0.28660  Biso   1.000  C
  C1191    1.0000 0.45210  0.46730  0.25360  Biso   1.000  C
  H483     1.0000 0.44100  0.44610  0.24120  Biso   1.000  H
  C1192    1.0000 0.46980  0.50110  0.23880  Biso   1.000  C
  H484     1.0000 0.47100  0.50270  0.21620  Biso   1.000  H
  C1193    1.0000 0.43170  0.43050  0.30220  Biso   1.000  C
  C1194    1.0000 0.38780  0.37260  0.30040  Biso   1.000  C
  C1195    1.0000 0.42130  0.39580  0.34560  Biso   1.000  C
  O313     1.0000 0.29480  0.24840  0.20320  Biso   1.000  O
  O314     1.0000 0.25130  0.24010  0.23380  Biso   1.000  O
  C1196    1.0000 0.35870  0.34340  0.28260  Biso   1.000  C
  C1197    1.0000 0.36210  0.34170  0.25020  Biso   1.000  C
  H485     1.0000 0.38230  0.36020  0.23960  Biso   1.000  H
  C1198    1.0000 0.33690  0.31380  0.23300  Biso   1.000  C
  H486     1.0000 0.34050  0.31230  0.21080  Biso   1.000  H
  C1199    1.0000 0.30900  0.29010  0.24630  Biso   1.000  C
  C1200    1.0000 0.30190  0.29140  0.27900  Biso   1.000  C
  H487     1.0000 0.27970  0.27440  0.28820  Biso   1.000  H
  C1201    1.0000 0.32890  0.31880  0.29760  Biso   1.000  C
  H488     1.0000 0.32620  0.31990  0.32000  Biso   1.000  H
  C1202    1.0000 0.28340  0.25650  0.22730  Biso   1.000  C
  C1203    1.0000 0.42950  0.39100  0.37810  Biso   1.000  C
  C1204    1.0000 0.41590  0.35700  0.39110  Biso   1.000  C
  H489     1.0000 0.40120  0.33650  0.37860  Biso   1.000  H
  C1205    1.0000 0.42360  0.35300  0.42200  Biso   1.000  C
  H490     1.0000 0.41350  0.32970  0.43100  Biso   1.000  H
  C1206    1.0000 0.44630  0.38290  0.44030  Biso   1.000  C
  C1207    1.0000 0.45990  0.41640  0.42710  Biso   1.000  C
  H491     1.0000 0.47490  0.43690  0.43950  Biso   1.000  H
  C1208    1.0000 0.45220  0.42050  0.39640  Biso   1.000  C
  H492     1.0000 0.46250  0.44380  0.38740  Biso   1.000  H
  C1209    1.0000 0.45480  0.37900  0.47410  Biso   1.000  C
  C1210    1.0000 0.55440  0.64660  0.15000  Biso   1.000  C
  C1211    1.0000 0.56660  0.63200  0.09580  Biso   1.000  C
  H493     1.0000 0.56290  0.60990  0.10390  Biso   1.000  H
  C1212    1.0000 0.56330  0.65510  0.11580  Biso   1.000  C
  C1213    1.0000 0.57520  0.63990  0.06440  Biso   1.000  C
  H494     1.0000 0.57810  0.62380  0.05100  Biso   1.000  H
  C1214    1.0000 0.57990  0.67200  0.05190  Biso   1.000  C
  C1215    1.0000 0.57630  0.69520  0.07190  Biso   1.000  C
  H495     1.0000 0.57910  0.71690  0.06370  Biso   1.000  H
  C1216    1.0000 0.56880  0.68730  0.10370  Biso   1.000  C
  H496     1.0000 0.56740  0.70400  0.11740  Biso   1.000  H
  C1217    1.0000 0.58870  0.68030  0.01810  Biso   1.000  C
  C1218    1.0000 0.59450  0.71450  0.97580  Biso   1.000  C
  C1219    1.0000 0.62630  0.65440  0.95370  Biso   1.000  C
  C1220    1.0000 0.58880  0.74200  0.95990  Biso   1.000  C
  C1221    1.0000 0.56830  0.75410  0.97390  Biso   1.000  C
  H497     1.0000 0.55850  0.74600  0.99450  Biso   1.000  H
  C1222    1.0000 0.56200  0.77820  0.95780  Biso   1.000  C
  H498     1.0000 0.54540  0.78430  0.96630  Biso   1.000  H
  C1223    1.0000 0.57890  0.79350  0.93000  Biso   1.000  C
  C1224    1.0000 0.60220  0.78380  0.91730  Biso   1.000  C
  H499     1.0000 0.61500  0.79510  0.89840  Biso   1.000  H
  C1225    1.0000 0.60740  0.75760  0.93160  Biso   1.000  C
  H500     1.0000 0.62300  0.75050  0.92250  Biso   1.000  H
  C1226    1.0000 0.57530  0.82110  0.91250  Biso   1.000  C
  C1227    1.0000 0.61070  0.67230  0.97190  Biso   1.000  C
  C1228    1.0000 0.64800  0.67140  0.92760  Biso   1.000  C
  H501     1.0000 0.65160  0.69390  0.92080  Biso   1.000  H
  C1229    1.0000 0.66400  0.65530  0.91140  Biso   1.000  C
  H502     1.0000 0.67920  0.66700  0.89370  Biso   1.000  H
  C1230    1.0000 0.65810  0.62250  0.92100  Biso   1.000  C
  C1231    1.0000 0.63620  0.60500  0.94690  Biso   1.000  C
  H503     1.0000 0.63200  0.58210  0.95310  Biso   1.000  H
  C1232    1.0000 0.62080  0.62140  0.96360  Biso   1.000  C
  H504     1.0000 0.60650  0.61010  0.98180  Biso   1.000  H
  C1233    1.0000 0.67540  0.60470  0.90430  Biso   1.000  C
  C1234    1.0000 0.47930  0.63760  0.20770  Biso   1.000  C
  C1235    1.0000 0.44870  0.64410  0.20670  Biso   1.000  C
  C1236    1.0000 0.45160  0.67480  0.22040  Biso   1.000  C
  H505     1.0000 0.47340  0.69170  0.23010  Biso   1.000  H
  C1237    1.0000 0.42330  0.68080  0.22010  Biso   1.000  C
  H506     1.0000 0.42590  0.70230  0.22880  Biso   1.000  H
  C1238    1.0000 0.39120  0.65550  0.20720  Biso   1.000  C
  C1239    1.0000 0.38760  0.62490  0.19370  Biso   1.000  C
  H507     1.0000 0.36530  0.60770  0.18460  Biso   1.000  H
  C1240    1.0000 0.41680  0.61900  0.19350  Biso   1.000  C
  H508     1.0000 0.41450  0.59790  0.18420  Biso   1.000  H
  C1241    1.0000 0.36020  0.66130  0.20750  Biso   1.000  C
  O315     1.0000 0.51700  0.36100  0.51600  Biso   1.000  O
  O316     1.0000 0.55200  0.41700  0.50800  Biso   1.000  O
  C1242    1.0000 0.54250  0.38600  0.50030  Biso   1.000  C
  C1243    1.0000 0.56940  0.37300  0.49290  Biso   1.000  C
  C1244    1.0000 0.56050  0.33750  0.49030  Biso   1.000  C
  C1245    1.0000 0.58680  0.32890  0.48370  Biso   1.000  C
  C1246    1.0000 0.62200  0.35580  0.48000  Biso   1.000  C
  C1247    1.0000 0.63100  0.39140  0.48230  Biso   1.000  C
  C1248    1.0000 0.60470  0.40000  0.48900  Biso   1.000  C
  N143     1.0000 0.68530  0.37320  0.48000  Biso   1.000  N
  C1249    1.0000 0.65210  0.34620  0.48000  Biso   1.000  C
  O317     1.0000 0.26400  0.24400  0.21800  Biso   1.000  O
  O318     1.0000 0.23440  0.24240  0.26210  Biso   1.000  O
  C1250    1.0000 0.35850  0.34050  0.28600  Biso   1.000  C
  C1251    1.0000 0.34800  0.30600  0.29570  Biso   1.000  C
  H509     1.0000 0.35990  0.30170  0.31230  Biso   1.000  H
  C1252    1.0000 0.31820  0.27720  0.28120  Biso   1.000  C
  H510     1.0000 0.31070  0.25350  0.28800  Biso   1.000  H
  C1253    1.0000 0.30020  0.28320  0.25700  Biso   1.000  C
  C1254    1.0000 0.31100  0.31800  0.24710  Biso   1.000  C
  H511     1.0000 0.29840  0.32200  0.23050  Biso   1.000  H
  C1255    1.0000 0.34050  0.34650  0.26200  Biso   1.000  C
  H512     1.0000 0.34760  0.37020  0.25480  Biso   1.000  H
  C1256    1.0000 0.26500  0.25600  0.24800  Biso   1.000  C
  O319     1.0000 0.48850  0.33790  0.53460  Biso   1.000  O
  O320     1.0000 0.52340  0.39030  0.51610  Biso   1.000  O
  C1257    1.0000 0.51670  0.35910  0.52050  Biso   1.000  C
  C1258    1.0000 0.54790  0.35150  0.51750  Biso   1.000  C
  C1259    1.0000 0.54350  0.31770  0.52210  Biso   1.000  C
  C1260    1.0000 0.57250  0.31240  0.51900  Biso   1.000  C
  C1261    1.0000 0.60600  0.34100  0.51130  Biso   1.000  C
  C1262    1.0000 0.61040  0.37480  0.50670  Biso   1.000  C
  C1263    1.0000 0.58130  0.38000  0.50980  Biso   1.000  C
  N144     1.0000 0.66930  0.36690  0.51150  Biso   1.000  N
  C1264    1.0000 0.63890  0.33610  0.51150  Biso   1.000  C
  In33     1.0000 0.20042  0.96061  0.54234  Biso   1.000  In
  In34     1.0000 0.13750  0.70839  0.86604  Biso   1.000  In
  O321     1.0000 0.17777  0.90113  0.54443  Biso   1.000  O
  O322     1.0000 0.17817  0.92853  0.58843  Biso   1.000  O
  O323     1.0000 0.11147  0.68223  0.81843  Biso   1.000  O
  O324     1.0000 0.13877  0.74033  0.82413  Biso   1.000  O
  O325     1.0000 0.22307  0.00263  0.50303  Biso   1.000  O
  O326     1.0000 0.20927  0.94783  0.49213  Biso   1.000  O
  O327     1.0000 0.21577  0.15763  0.25263  Biso   1.000  O
  O328     1.0000 0.26217  0.17103  0.22323  Biso   1.000  O
  O329     1.0000 0.36817  0.95613  0.21853  Biso   1.000  O
  O330     1.0000 0.33137  0.90553  0.24223  Biso   1.000  O
  O331     1.0000 0.14467  0.94563  0.52543  Biso   1.000  O
  O332     1.0000 0.17337  0.99143  0.55773  Biso   1.000  O
  N145     1.0000 0.07307  0.73653  0.61843  Biso   1.000  N
  N146     1.0000 0.10597  0.76143  0.66563  Biso   1.000  N
  N147     1.0000 0.06067  0.70083  0.66413  Biso   1.000  N
  N148     1.0000 0.25077  0.03943  0.33873  Biso   1.000  N
  N149     1.0000 0.27517  0.03193  0.29093  Biso   1.000  N
  N150     1.0000 0.26687  0.99493  0.33543  Biso   1.000  N
  N151     1.0000 0.03407  0.02843  0.54073  Biso   1.000  N
  C1265    1.0000 0.17057  0.90033  0.57423  Biso   1.000  C
  C1266    1.0000 0.15197  0.86503  0.58983  Biso   1.000  C
  C1267    1.0000 0.15047  0.86263  0.62243  Biso   1.000  C
  H513     1.0000 0.16077  0.88373  0.63503  Biso   1.000  H
  C1268    1.0000 0.13397  0.82943  0.63723  Biso   1.000  C
  H514     1.0000 0.13377  0.82803  0.65993  Biso   1.000  H
  C1269    1.0000 0.11797  0.79913  0.61993  Biso   1.000  C
  C1270    1.0000 0.11877  0.80063  0.58693  Biso   1.000  C
  H515     1.0000 0.10767  0.77943  0.57453  Biso   1.000  H
  C1271    1.0000 0.13647  0.83443  0.57213  Biso   1.000  C
  H516     1.0000 0.13767  0.83603  0.54953  Biso   1.000  H
  C1272    1.0000 0.09837  0.76383  0.63553  Biso   1.000  C
  C1273    1.0000 0.05447  0.70593  0.63373  Biso   1.000  C
  C1274    1.0000 0.08797  0.72913  0.67893  Biso   1.000  C
  O333     1.0000 0.96147  0.58173  0.53653  Biso   1.000  O
  O334     1.0000 0.91797  0.57343  0.56713  Biso   1.000  O
  C1275    1.0000 0.02537  0.67673  0.61593  Biso   1.000  C
  C1276    1.0000 0.02877  0.67503  0.58353  Biso   1.000  C
  H517     1.0000 0.04897  0.69353  0.57293  Biso   1.000  H
  C1277    1.0000 0.00357  0.64713  0.56633  Biso   1.000  C
  H518     1.0000 0.00717  0.64563  0.54413  Biso   1.000  H
  C1278    1.0000 0.97567  0.62343  0.57963  Biso   1.000  C
  C1279    1.0000 0.96857  0.62473  0.61233  Biso   1.000  C
  H519     1.0000 0.94637  0.60773  0.62153  Biso   1.000  H
  C1280    1.0000 0.99557  0.65213  0.63093  Biso   1.000  C
  H520     1.0000 0.99287  0.65323  0.65333  Biso   1.000  H
  C1281    1.0000 0.95007  0.58983  0.56063  Biso   1.000  C
  C1282    1.0000 0.09617  0.72433  0.71143  Biso   1.000  C
  C1283    1.0000 0.08257  0.69033  0.72443  Biso   1.000  C
  H521     1.0000 0.06787  0.66983  0.71193  Biso   1.000  H
  C1284    1.0000 0.09027  0.68633  0.75533  Biso   1.000  C
  H522     1.0000 0.08017  0.66303  0.76433  Biso   1.000  H
  C1285    1.0000 0.11297  0.71623  0.77363  Biso   1.000  C
  C1286    1.0000 0.12657  0.74973  0.76043  Biso   1.000  C
  H523     1.0000 0.14157  0.77023  0.77283  Biso   1.000  H
  C1287    1.0000 0.11887  0.75383  0.72973  Biso   1.000  C
  H524     1.0000 0.12917  0.77713  0.72073  Biso   1.000  H
  C1288    1.0000 0.12147  0.71233  0.80743  Biso   1.000  C
  C1289    1.0000 0.22107  0.97993  0.48333  Biso   1.000  C
  C1290    1.0000 0.23327  0.96533  0.42913  Biso   1.000  C
  H525     1.0000 0.22957  0.94323  0.43723  Biso   1.000  H
  C1291    1.0000 0.22997  0.98843  0.44913  Biso   1.000  C
  C1292    1.0000 0.24187  0.97323  0.39773  Biso   1.000  C
  H526     1.0000 0.24477  0.95713  0.38433  Biso   1.000  H
  C1293    1.0000 0.24657  0.00533  0.38523  Biso   1.000  C
  C1294    1.0000 0.24297  0.02853  0.40523  Biso   1.000  C
  H527     1.0000 0.24577  0.05023  0.39703  Biso   1.000  H
  C1295    1.0000 0.23547  0.02063  0.43703  Biso   1.000  C
  H528     1.0000 0.23407  0.03733  0.45073  Biso   1.000  H
  C1296    1.0000 0.25537  0.01363  0.35143  Biso   1.000  C
  C1297    1.0000 0.26117  0.04783  0.30913  Biso   1.000  C
  C1298    1.0000 0.29297  0.98773  0.28703  Biso   1.000  C
  C1299    1.0000 0.25547  0.07533  0.29323  Biso   1.000  C
  C1300    1.0000 0.23497  0.08743  0.30723  Biso   1.000  C
  H529     1.0000 0.22517  0.07933  0.32783  Biso   1.000  H
  C1301    1.0000 0.22867  0.11153  0.29113  Biso   1.000  C
  H530     1.0000 0.21207  0.11763  0.29963  Biso   1.000  H
  C1302    1.0000 0.24557  0.12683  0.26333  Biso   1.000  C
  C1303    1.0000 0.26887  0.11713  0.25063  Biso   1.000  C
  H531     1.0000 0.28167  0.12843  0.23173  Biso   1.000  H
  C1304    1.0000 0.27407  0.09093  0.26493  Biso   1.000  C
  H532     1.0000 0.28967  0.08383  0.25583  Biso   1.000  H
  C1305    1.0000 0.24197  0.15443  0.24583  Biso   1.000  C
  C1306    1.0000 0.27737  0.00563  0.30523  Biso   1.000  C
  C1307    1.0000 0.31467  0.00473  0.26093  Biso   1.000  C
  H533     1.0000 0.31827  0.02723  0.25413  Biso   1.000  H
  C1308    1.0000 0.33067  0.98863  0.24473  Biso   1.000  C
  H534     1.0000 0.34587  0.00033  0.22703  Biso   1.000  H
  C1309    1.0000 0.32477  0.95583  0.25433  Biso   1.000  C
  C1310    1.0000 0.30287  0.93833  0.28023  Biso   1.000  C
  H535     1.0000 0.29867  0.91543  0.28643  Biso   1.000  H
  C1311    1.0000 0.28747  0.95473  0.29693  Biso   1.000  C
  H536     1.0000 0.27317  0.94343  0.31513  Biso   1.000  H
  C1312    1.0000 0.34207  0.93803  0.23763  Biso   1.000  C
  C1313    1.0000 0.14597  0.97093  0.54103  Biso   1.000  C
  C1314    1.0000 0.11537  0.97743  0.54003  Biso   1.000  C
  C1315    1.0000 0.11827  0.00813  0.55373  Biso   1.000  C
  H537     1.0000 0.14007  0.02503  0.56343  Biso   1.000  H
  C1316    1.0000 0.08997  0.01413  0.55343  Biso   1.000  C
  H538     1.0000 0.09257  0.03563  0.56213  Biso   1.000  H
  C1317    1.0000 0.05787  0.98883  0.54053  Biso   1.000  C
  C1318    1.0000 0.05427  0.95823  0.52703  Biso   1.000  C
  H539     1.0000 0.03197  0.94103  0.51793  Biso   1.000  H
  C1319    1.0000 0.08347  0.95233  0.52683  Biso   1.000  C
  H540     1.0000 0.08117  0.93123  0.51753  Biso   1.000  H
  C1320    1.0000 0.02687  0.99463  0.54083  Biso   1.000  C
  O335     1.0000 0.18367  0.69433  0.84933  Biso   1.000  O
  O336     1.0000 0.21867  0.75033  0.84133  Biso   1.000  O
  C1321    1.0000 0.20917  0.71933  0.83363  Biso   1.000  C
  C1322    1.0000 0.23607  0.70633  0.82623  Biso   1.000  C
  C1323    1.0000 0.22717  0.67083  0.82363  Biso   1.000  C
  C1324    1.0000 0.25347  0.66223  0.81703  Biso   1.000  C
  C1325    1.0000 0.28867  0.68913  0.81333  Biso   1.000  C
  C1326    1.0000 0.29767  0.72473  0.81563  Biso   1.000  C
  C1327    1.0000 0.27137  0.73333  0.82233  Biso   1.000  C
  N152     1.0000 0.35197  0.70653  0.81333  Biso   1.000  N
  C1328    1.0000 0.31877  0.67953  0.81333  Biso   1.000  C
  O337     1.0000 0.93067  0.57733  0.55133  Biso   1.000  O
  O338     1.0000 0.90107  0.57573  0.59543  Biso   1.000  O
  C1329    1.0000 0.02517  0.67383  0.61933  Biso   1.000  C
  C1330    1.0000 0.01467  0.63933  0.62903  Biso   1.000  C
  H541     1.0000 0.02657  0.63503  0.64563  Biso   1.000  H
  C1331    1.0000 0.98487  0.61053  0.61453  Biso   1.000  C
  H542     1.0000 0.97737  0.58683  0.62133  Biso   1.000  H
  C1332    1.0000 0.96687  0.61653  0.59033  Biso   1.000  C
  C1333    1.0000 0.97767  0.65133  0.58043  Biso   1.000  C
  H543     1.0000 0.96507  0.65533  0.56383  Biso   1.000  H
  C1334    1.0000 0.00717  0.67983  0.59533  Biso   1.000  C
  H544     1.0000 0.01427  0.70353  0.58813  Biso   1.000  H
  C1335    1.0000 0.93167  0.58933  0.58133  Biso   1.000  C
  O339     1.0000 0.15517  0.67123  0.86793  Biso   1.000  O
  O340     1.0000 0.19007  0.72363  0.84943  Biso   1.000  O
  C1336    1.0000 0.18337  0.69243  0.85383  Biso   1.000  C
  C1337    1.0000 0.21457  0.68483  0.85083  Biso   1.000  C
  C1338    1.0000 0.21017  0.65103  0.85543  Biso   1.000  C
  C1339    1.0000 0.23917  0.64573  0.85233  Biso   1.000  C
  C1340    1.0000 0.27267  0.67433  0.84463  Biso   1.000  C
  C1341    1.0000 0.27707  0.70813  0.84003  Biso   1.000  C
  C1342    1.0000 0.24797  0.71333  0.84313  Biso   1.000  C
  N153     1.0000 0.33597  0.70023  0.84483  Biso   1.000  N
  C1343    1.0000 0.30557  0.66943  0.84483  Biso   1.000  C
  In35     1.0000 0.86708  0.29395  0.87568  Biso   1.000  In
  In36     1.0000 0.80416  0.04173  0.19938  Biso   1.000  In
  O341     1.0000 0.84443  0.23447  0.87777  Biso   1.000  O
  O342     1.0000 0.84483  0.26187  0.92177  Biso   1.000  O
  O343     1.0000 0.77813  0.01557  0.15177  Biso   1.000  O
  O344     1.0000 0.80543  0.07367  0.15747  Biso   1.000  O
  O345     1.0000 0.88973  0.33597  0.83637  Biso   1.000  O
  O346     1.0000 0.87593  0.28117  0.82547  Biso   1.000  O
  O347     1.0000 0.88243  0.49097  0.58597  Biso   1.000  O
  O348     1.0000 0.92883  0.50437  0.55657  Biso   1.000  O
  O349     1.0000 0.03483  0.28947  0.55187  Biso   1.000  O
  O350     1.0000 0.99803  0.23887  0.57557  Biso   1.000  O
  O351     1.0000 0.81133  0.27897  0.85877  Biso   1.000  O
  O352     1.0000 0.84003  0.32477  0.89107  Biso   1.000  O
  N154     1.0000 0.73973  0.06987  0.95177  Biso   1.000  N
  N155     1.0000 0.77263  0.09477  0.99897  Biso   1.000  N
  N156     1.0000 0.72733  0.03417  0.99747  Biso   1.000  N
  N157     1.0000 0.91743  0.37277  0.67207  Biso   1.000  N
  N158     1.0000 0.94183  0.36527  0.62427  Biso   1.000  N
  N159     1.0000 0.93353  0.32827  0.66877  Biso   1.000  N
  N160     1.0000 0.70073  0.36177  0.87407  Biso   1.000  N
  C1344    1.0000 0.83723  0.23367  0.90757  Biso   1.000  C
  C1345    1.0000 0.81863  0.19837  0.92317  Biso   1.000  C
  C1346    1.0000 0.81713  0.19597  0.95577  Biso   1.000  C
  H545     1.0000 0.82743  0.21707  0.96837  Biso   1.000  H
  C1347    1.0000 0.80063  0.16277  0.97057  Biso   1.000  C
  H546     1.0000 0.80043  0.16137  0.99327  Biso   1.000  H
  C1348    1.0000 0.78463  0.13247  0.95327  Biso   1.000  C
  C1349    1.0000 0.78543  0.13397  0.92027  Biso   1.000  C
  H547     1.0000 0.77433  0.11277  0.90787  Biso   1.000  H
  C1350    1.0000 0.80313  0.16777  0.90547  Biso   1.000  C
  H548     1.0000 0.80433  0.16937  0.88287  Biso   1.000  H
  C1351    1.0000 0.76503  0.09717  0.96887  Biso   1.000  C
  C1352    1.0000 0.72113  0.03927  0.96707  Biso   1.000  C
  C1353    1.0000 0.75463  0.06247  0.01227  Biso   1.000  C
  O353     1.0000 0.62813  0.91507  0.86987  Biso   1.000  O
  O354     1.0000 0.58463  0.90677  0.90047  Biso   1.000  O
  C1354    1.0000 0.69203  0.01007  0.94927  Biso   1.000  C
  C1355    1.0000 0.69543  0.00837  0.91687  Biso   1.000  C
  H549     1.0000 0.71563  0.02687  0.90627  Biso   1.000  H
  C1356    1.0000 0.67023  0.98047  0.89967  Biso   1.000  C
  H550     1.0000 0.67383  0.97897  0.87747  Biso   1.000  H
  C1357    1.0000 0.64233  0.95677  0.91297  Biso   1.000  C
  C1358    1.0000 0.63523  0.95807  0.94567  Biso   1.000  C
  H551     1.0000 0.61303  0.94107  0.95487  Biso   1.000  H
  C1359    1.0000 0.66223  0.98547  0.96427  Biso   1.000  C
  H552     1.0000 0.65953  0.98657  0.98667  Biso   1.000  H
  C1360    1.0000 0.61673  0.92317  0.89397  Biso   1.000  C
  C1361    1.0000 0.76283  0.05767  0.04477  Biso   1.000  C
  C1362    1.0000 0.74923  0.02367  0.05777  Biso   1.000  C
  H553     1.0000 0.73453  0.00317  0.04527  Biso   1.000  H
  C1363    1.0000 0.75693  0.01967  0.08867  Biso   1.000  C
  H554     1.0000 0.74683  0.99637  0.09767  Biso   1.000  H
  C1364    1.0000 0.77963  0.04957  0.10697  Biso   1.000  C
  C1365    1.0000 0.79323  0.08307  0.09377  Biso   1.000  C
  H555     1.0000 0.80823  0.10357  0.10617  Biso   1.000  H
  C1366    1.0000 0.78553  0.08717  0.06307  Biso   1.000  C
  H556     1.0000 0.79583  0.11047  0.05407  Biso   1.000  H
  C1367    1.0000 0.78813  0.04567  0.14077  Biso   1.000  C
  C1368    1.0000 0.88773  0.31327  0.81667  Biso   1.000  C
  C1369    1.0000 0.89993  0.29867  0.76247  Biso   1.000  C
  H557     1.0000 0.89623  0.27657  0.77057  Biso   1.000  H
  C1370    1.0000 0.89663  0.32177  0.78247  Biso   1.000  C
  C1371    1.0000 0.90853  0.30657  0.73107  Biso   1.000  C
  H558     1.0000 0.91143  0.29047  0.71767  Biso   1.000  H
  C1372    1.0000 0.91323  0.33867  0.71857  Biso   1.000  C
  C1373    1.0000 0.90963  0.36187  0.73857  Biso   1.000  C
  H559     1.0000 0.91243  0.38357  0.73037  Biso   1.000  H
  C1374    1.0000 0.90213  0.35397  0.77037  Biso   1.000  C
  H560     1.0000 0.90073  0.37067  0.78407  Biso   1.000  H
  C1375    1.0000 0.92203  0.34697  0.68477  Biso   1.000  C
  C1376    1.0000 0.92783  0.38117  0.64247  Biso   1.000  C
  C1377    1.0000 0.95963  0.32107  0.62037  Biso   1.000  C
  C1378    1.0000 0.92213  0.40867  0.62657  Biso   1.000  C
  C1379    1.0000 0.90163  0.42077  0.64057  Biso   1.000  C
  H561     1.0000 0.89183  0.41267  0.66117  Biso   1.000  H
  C1380    1.0000 0.89533  0.44487  0.62447  Biso   1.000  C
  H562     1.0000 0.87873  0.45097  0.63297  Biso   1.000  H
  C1381    1.0000 0.91223  0.46017  0.59667  Biso   1.000  C
  C1382    1.0000 0.93553  0.45047  0.58397  Biso   1.000  C
  H563     1.0000 0.94833  0.46177  0.56507  Biso   1.000  H
  C1383    1.0000 0.94073  0.42427  0.59827  Biso   1.000  C
  H564     1.0000 0.95633  0.41717  0.58917  Biso   1.000  H
  C1384    1.0000 0.90863  0.48777  0.57917  Biso   1.000  C
  C1385    1.0000 0.94403  0.33897  0.63857  Biso   1.000  C
  C1386    1.0000 0.98133  0.33807  0.59427  Biso   1.000  C
  H565     1.0000 0.98493  0.36057  0.58747  Biso   1.000  H
  C1387    1.0000 0.99733  0.32197  0.57807  Biso   1.000  C
  H566     1.0000 0.01253  0.33367  0.56037  Biso   1.000  H
  C1388    1.0000 0.99143  0.28917  0.58767  Biso   1.000  C
  C1389    1.0000 0.96953  0.27167  0.61357  Biso   1.000  C
  H567     1.0000 0.96533  0.24877  0.61977  Biso   1.000  H
  C1390    1.0000 0.95413  0.28807  0.63027  Biso   1.000  C
  H568     1.0000 0.93983  0.27677  0.64847  Biso   1.000  H
  C1391    1.0000 0.00873  0.27137  0.57097  Biso   1.000  C
  C1392    1.0000 0.81263  0.30427  0.87437  Biso   1.000  C
  C1393    1.0000 0.78203  0.31077  0.87337  Biso   1.000  C
  C1394    1.0000 0.78493  0.34147  0.88707  Biso   1.000  C
  H569     1.0000 0.80673  0.35837  0.89677  Biso   1.000  H
  C1395    1.0000 0.75663  0.34747  0.88677  Biso   1.000  C
  H570     1.0000 0.75923  0.36897  0.89547  Biso   1.000  H
  C1396    1.0000 0.72453  0.32217  0.87387  Biso   1.000  C
  C1397    1.0000 0.72093  0.29157  0.86037  Biso   1.000  C
  H571     1.0000 0.69863  0.27437  0.85127  Biso   1.000  H
  C1398    1.0000 0.75013  0.28567  0.86017  Biso   1.000  C
  H572     1.0000 0.74783  0.26457  0.85087  Biso   1.000  H
  C1399    1.0000 0.69353  0.32797  0.87417  Biso   1.000  C
  O355     1.0000 0.85033  0.02767  0.18267  Biso   1.000  O
  O356     1.0000 0.88533  0.08367  0.17467  Biso   1.000  O
  C1400    1.0000 0.87583  0.05267  0.16697  Biso   1.000  C
  C1401    1.0000 0.90273  0.03967  0.15957  Biso   1.000  C
  C1402    1.0000 0.89383  0.00417  0.15697  Biso   1.000  C
  C1403    1.0000 0.92013  0.99557  0.15037  Biso   1.000  C
  C1404    1.0000 0.95533  0.02247  0.14667  Biso   1.000  C
  C1405    1.0000 0.96433  0.05807  0.14897  Biso   1.000  C
  C1406    1.0000 0.93803  0.06667  0.15567  Biso   1.000  C
  N161     1.0000 0.01863  0.03987  0.14667  Biso   1.000  N
  C1407    1.0000 0.98543  0.01287  0.14667  Biso   1.000  C
  O357     1.0000 0.59733  0.91067  0.88467  Biso   1.000  O
  O358     1.0000 0.56773  0.90907  0.92877  Biso   1.000  O
  C1408    1.0000 0.69183  0.00717  0.95267  Biso   1.000  C
  C1409    1.0000 0.68133  0.97267  0.96237  Biso   1.000  C
  H573     1.0000 0.69323  0.96837  0.97897  Biso   1.000  H
  C1410    1.0000 0.65153  0.94387  0.94787  Biso   1.000  C
  H574     1.0000 0.64403  0.92017  0.95467  Biso   1.000  H
  C1411    1.0000 0.63353  0.94987  0.92367  Biso   1.000  C
  C1412    1.0000 0.64433  0.98467  0.91377  Biso   1.000  C
  H575     1.0000 0.63173  0.98867  0.89717  Biso   1.000  H
  C1413    1.0000 0.67383  0.01317  0.92867  Biso   1.000  C
  H576     1.0000 0.68093  0.03687  0.92147  Biso   1.000  H
  C1414    1.0000 0.59833  0.92267  0.91467  Biso   1.000  C
  O359     1.0000 0.82183  0.00457  0.20127  Biso   1.000  O
  O360     1.0000 0.85673  0.05697  0.18277  Biso   1.000  O
  C1415    1.0000 0.85003  0.02577  0.18717  Biso   1.000  C
  C1416    1.0000 0.88123  0.01817  0.18417  Biso   1.000  C
  C1417    1.0000 0.87683  0.98437  0.18877  Biso   1.000  C
  C1418    1.0000 0.90583  0.97907  0.18567  Biso   1.000  C
  C1419    1.0000 0.93933  0.00767  0.17797  Biso   1.000  C
  C1420    1.0000 0.94373  0.04147  0.17337  Biso   1.000  C
  C1421    1.0000 0.91463  0.04667  0.17647  Biso   1.000  C
  N162     1.0000 0.00263  0.03357  0.17817  Biso   1.000  N
  C1422    1.0000 0.97223  0.00277  0.17817  Biso   1.000  C
