data_image0
_cell_length_a       13.174
_cell_length_b       32.548
_cell_length_c       33.039
_cell_angle_alpha    90
_cell_angle_beta     97.479
_cell_angle_gamma    90

_symmetry_space_group_name_H-M    "P 1"
_symmetry_int_tables_number       1

loop_
  _symmetry_equiv_pos_as_xyz
  'x, y, z'

loop_
  _atom_site_label
  _atom_site_occupancy
  _atom_site_fract_x
  _atom_site_fract_y
  _atom_site_fract_z
  _atom_site_thermal_displace_type
  _atom_site_B_iso_or_equiv
  _atom_site_type_symbol
  Fe1      1.0000 0.36732  0.07045  0.97906  Biso   1.000  Fe
  Fe2      1.0000 0.63745  0.82257  0.01721  Biso   1.000  Fe
  Cd1      1.0000 0.23674  0.86835  0.75002  Biso   1.000  Cd
  C1       1.0000 0.58840  0.07710  0.01500  Biso   1.000  C
  C2       1.0000 0.67640  0.08050  0.04550  Biso   1.000  C
  H1       1.0000 0.67370  0.05890  0.06560  Biso   1.000  H
  H2       1.0000 0.67430  0.10670  0.05930  Biso   1.000  H
  C3       1.0000 0.77760  0.07700  0.02710  Biso   1.000  C
  H3       1.0000 0.81710  0.10150  0.03500  Biso   1.000  H
  H4       1.0000 0.81510  0.05400  0.04040  Biso   1.000  H
  C4       1.0000 0.77730  0.07220  0.98650  Biso   1.000  C
  H5       1.0000 0.83220  0.05330  0.98280  Biso   1.000  H
  H6       1.0000 0.79590  0.09860  0.97580  Biso   1.000  H
  C5       1.0000 0.69030  0.05860  0.96140  Biso   1.000  C
  H7       1.0000 0.69800  0.02930  0.95720  Biso   1.000  H
  H8       1.0000 0.68950  0.07170  0.93500  Biso   1.000  H
  C6       1.0000 0.59060  0.06520  0.97490  Biso   1.000  C
  C7       1.0000 0.47170  0.07370  0.06600  Biso   1.000  C
  H9       1.0000 0.52950  0.07840  0.08480  Biso   1.000  H
  C8       1.0000 0.49400  0.03000  0.91860  Biso   1.000  C
  H10      1.0000 0.55660  0.02470  0.90950  Biso   1.000  H
  C9       1.0000 0.37260  0.07150  0.08100  Biso   1.000  C
  C10      1.0000 0.37110  0.08020  0.12230  Biso   1.000  C
  H11      1.0000 0.43190  0.08580  0.13910  Biso   1.000  H
  C11      1.0000 0.27690  0.08040  0.13860  Biso   1.000  C
  C12      1.0000 0.18840  0.06710  0.11330  Biso   1.000  C
  H12      1.0000 0.12720  0.06570  0.12450  Biso   1.000  H
  C13      1.0000 0.18750  0.05600  0.07330  Biso   1.000  C
  C14      1.0000 0.28270  0.06010  0.05500  Biso   1.000  C
  C15      1.0000 0.40480  0.01560  0.89450  Biso   1.000  C
  C16      1.0000 0.41960  0.99240  0.85880  Biso   1.000  C
  H13      1.0000 0.48460  0.99020  0.85080  Biso   1.000  H
  C17      1.0000 0.33820  0.97350  0.83650  Biso   1.000  C
  C18      1.0000 0.24020  0.98040  0.84560  Biso   1.000  C
  H14      1.0000 0.18530  0.96890  0.82890  Biso   1.000  H
  C19      1.0000 0.22070  0.00390  0.87870  Biso   1.000  C
  C20      1.0000 0.30460  0.02180  0.90260  Biso   1.000  C
  C21      1.0000 0.09230  0.04340  0.04650  Biso   1.000  C
  H15      1.0000 0.10890  0.03670  0.01980  Biso   1.000  H
  H16      1.0000 0.04390  0.06560  0.04440  Biso   1.000  H
  H17      1.0000 0.06320  0.01980  0.05800  Biso   1.000  H
  C22      1.0000 0.11480  0.00930  0.88880  Biso   1.000  C
  H18      1.0000 0.11610  0.02650  0.91250  Biso   1.000  H
  H19      1.0000 0.08680  0.98300  0.89440  Biso   1.000  H
  H20      1.0000 0.07300  0.02180  0.86620  Biso   1.000  H
  C23      1.0000 0.26750  0.09490  0.17920  Biso   1.000  C
  C24      1.0000 0.35230  0.94630  0.80100  Biso   1.000  C
  C25      1.0000 0.82490  0.82750  0.97940  Biso   1.000  C
  C26      1.0000 0.89670  0.83240  0.94620  Biso   1.000  C
  H21      1.0000 0.87810  0.81180  0.92530  Biso   1.000  H
  H22      1.0000 0.88410  0.85910  0.93350  Biso   1.000  H
  C27      1.0000 0.00510  0.82880  0.95970  Biso   1.000  C
  H23      1.0000 0.03160  0.80770  0.94320  Biso   1.000  H
  H24      1.0000 0.03650  0.85450  0.95320  Biso   1.000  H
  C28      1.0000 0.03990  0.82000  0.99960  Biso   1.000  C
  H25      1.0000 0.07530  0.84430  0.01120  Biso   1.000  H
  H26      1.0000 0.09100  0.79860  0.99960  Biso   1.000  H
  C29      1.0000 0.96710  0.80680  0.02880  Biso   1.000  C
  H27      1.0000 0.97000  0.77700  0.03080  Biso   1.000  H
  H28      1.0000 0.99230  0.81760  0.05550  Biso   1.000  H
  C30      1.0000 0.86050  0.81850  0.01930  Biso   1.000  C
  C31      1.0000 0.67420  0.82440  0.92850  Biso   1.000  C
  H29      1.0000 0.71770  0.82930  0.90900  Biso   1.000  H
  C32      1.0000 0.80750  0.78390  0.07470  Biso   1.000  C
  H30      1.0000 0.87690  0.77990  0.08330  Biso   1.000  H
  C33      1.0000 0.56680  0.82140  0.91410  Biso   1.000  C
  C34      1.0000 0.53250  0.82790  0.87270  Biso   1.000  C
  H31      1.0000 0.57990  0.83300  0.85480  Biso   1.000  H
  C35      1.0000 0.43000  0.82670  0.85800  Biso   1.000  C
  C36      1.0000 0.36090  0.81530  0.88500  Biso   1.000  C
  H32      1.0000 0.29220  0.81220  0.87460  Biso   1.000  H
  C37      1.0000 0.38980  0.80840  0.92590  Biso   1.000  C
  C38      1.0000 0.49230  0.81150  0.94180  Biso   1.000  C
  C39      1.0000 0.73460  0.77000  0.10160  Biso   1.000  C
  C40      1.0000 0.77480  0.75180  0.13840  Biso   1.000  C
  H33      1.0000 0.84530  0.75120  0.14600  Biso   1.000  H
  C41      1.0000 0.70840  0.73400  0.16440  Biso   1.000  C
  C42      1.0000 0.60530  0.73980  0.15540  Biso   1.000  C
  H34      1.0000 0.56310  0.72940  0.17350  Biso   1.000  H
  C43      1.0000 0.56030  0.76020  0.12120  Biso   1.000  C
  C44      1.0000 0.62910  0.77610  0.09460  Biso   1.000  C
  C45      1.0000 0.31330  0.79640  0.95410  Biso   1.000  C
  H35      1.0000 0.34810  0.79280  0.98130  Biso   1.000  H
  H36      1.0000 0.28070  0.77110  0.94490  Biso   1.000  H
  H37      1.0000 0.26270  0.81760  0.95410  Biso   1.000  H
  C46      1.0000 0.45210  0.76340  0.11290  Biso   1.000  C
  H38      1.0000 0.43400  0.77820  0.08790  Biso   1.000  H
  H39      1.0000 0.42640  0.77770  0.13480  Biso   1.000  H
  H40      1.0000 0.42270  0.73640  0.11040  Biso   1.000  H
  C47      1.0000 0.39020  0.83650  0.81660  Biso   1.000  C
  C48      1.0000 0.75270  0.71020  0.20150  Biso   1.000  C
  N1       1.0000 0.48350  0.06940  0.02850  Biso   1.000  N
  N2       1.0000 0.49510  0.05000  0.95270  Biso   1.000  N
  N3       1.0000 0.71540  0.82100  0.96510  Biso   1.000  N
  N4       1.0000 0.78220  0.80090  0.04070  Biso   1.000  N
  O1       1.0000 0.27750  0.05159  0.01710  Biso   1.000  O
  O2       1.0000 0.28560  0.04300  0.93500  Biso   1.000  O
  O3       1.0000 0.51850  0.80585  0.98110  Biso   1.000  O
  O4       1.0000 0.58750  0.79240  0.06120  Biso   1.000  O
  O5       1.0000 0.34960  0.10640  0.20270  Biso   1.000  O
  O6       1.0000 0.18120  0.09800  0.19260  Biso   1.000  O
  O7       1.0000 0.44390  0.94070  0.79470  Biso   1.000  O
  O8       1.0000 0.27830  0.92950  0.78200  Biso   1.000  O
  O9       1.0000 0.45010  0.84310  0.78900  Biso   1.000  O
  O10      1.0000 0.29780  0.84170  0.80710  Biso   1.000  O
  O11      1.0000 0.85150  0.71150  0.21050  Biso   1.000  O
  O12      1.0000 0.69350  0.69050  0.22040  Biso   1.000  O
  O13      1.0000 0.35980  0.12459  0.97160  Biso   1.000  O
  C49      1.0000 0.58900  0.05200  0.01830  Biso   1.000  C
  C50      1.0000 0.58600  0.04610  0.99060  Biso   1.000  C
  C51      1.0000 0.82600  0.80410  0.97530  Biso   1.000  C
  C52      1.0000 0.85800  0.79670  0.00680  Biso   1.000  C
  Fe3      1.0000 0.86732  0.57045  0.97906  Biso   1.000  Fe
  Fe4      1.0000 0.13745  0.32257  0.01721  Biso   1.000  Fe
  Cd2      1.0000 0.73674  0.36835  0.75002  Biso   1.000  Cd
  C53      1.0000 0.08840  0.57710  0.01500  Biso   1.000  C
  C54      1.0000 0.17640  0.58050  0.04550  Biso   1.000  C
  H41      1.0000 0.17370  0.55890  0.06560  Biso   1.000  H
  H42      1.0000 0.17430  0.60670  0.05930  Biso   1.000  H
  C55      1.0000 0.27760  0.57700  0.02710  Biso   1.000  C
  H43      1.0000 0.31710  0.60150  0.03500  Biso   1.000  H
  H44      1.0000 0.31510  0.55400  0.04040  Biso   1.000  H
  C56      1.0000 0.27730  0.57220  0.98650  Biso   1.000  C
  H45      1.0000 0.33220  0.55330  0.98280  Biso   1.000  H
  H46      1.0000 0.29590  0.59860  0.97580  Biso   1.000  H
  C57      1.0000 0.19030  0.55860  0.96140  Biso   1.000  C
  H47      1.0000 0.19800  0.52930  0.95720  Biso   1.000  H
  H48      1.0000 0.18950  0.57170  0.93500  Biso   1.000  H
  C58      1.0000 0.09060  0.56520  0.97490  Biso   1.000  C
  C59      1.0000 0.97170  0.57370  0.06600  Biso   1.000  C
  H49      1.0000 0.02950  0.57840  0.08480  Biso   1.000  H
  C60      1.0000 0.99400  0.53000  0.91860  Biso   1.000  C
  H50      1.0000 0.05660  0.52470  0.90950  Biso   1.000  H
  C61      1.0000 0.87260  0.57150  0.08100  Biso   1.000  C
  C62      1.0000 0.87110  0.58020  0.12230  Biso   1.000  C
  H51      1.0000 0.93190  0.58580  0.13910  Biso   1.000  H
  C63      1.0000 0.77690  0.58040  0.13860  Biso   1.000  C
  C64      1.0000 0.68840  0.56710  0.11330  Biso   1.000  C
  H52      1.0000 0.62720  0.56570  0.12450  Biso   1.000  H
  C65      1.0000 0.68750  0.55600  0.07330  Biso   1.000  C
  C66      1.0000 0.78270  0.56010  0.05500  Biso   1.000  C
  C67      1.0000 0.90480  0.51560  0.89450  Biso   1.000  C
  C68      1.0000 0.91960  0.49240  0.85880  Biso   1.000  C
  H53      1.0000 0.98460  0.49020  0.85080  Biso   1.000  H
  C69      1.0000 0.83820  0.47350  0.83650  Biso   1.000  C
  C70      1.0000 0.74020  0.48040  0.84560  Biso   1.000  C
  H54      1.0000 0.68530  0.46890  0.82890  Biso   1.000  H
  C71      1.0000 0.72070  0.50390  0.87870  Biso   1.000  C
  C72      1.0000 0.80460  0.52180  0.90260  Biso   1.000  C
  C73      1.0000 0.59230  0.54340  0.04650  Biso   1.000  C
  H55      1.0000 0.60890  0.53670  0.01980  Biso   1.000  H
  H56      1.0000 0.54390  0.56560  0.04440  Biso   1.000  H
  H57      1.0000 0.56320  0.51980  0.05800  Biso   1.000  H
  C74      1.0000 0.61480  0.50930  0.88880  Biso   1.000  C
  H58      1.0000 0.61610  0.52650  0.91250  Biso   1.000  H
  H59      1.0000 0.58680  0.48300  0.89440  Biso   1.000  H
  H60      1.0000 0.57300  0.52180  0.86620  Biso   1.000  H
  C75      1.0000 0.76750  0.59490  0.17920  Biso   1.000  C
  C76      1.0000 0.85230  0.44630  0.80100  Biso   1.000  C
  C77      1.0000 0.32490  0.32750  0.97940  Biso   1.000  C
  C78      1.0000 0.39670  0.33240  0.94620  Biso   1.000  C
  H61      1.0000 0.37810  0.31180  0.92530  Biso   1.000  H
  H62      1.0000 0.38410  0.35910  0.93350  Biso   1.000  H
  C79      1.0000 0.50510  0.32880  0.95970  Biso   1.000  C
  H63      1.0000 0.53160  0.30770  0.94320  Biso   1.000  H
  H64      1.0000 0.53650  0.35450  0.95320  Biso   1.000  H
  C80      1.0000 0.53990  0.32000  0.99960  Biso   1.000  C
  H65      1.0000 0.57530  0.34430  0.01120  Biso   1.000  H
  H66      1.0000 0.59100  0.29860  0.99960  Biso   1.000  H
  C81      1.0000 0.46710  0.30680  0.02880  Biso   1.000  C
  H67      1.0000 0.47000  0.27700  0.03080  Biso   1.000  H
  H68      1.0000 0.49230  0.31760  0.05550  Biso   1.000  H
  C82      1.0000 0.36050  0.31850  0.01930  Biso   1.000  C
  C83      1.0000 0.17420  0.32440  0.92850  Biso   1.000  C
  H69      1.0000 0.21770  0.32930  0.90900  Biso   1.000  H
  C84      1.0000 0.30750  0.28390  0.07470  Biso   1.000  C
  H70      1.0000 0.37690  0.27990  0.08330  Biso   1.000  H
  C85      1.0000 0.06680  0.32140  0.91410  Biso   1.000  C
  C86      1.0000 0.03250  0.32790  0.87270  Biso   1.000  C
  H71      1.0000 0.07990  0.33300  0.85480  Biso   1.000  H
  C87      1.0000 0.93000  0.32670  0.85800  Biso   1.000  C
  C88      1.0000 0.86090  0.31530  0.88500  Biso   1.000  C
  H72      1.0000 0.79220  0.31220  0.87460  Biso   1.000  H
  C89      1.0000 0.88980  0.30840  0.92590  Biso   1.000  C
  C90      1.0000 0.99230  0.31150  0.94180  Biso   1.000  C
  C91      1.0000 0.23460  0.27000  0.10160  Biso   1.000  C
  C92      1.0000 0.27480  0.25180  0.13840  Biso   1.000  C
  H73      1.0000 0.34530  0.25120  0.14600  Biso   1.000  H
  C93      1.0000 0.20840  0.23400  0.16440  Biso   1.000  C
  C94      1.0000 0.10530  0.23980  0.15540  Biso   1.000  C
  H74      1.0000 0.06310  0.22940  0.17350  Biso   1.000  H
  C95      1.0000 0.06030  0.26020  0.12120  Biso   1.000  C
  C96      1.0000 0.12910  0.27610  0.09460  Biso   1.000  C
  C97      1.0000 0.81330  0.29640  0.95410  Biso   1.000  C
  H75      1.0000 0.84810  0.29280  0.98130  Biso   1.000  H
  H76      1.0000 0.78070  0.27110  0.94490  Biso   1.000  H
  H77      1.0000 0.76270  0.31760  0.95410  Biso   1.000  H
  C98      1.0000 0.95210  0.26340  0.11290  Biso   1.000  C
  H78      1.0000 0.93400  0.27820  0.08790  Biso   1.000  H
  H79      1.0000 0.92640  0.27770  0.13480  Biso   1.000  H
  H80      1.0000 0.92270  0.23640  0.11040  Biso   1.000  H
  C99      1.0000 0.89020  0.33650  0.81660  Biso   1.000  C
  C100     1.0000 0.25270  0.21020  0.20150  Biso   1.000  C
  N5       1.0000 0.98350  0.56940  0.02850  Biso   1.000  N
  N6       1.0000 0.99510  0.55000  0.95270  Biso   1.000  N
  N7       1.0000 0.21540  0.32100  0.96510  Biso   1.000  N
  N8       1.0000 0.28220  0.30090  0.04070  Biso   1.000  N
  O14      1.0000 0.77750  0.55159  0.01710  Biso   1.000  O
  O15      1.0000 0.78560  0.54300  0.93500  Biso   1.000  O
  O16      1.0000 0.01850  0.30585  0.98110  Biso   1.000  O
  O17      1.0000 0.08750  0.29240  0.06120  Biso   1.000  O
  O18      1.0000 0.84960  0.60640  0.20270  Biso   1.000  O
  O19      1.0000 0.68120  0.59800  0.19260  Biso   1.000  O
  O20      1.0000 0.94390  0.44070  0.79470  Biso   1.000  O
  O21      1.0000 0.77830  0.42950  0.78200  Biso   1.000  O
  O22      1.0000 0.95010  0.34310  0.78900  Biso   1.000  O
  O23      1.0000 0.79780  0.34170  0.80710  Biso   1.000  O
  O24      1.0000 0.35150  0.21150  0.21050  Biso   1.000  O
  O25      1.0000 0.19350  0.19050  0.22040  Biso   1.000  O
  O26      1.0000 0.85980  0.62459  0.97160  Biso   1.000  O
  C101     1.0000 0.08900  0.55200  0.01830  Biso   1.000  C
  C102     1.0000 0.08600  0.54610  0.99060  Biso   1.000  C
  C103     1.0000 0.32600  0.30410  0.97530  Biso   1.000  C
  C104     1.0000 0.35800  0.29670  0.00680  Biso   1.000  C
  Fe5      1.0000 0.63268  0.07045  0.52094  Biso   1.000  Fe
  Fe6      1.0000 0.36255  0.82257  0.48279  Biso   1.000  Fe
  Cd3      1.0000 0.76326  0.86835  0.74998  Biso   1.000  Cd
  C105     1.0000 0.41160  0.07710  0.48500  Biso   1.000  C
  C106     1.0000 0.32360  0.08050  0.45450  Biso   1.000  C
  H81      1.0000 0.32630  0.05890  0.43440  Biso   1.000  H
  H82      1.0000 0.32570  0.10670  0.44070  Biso   1.000  H
  C107     1.0000 0.22240  0.07700  0.47290  Biso   1.000  C
  H83      1.0000 0.18290  0.10150  0.46500  Biso   1.000  H
  H84      1.0000 0.18490  0.05400  0.45960  Biso   1.000  H
  C108     1.0000 0.22270  0.07220  0.51350  Biso   1.000  C
  H85      1.0000 0.16780  0.05330  0.51720  Biso   1.000  H
  H86      1.0000 0.20410  0.09860  0.52420  Biso   1.000  H
  C109     1.0000 0.30970  0.05860  0.53860  Biso   1.000  C
  H87      1.0000 0.30200  0.02930  0.54280  Biso   1.000  H
  H88      1.0000 0.31050  0.07170  0.56500  Biso   1.000  H
  C110     1.0000 0.40940  0.06520  0.52510  Biso   1.000  C
  C111     1.0000 0.52830  0.07370  0.43400  Biso   1.000  C
  H89      1.0000 0.47050  0.07840  0.41520  Biso   1.000  H
  C112     1.0000 0.50600  0.03000  0.58140  Biso   1.000  C
  H90      1.0000 0.44340  0.02470  0.59050  Biso   1.000  H
  C113     1.0000 0.62740  0.07150  0.41900  Biso   1.000  C
  C114     1.0000 0.62890  0.08020  0.37770  Biso   1.000  C
  H91      1.0000 0.56810  0.08580  0.36090  Biso   1.000  H
  C115     1.0000 0.72310  0.08040  0.36140  Biso   1.000  C
  C116     1.0000 0.81160  0.06710  0.38670  Biso   1.000  C
  H92      1.0000 0.87280  0.06570  0.37550  Biso   1.000  H
  C117     1.0000 0.81250  0.05600  0.42670  Biso   1.000  C
  C118     1.0000 0.71730  0.06010  0.44500  Biso   1.000  C
  C119     1.0000 0.59520  0.01560  0.60550  Biso   1.000  C
  C120     1.0000 0.58040  0.99240  0.64120  Biso   1.000  C
  H93      1.0000 0.51540  0.99020  0.64920  Biso   1.000  H
  C121     1.0000 0.66180  0.97350  0.66350  Biso   1.000  C
  C122     1.0000 0.75980  0.98040  0.65440  Biso   1.000  C
  H94      1.0000 0.81470  0.96890  0.67110  Biso   1.000  H
  C123     1.0000 0.77930  0.00390  0.62130  Biso   1.000  C
  C124     1.0000 0.69540  0.02180  0.59740  Biso   1.000  C
  C125     1.0000 0.90770  0.04340  0.45350  Biso   1.000  C
  H95      1.0000 0.89110  0.03670  0.48020  Biso   1.000  H
  H96      1.0000 0.95610  0.06560  0.45560  Biso   1.000  H
  H97      1.0000 0.93680  0.01980  0.44200  Biso   1.000  H
  C126     1.0000 0.88520  0.00930  0.61120  Biso   1.000  C
  H98      1.0000 0.88390  0.02650  0.58750  Biso   1.000  H
  H99      1.0000 0.91320  0.98300  0.60560  Biso   1.000  H
  H100     1.0000 0.92700  0.02180  0.63380  Biso   1.000  H
  C127     1.0000 0.73250  0.09490  0.32080  Biso   1.000  C
  C128     1.0000 0.64770  0.94630  0.69900  Biso   1.000  C
  C129     1.0000 0.17510  0.82750  0.52060  Biso   1.000  C
  C130     1.0000 0.10330  0.83240  0.55380  Biso   1.000  C
  H101     1.0000 0.12190  0.81180  0.57470  Biso   1.000  H
  H102     1.0000 0.11590  0.85910  0.56650  Biso   1.000  H
  C131     1.0000 0.99490  0.82880  0.54030  Biso   1.000  C
  H103     1.0000 0.96840  0.80770  0.55680  Biso   1.000  H
  H104     1.0000 0.96350  0.85450  0.54680  Biso   1.000  H
  C132     1.0000 0.96010  0.82000  0.50040  Biso   1.000  C
  H105     1.0000 0.92470  0.84430  0.48880  Biso   1.000  H
  H106     1.0000 0.90900  0.79860  0.50040  Biso   1.000  H
  C133     1.0000 0.03290  0.80680  0.47120  Biso   1.000  C
  H107     1.0000 0.03000  0.77700  0.46920  Biso   1.000  H
  H108     1.0000 0.00770  0.81760  0.44450  Biso   1.000  H
  C134     1.0000 0.13950  0.81850  0.48070  Biso   1.000  C
  C135     1.0000 0.32580  0.82440  0.57150  Biso   1.000  C
  H109     1.0000 0.28230  0.82930  0.59100  Biso   1.000  H
  C136     1.0000 0.19250  0.78390  0.42530  Biso   1.000  C
  H110     1.0000 0.12310  0.77990  0.41670  Biso   1.000  H
  C137     1.0000 0.43320  0.82140  0.58590  Biso   1.000  C
  C138     1.0000 0.46750  0.82790  0.62730  Biso   1.000  C
  H111     1.0000 0.42010  0.83300  0.64520  Biso   1.000  H
  C139     1.0000 0.57000  0.82670  0.64200  Biso   1.000  C
  C140     1.0000 0.63910  0.81530  0.61500  Biso   1.000  C
  H112     1.0000 0.70780  0.81220  0.62540  Biso   1.000  H
  C141     1.0000 0.61020  0.80840  0.57410  Biso   1.000  C
  C142     1.0000 0.50770  0.81150  0.55820  Biso   1.000  C
  C143     1.0000 0.26540  0.77000  0.39840  Biso   1.000  C
  C144     1.0000 0.22520  0.75180  0.36160  Biso   1.000  C
  H113     1.0000 0.15470  0.75120  0.35400  Biso   1.000  H
  C145     1.0000 0.29160  0.73400  0.33560  Biso   1.000  C
  C146     1.0000 0.39470  0.73980  0.34460  Biso   1.000  C
  H114     1.0000 0.43690  0.72940  0.32650  Biso   1.000  H
  C147     1.0000 0.43970  0.76020  0.37880  Biso   1.000  C
  C148     1.0000 0.37090  0.77610  0.40540  Biso   1.000  C
  C149     1.0000 0.68670  0.79640  0.54590  Biso   1.000  C
  H115     1.0000 0.65190  0.79280  0.51870  Biso   1.000  H
  H116     1.0000 0.71930  0.77110  0.55510  Biso   1.000  H
  H117     1.0000 0.73730  0.81760  0.54590  Biso   1.000  H
  C150     1.0000 0.54790  0.76340  0.38710  Biso   1.000  C
  H118     1.0000 0.56600  0.77820  0.41210  Biso   1.000  H
  H119     1.0000 0.57360  0.77770  0.36520  Biso   1.000  H
  H120     1.0000 0.57730  0.73640  0.38960  Biso   1.000  H
  C151     1.0000 0.60980  0.83650  0.68340  Biso   1.000  C
  C152     1.0000 0.24730  0.71020  0.29850  Biso   1.000  C
  N9       1.0000 0.51650  0.06940  0.47150  Biso   1.000  N
  N10      1.0000 0.50490  0.05000  0.54730  Biso   1.000  N
  N11      1.0000 0.28460  0.82100  0.53490  Biso   1.000  N
  N12      1.0000 0.21780  0.80090  0.45930  Biso   1.000  N
  O27      1.0000 0.72250  0.05159  0.48290  Biso   1.000  O
  O28      1.0000 0.71440  0.04300  0.56500  Biso   1.000  O
  O29      1.0000 0.48150  0.80585  0.51890  Biso   1.000  O
  O30      1.0000 0.41250  0.79240  0.43880  Biso   1.000  O
  O31      1.0000 0.65040  0.10640  0.29730  Biso   1.000  O
  O32      1.0000 0.81880  0.09800  0.30740  Biso   1.000  O
  O33      1.0000 0.55610  0.94070  0.70530  Biso   1.000  O
  O34      1.0000 0.72170  0.92950  0.71800  Biso   1.000  O
  O35      1.0000 0.54990  0.84310  0.71100  Biso   1.000  O
  O36      1.0000 0.70220  0.84170  0.69290  Biso   1.000  O
  O37      1.0000 0.14850  0.71150  0.28950  Biso   1.000  O
  O38      1.0000 0.30650  0.69050  0.27960  Biso   1.000  O
  O39      1.0000 0.64020  0.12459  0.52840  Biso   1.000  O
  C153     1.0000 0.41100  0.05200  0.48170  Biso   1.000  C
  C154     1.0000 0.41400  0.04610  0.50940  Biso   1.000  C
  C155     1.0000 0.17400  0.80410  0.52470  Biso   1.000  C
  C156     1.0000 0.14200  0.79670  0.49320  Biso   1.000  C
  Fe7      1.0000 0.13268  0.57045  0.52094  Biso   1.000  Fe
  Fe8      1.0000 0.86255  0.32257  0.48279  Biso   1.000  Fe
  Cd4      1.0000 0.26326  0.36835  0.74998  Biso   1.000  Cd
  C157     1.0000 0.91160  0.57710  0.48500  Biso   1.000  C
  C158     1.0000 0.82360  0.58050  0.45450  Biso   1.000  C
  H121     1.0000 0.82630  0.55890  0.43440  Biso   1.000  H
  H122     1.0000 0.82570  0.60670  0.44070  Biso   1.000  H
  C159     1.0000 0.72240  0.57700  0.47290  Biso   1.000  C
  H123     1.0000 0.68290  0.60150  0.46500  Biso   1.000  H
  H124     1.0000 0.68490  0.55400  0.45960  Biso   1.000  H
  C160     1.0000 0.72270  0.57220  0.51350  Biso   1.000  C
  H125     1.0000 0.66780  0.55330  0.51720  Biso   1.000  H
  H126     1.0000 0.70410  0.59860  0.52420  Biso   1.000  H
  C161     1.0000 0.80970  0.55860  0.53860  Biso   1.000  C
  H127     1.0000 0.80200  0.52930  0.54280  Biso   1.000  H
  H128     1.0000 0.81050  0.57170  0.56500  Biso   1.000  H
  C162     1.0000 0.90940  0.56520  0.52510  Biso   1.000  C
  C163     1.0000 0.02830  0.57370  0.43400  Biso   1.000  C
  H129     1.0000 0.97050  0.57840  0.41520  Biso   1.000  H
  C164     1.0000 0.00600  0.53000  0.58140  Biso   1.000  C
  H130     1.0000 0.94340  0.52470  0.59050  Biso   1.000  H
  C165     1.0000 0.12740  0.57150  0.41900  Biso   1.000  C
  C166     1.0000 0.12890  0.58020  0.37770  Biso   1.000  C
  H131     1.0000 0.06810  0.58580  0.36090  Biso   1.000  H
  C167     1.0000 0.22310  0.58040  0.36140  Biso   1.000  C
  C168     1.0000 0.31160  0.56710  0.38670  Biso   1.000  C
  H132     1.0000 0.37280  0.56570  0.37550  Biso   1.000  H
  C169     1.0000 0.31250  0.55600  0.42670  Biso   1.000  C
  C170     1.0000 0.21730  0.56010  0.44500  Biso   1.000  C
  C171     1.0000 0.09520  0.51560  0.60550  Biso   1.000  C
  C172     1.0000 0.08040  0.49240  0.64120  Biso   1.000  C
  H133     1.0000 0.01540  0.49020  0.64920  Biso   1.000  H
  C173     1.0000 0.16180  0.47350  0.66350  Biso   1.000  C
  C174     1.0000 0.25980  0.48040  0.65440  Biso   1.000  C
  H134     1.0000 0.31470  0.46890  0.67110  Biso   1.000  H
  C175     1.0000 0.27930  0.50390  0.62130  Biso   1.000  C
  C176     1.0000 0.19540  0.52180  0.59740  Biso   1.000  C
  C177     1.0000 0.40770  0.54340  0.45350  Biso   1.000  C
  H135     1.0000 0.39110  0.53670  0.48020  Biso   1.000  H
  H136     1.0000 0.45610  0.56560  0.45560  Biso   1.000  H
  H137     1.0000 0.43680  0.51980  0.44200  Biso   1.000  H
  C178     1.0000 0.38520  0.50930  0.61120  Biso   1.000  C
  H138     1.0000 0.38390  0.52650  0.58750  Biso   1.000  H
  H139     1.0000 0.41320  0.48300  0.60560  Biso   1.000  H
  H140     1.0000 0.42700  0.52180  0.63380  Biso   1.000  H
  C179     1.0000 0.23250  0.59490  0.32080  Biso   1.000  C
  C180     1.0000 0.14770  0.44630  0.69900  Biso   1.000  C
  C181     1.0000 0.67510  0.32750  0.52060  Biso   1.000  C
  C182     1.0000 0.60330  0.33240  0.55380  Biso   1.000  C
  H141     1.0000 0.62190  0.31180  0.57470  Biso   1.000  H
  H142     1.0000 0.61590  0.35910  0.56650  Biso   1.000  H
  C183     1.0000 0.49490  0.32880  0.54030  Biso   1.000  C
  H143     1.0000 0.46840  0.30770  0.55680  Biso   1.000  H
  H144     1.0000 0.46350  0.35450  0.54680  Biso   1.000  H
  C184     1.0000 0.46010  0.32000  0.50040  Biso   1.000  C
  H145     1.0000 0.42470  0.34430  0.48880  Biso   1.000  H
  H146     1.0000 0.40900  0.29860  0.50040  Biso   1.000  H
  C185     1.0000 0.53290  0.30680  0.47120  Biso   1.000  C
  H147     1.0000 0.53000  0.27700  0.46920  Biso   1.000  H
  H148     1.0000 0.50770  0.31760  0.44450  Biso   1.000  H
  C186     1.0000 0.63950  0.31850  0.48070  Biso   1.000  C
  C187     1.0000 0.82580  0.32440  0.57150  Biso   1.000  C
  H149     1.0000 0.78230  0.32930  0.59100  Biso   1.000  H
  C188     1.0000 0.69250  0.28390  0.42530  Biso   1.000  C
  H150     1.0000 0.62310  0.27990  0.41670  Biso   1.000  H
  C189     1.0000 0.93320  0.32140  0.58590  Biso   1.000  C
  C190     1.0000 0.96750  0.32790  0.62730  Biso   1.000  C
  H151     1.0000 0.92010  0.33300  0.64520  Biso   1.000  H
  C191     1.0000 0.07000  0.32670  0.64200  Biso   1.000  C
  C192     1.0000 0.13910  0.31530  0.61500  Biso   1.000  C
  H152     1.0000 0.20780  0.31220  0.62540  Biso   1.000  H
  C193     1.0000 0.11020  0.30840  0.57410  Biso   1.000  C
  C194     1.0000 0.00770  0.31150  0.55820  Biso   1.000  C
  C195     1.0000 0.76540  0.27000  0.39840  Biso   1.000  C
  C196     1.0000 0.72520  0.25180  0.36160  Biso   1.000  C
  H153     1.0000 0.65470  0.25120  0.35400  Biso   1.000  H
  C197     1.0000 0.79160  0.23400  0.33560  Biso   1.000  C
  C198     1.0000 0.89470  0.23980  0.34460  Biso   1.000  C
  H154     1.0000 0.93690  0.22940  0.32650  Biso   1.000  H
  C199     1.0000 0.93970  0.26020  0.37880  Biso   1.000  C
  C200     1.0000 0.87090  0.27610  0.40540  Biso   1.000  C
  C201     1.0000 0.18670  0.29640  0.54590  Biso   1.000  C
  H155     1.0000 0.15190  0.29280  0.51870  Biso   1.000  H
  H156     1.0000 0.21930  0.27110  0.55510  Biso   1.000  H
  H157     1.0000 0.23730  0.31760  0.54590  Biso   1.000  H
  C202     1.0000 0.04790  0.26340  0.38710  Biso   1.000  C
  H158     1.0000 0.06600  0.27820  0.41210  Biso   1.000  H
  H159     1.0000 0.07360  0.27770  0.36520  Biso   1.000  H
  H160     1.0000 0.07730  0.23640  0.38960  Biso   1.000  H
  C203     1.0000 0.10980  0.33650  0.68340  Biso   1.000  C
  C204     1.0000 0.74730  0.21020  0.29850  Biso   1.000  C
  N13      1.0000 0.01650  0.56940  0.47150  Biso   1.000  N
  N14      1.0000 0.00490  0.55000  0.54730  Biso   1.000  N
  N15      1.0000 0.78460  0.32100  0.53490  Biso   1.000  N
  N16      1.0000 0.71780  0.30090  0.45930  Biso   1.000  N
  O40      1.0000 0.22250  0.55159  0.48290  Biso   1.000  O
  O41      1.0000 0.21440  0.54300  0.56500  Biso   1.000  O
  O42      1.0000 0.98150  0.30585  0.51890  Biso   1.000  O
  O43      1.0000 0.91250  0.29240  0.43880  Biso   1.000  O
  O44      1.0000 0.15040  0.60640  0.29730  Biso   1.000  O
  O45      1.0000 0.31880  0.59800  0.30740  Biso   1.000  O
  O46      1.0000 0.05610  0.44070  0.70530  Biso   1.000  O
  O47      1.0000 0.22170  0.42950  0.71800  Biso   1.000  O
  O48      1.0000 0.04990  0.34310  0.71100  Biso   1.000  O
  O49      1.0000 0.20220  0.34170  0.69290  Biso   1.000  O
  O50      1.0000 0.64850  0.21150  0.28950  Biso   1.000  O
  O51      1.0000 0.80650  0.19050  0.27960  Biso   1.000  O
  O52      1.0000 0.14020  0.62459  0.52840  Biso   1.000  O
  C205     1.0000 0.91100  0.55200  0.48170  Biso   1.000  C
  C206     1.0000 0.91400  0.54610  0.50940  Biso   1.000  C
  C207     1.0000 0.67400  0.30410  0.52470  Biso   1.000  C
  C208     1.0000 0.64200  0.29670  0.49320  Biso   1.000  C
  Fe9      1.0000 0.63268  0.92955  0.02094  Biso   1.000  Fe
  Fe10     1.0000 0.36255  0.17743  0.98279  Biso   1.000  Fe
  Cd5      1.0000 0.76326  0.13165  0.24998  Biso   1.000  Cd
  C209     1.0000 0.41160  0.92290  0.98500  Biso   1.000  C
  C210     1.0000 0.32360  0.91950  0.95450  Biso   1.000  C
  H161     1.0000 0.32630  0.94110  0.93440  Biso   1.000  H
  H162     1.0000 0.32570  0.89330  0.94070  Biso   1.000  H
  C211     1.0000 0.22240  0.92300  0.97290  Biso   1.000  C
  H163     1.0000 0.18290  0.89850  0.96500  Biso   1.000  H
  H164     1.0000 0.18490  0.94600  0.95960  Biso   1.000  H
  C212     1.0000 0.22270  0.92780  0.01350  Biso   1.000  C
  H165     1.0000 0.16780  0.94670  0.01720  Biso   1.000  H
  H166     1.0000 0.20410  0.90140  0.02420  Biso   1.000  H
  C213     1.0000 0.30970  0.94140  0.03860  Biso   1.000  C
  H167     1.0000 0.30200  0.97070  0.04280  Biso   1.000  H
  H168     1.0000 0.31050  0.92830  0.06500  Biso   1.000  H
  C214     1.0000 0.40940  0.93480  0.02510  Biso   1.000  C
  C215     1.0000 0.52830  0.92630  0.93400  Biso   1.000  C
  H169     1.0000 0.47050  0.92160  0.91520  Biso   1.000  H
  C216     1.0000 0.50600  0.97000  0.08140  Biso   1.000  C
  H170     1.0000 0.44340  0.97530  0.09050  Biso   1.000  H
  C217     1.0000 0.62740  0.92850  0.91900  Biso   1.000  C
  C218     1.0000 0.62890  0.91980  0.87770  Biso   1.000  C
  H171     1.0000 0.56810  0.91420  0.86090  Biso   1.000  H
  C219     1.0000 0.72310  0.91960  0.86140  Biso   1.000  C
  C220     1.0000 0.81160  0.93290  0.88670  Biso   1.000  C
  H172     1.0000 0.87280  0.93430  0.87550  Biso   1.000  H
  C221     1.0000 0.81250  0.94400  0.92670  Biso   1.000  C
  C222     1.0000 0.71730  0.93990  0.94500  Biso   1.000  C
  C223     1.0000 0.59520  0.98440  0.10550  Biso   1.000  C
  C224     1.0000 0.58040  0.00760  0.14120  Biso   1.000  C
  H173     1.0000 0.51540  0.00980  0.14920  Biso   1.000  H
  C225     1.0000 0.66180  0.02650  0.16350  Biso   1.000  C
  C226     1.0000 0.75980  0.01960  0.15440  Biso   1.000  C
  H174     1.0000 0.81470  0.03110  0.17110  Biso   1.000  H
  C227     1.0000 0.77930  0.99610  0.12130  Biso   1.000  C
  C228     1.0000 0.69540  0.97820  0.09740  Biso   1.000  C
  C229     1.0000 0.90770  0.95660  0.95350  Biso   1.000  C
  H175     1.0000 0.89110  0.96330  0.98020  Biso   1.000  H
  H176     1.0000 0.95610  0.93440  0.95560  Biso   1.000  H
  H177     1.0000 0.93680  0.98020  0.94200  Biso   1.000  H
  C230     1.0000 0.88520  0.99070  0.11120  Biso   1.000  C
  H178     1.0000 0.88390  0.97350  0.08750  Biso   1.000  H
  H179     1.0000 0.91320  0.01700  0.10560  Biso   1.000  H
  H180     1.0000 0.92700  0.97820  0.13380  Biso   1.000  H
  C231     1.0000 0.73250  0.90510  0.82080  Biso   1.000  C
  C232     1.0000 0.64770  0.05370  0.19900  Biso   1.000  C
  C233     1.0000 0.17510  0.17250  0.02060  Biso   1.000  C
  C234     1.0000 0.10330  0.16760  0.05380  Biso   1.000  C
  H181     1.0000 0.12190  0.18820  0.07470  Biso   1.000  H
  H182     1.0000 0.11590  0.14090  0.06650  Biso   1.000  H
  C235     1.0000 0.99490  0.17120  0.04030  Biso   1.000  C
  H183     1.0000 0.96840  0.19230  0.05680  Biso   1.000  H
  H184     1.0000 0.96350  0.14550  0.04680  Biso   1.000  H
  C236     1.0000 0.96010  0.18000  0.00040  Biso   1.000  C
  H185     1.0000 0.92470  0.15570  0.98880  Biso   1.000  H
  H186     1.0000 0.90900  0.20140  0.00040  Biso   1.000  H
  C237     1.0000 0.03290  0.19320  0.97120  Biso   1.000  C
  H187     1.0000 0.03000  0.22300  0.96920  Biso   1.000  H
  H188     1.0000 0.00770  0.18240  0.94450  Biso   1.000  H
  C238     1.0000 0.13950  0.18150  0.98070  Biso   1.000  C
  C239     1.0000 0.32580  0.17560  0.07150  Biso   1.000  C
  H189     1.0000 0.28230  0.17070  0.09100  Biso   1.000  H
  C240     1.0000 0.19250  0.21610  0.92530  Biso   1.000  C
  H190     1.0000 0.12310  0.22010  0.91670  Biso   1.000  H
  C241     1.0000 0.43320  0.17860  0.08590  Biso   1.000  C
  C242     1.0000 0.46750  0.17210  0.12730  Biso   1.000  C
  H191     1.0000 0.42010  0.16700  0.14520  Biso   1.000  H
  C243     1.0000 0.57000  0.17330  0.14200  Biso   1.000  C
  C244     1.0000 0.63910  0.18470  0.11500  Biso   1.000  C
  H192     1.0000 0.70780  0.18780  0.12540  Biso   1.000  H
  C245     1.0000 0.61020  0.19160  0.07410  Biso   1.000  C
  C246     1.0000 0.50770  0.18850  0.05820  Biso   1.000  C
  C247     1.0000 0.26540  0.23000  0.89840  Biso   1.000  C
  C248     1.0000 0.22520  0.24820  0.86160  Biso   1.000  C
  H193     1.0000 0.15470  0.24880  0.85400  Biso   1.000  H
  C249     1.0000 0.29160  0.26600  0.83560  Biso   1.000  C
  C250     1.0000 0.39470  0.26020  0.84460  Biso   1.000  C
  H194     1.0000 0.43690  0.27060  0.82650  Biso   1.000  H
  C251     1.0000 0.43970  0.23980  0.87880  Biso   1.000  C
  C252     1.0000 0.37090  0.22390  0.90540  Biso   1.000  C
  C253     1.0000 0.68670  0.20360  0.04590  Biso   1.000  C
  H195     1.0000 0.65190  0.20720  0.01870  Biso   1.000  H
  H196     1.0000 0.71930  0.22890  0.05510  Biso   1.000  H
  H197     1.0000 0.73730  0.18240  0.04590  Biso   1.000  H
  C254     1.0000 0.54790  0.23660  0.88710  Biso   1.000  C
  H198     1.0000 0.56600  0.22180  0.91210  Biso   1.000  H
  H199     1.0000 0.57360  0.22230  0.86520  Biso   1.000  H
  H200     1.0000 0.57730  0.26360  0.88960  Biso   1.000  H
  C255     1.0000 0.60980  0.16350  0.18340  Biso   1.000  C
  C256     1.0000 0.24730  0.28980  0.79850  Biso   1.000  C
  N17      1.0000 0.51650  0.93060  0.97150  Biso   1.000  N
  N18      1.0000 0.50490  0.95000  0.04730  Biso   1.000  N
  N19      1.0000 0.28460  0.17900  0.03490  Biso   1.000  N
  N20      1.0000 0.21780  0.19910  0.95930  Biso   1.000  N
  O53      1.0000 0.72250  0.94841  0.98290  Biso   1.000  O
  O54      1.0000 0.71440  0.95700  0.06500  Biso   1.000  O
  O55      1.0000 0.48150  0.19415  0.01890  Biso   1.000  O
  O56      1.0000 0.41250  0.20760  0.93880  Biso   1.000  O
  O57      1.0000 0.65040  0.89360  0.79730  Biso   1.000  O
  O58      1.0000 0.81880  0.90200  0.80740  Biso   1.000  O
  O59      1.0000 0.55610  0.05930  0.20530  Biso   1.000  O
  O60      1.0000 0.72170  0.07050  0.21800  Biso   1.000  O
  O61      1.0000 0.54990  0.15690  0.21100  Biso   1.000  O
  O62      1.0000 0.70220  0.15830  0.19290  Biso   1.000  O
  O63      1.0000 0.14850  0.28850  0.78950  Biso   1.000  O
  O64      1.0000 0.30650  0.30950  0.77960  Biso   1.000  O
  O65      1.0000 0.64020  0.87541  0.02840  Biso   1.000  O
  C257     1.0000 0.41100  0.94800  0.98170  Biso   1.000  C
  C258     1.0000 0.41400  0.95390  0.00940  Biso   1.000  C
  C259     1.0000 0.17400  0.19590  0.02470  Biso   1.000  C
  C260     1.0000 0.14200  0.20330  0.99320  Biso   1.000  C
  Fe11     1.0000 0.13268  0.42955  0.02094  Biso   1.000  Fe
  Fe12     1.0000 0.86255  0.67743  0.98279  Biso   1.000  Fe
  Cd6      1.0000 0.26326  0.63165  0.24998  Biso   1.000  Cd
  C261     1.0000 0.91160  0.42290  0.98500  Biso   1.000  C
  C262     1.0000 0.82360  0.41950  0.95450  Biso   1.000  C
  H201     1.0000 0.82630  0.44110  0.93440  Biso   1.000  H
  H202     1.0000 0.82570  0.39330  0.94070  Biso   1.000  H
  C263     1.0000 0.72240  0.42300  0.97290  Biso   1.000  C
  H203     1.0000 0.68290  0.39850  0.96500  Biso   1.000  H
  H204     1.0000 0.68490  0.44600  0.95960  Biso   1.000  H
  C264     1.0000 0.72270  0.42780  0.01350  Biso   1.000  C
  H205     1.0000 0.66780  0.44670  0.01720  Biso   1.000  H
  H206     1.0000 0.70410  0.40140  0.02420  Biso   1.000  H
  C265     1.0000 0.80970  0.44140  0.03860  Biso   1.000  C
  H207     1.0000 0.80200  0.47070  0.04280  Biso   1.000  H
  H208     1.0000 0.81050  0.42830  0.06500  Biso   1.000  H
  C266     1.0000 0.90940  0.43480  0.02510  Biso   1.000  C
  C267     1.0000 0.02830  0.42630  0.93400  Biso   1.000  C
  H209     1.0000 0.97050  0.42160  0.91520  Biso   1.000  H
  C268     1.0000 0.00600  0.47000  0.08140  Biso   1.000  C
  H210     1.0000 0.94340  0.47530  0.09050  Biso   1.000  H
  C269     1.0000 0.12740  0.42850  0.91900  Biso   1.000  C
  C270     1.0000 0.12890  0.41980  0.87770  Biso   1.000  C
  H211     1.0000 0.06810  0.41420  0.86090  Biso   1.000  H
  C271     1.0000 0.22310  0.41960  0.86140  Biso   1.000  C
  C272     1.0000 0.31160  0.43290  0.88670  Biso   1.000  C
  H212     1.0000 0.37280  0.43430  0.87550  Biso   1.000  H
  C273     1.0000 0.31250  0.44400  0.92670  Biso   1.000  C
  C274     1.0000 0.21730  0.43990  0.94500  Biso   1.000  C
  C275     1.0000 0.09520  0.48440  0.10550  Biso   1.000  C
  C276     1.0000 0.08040  0.50760  0.14120  Biso   1.000  C
  H213     1.0000 0.01540  0.50980  0.14920  Biso   1.000  H
  C277     1.0000 0.16180  0.52650  0.16350  Biso   1.000  C
  C278     1.0000 0.25980  0.51960  0.15440  Biso   1.000  C
  H214     1.0000 0.31470  0.53110  0.17110  Biso   1.000  H
  C279     1.0000 0.27930  0.49610  0.12130  Biso   1.000  C
  C280     1.0000 0.19540  0.47820  0.09740  Biso   1.000  C
  C281     1.0000 0.40770  0.45660  0.95350  Biso   1.000  C
  H215     1.0000 0.39110  0.46330  0.98020  Biso   1.000  H
  H216     1.0000 0.45610  0.43440  0.95560  Biso   1.000  H
  H217     1.0000 0.43680  0.48020  0.94200  Biso   1.000  H
  C282     1.0000 0.38520  0.49070  0.11120  Biso   1.000  C
  H218     1.0000 0.38390  0.47350  0.08750  Biso   1.000  H
  H219     1.0000 0.41320  0.51700  0.10560  Biso   1.000  H
  H220     1.0000 0.42700  0.47820  0.13380  Biso   1.000  H
  C283     1.0000 0.23250  0.40510  0.82080  Biso   1.000  C
  C284     1.0000 0.14770  0.55370  0.19900  Biso   1.000  C
  C285     1.0000 0.67510  0.67250  0.02060  Biso   1.000  C
  C286     1.0000 0.60330  0.66760  0.05380  Biso   1.000  C
  H221     1.0000 0.62190  0.68820  0.07470  Biso   1.000  H
  H222     1.0000 0.61590  0.64090  0.06650  Biso   1.000  H
  C287     1.0000 0.49490  0.67120  0.04030  Biso   1.000  C
  H223     1.0000 0.46840  0.69230  0.05680  Biso   1.000  H
  H224     1.0000 0.46350  0.64550  0.04680  Biso   1.000  H
  C288     1.0000 0.46010  0.68000  0.00040  Biso   1.000  C
  H225     1.0000 0.42470  0.65570  0.98880  Biso   1.000  H
  H226     1.0000 0.40900  0.70140  0.00040  Biso   1.000  H
  C289     1.0000 0.53290  0.69320  0.97120  Biso   1.000  C
  H227     1.0000 0.53000  0.72300  0.96920  Biso   1.000  H
  H228     1.0000 0.50770  0.68240  0.94450  Biso   1.000  H
  C290     1.0000 0.63950  0.68150  0.98070  Biso   1.000  C
  C291     1.0000 0.82580  0.67560  0.07150  Biso   1.000  C
  H229     1.0000 0.78230  0.67070  0.09100  Biso   1.000  H
  C292     1.0000 0.69250  0.71610  0.92530  Biso   1.000  C
  H230     1.0000 0.62310  0.72010  0.91670  Biso   1.000  H
  C293     1.0000 0.93320  0.67860  0.08590  Biso   1.000  C
  C294     1.0000 0.96750  0.67210  0.12730  Biso   1.000  C
  H231     1.0000 0.92010  0.66700  0.14520  Biso   1.000  H
  C295     1.0000 0.07000  0.67330  0.14200  Biso   1.000  C
  C296     1.0000 0.13910  0.68470  0.11500  Biso   1.000  C
  H232     1.0000 0.20780  0.68780  0.12540  Biso   1.000  H
  C297     1.0000 0.11020  0.69160  0.07410  Biso   1.000  C
  C298     1.0000 0.00770  0.68850  0.05820  Biso   1.000  C
  C299     1.0000 0.76540  0.73000  0.89840  Biso   1.000  C
  C300     1.0000 0.72520  0.74820  0.86160  Biso   1.000  C
  H233     1.0000 0.65470  0.74880  0.85400  Biso   1.000  H
  C301     1.0000 0.79160  0.76600  0.83560  Biso   1.000  C
  C302     1.0000 0.89470  0.76020  0.84460  Biso   1.000  C
  H234     1.0000 0.93690  0.77060  0.82650  Biso   1.000  H
  C303     1.0000 0.93970  0.73980  0.87880  Biso   1.000  C
  C304     1.0000 0.87090  0.72390  0.90540  Biso   1.000  C
  C305     1.0000 0.18670  0.70360  0.04590  Biso   1.000  C
  H235     1.0000 0.15190  0.70720  0.01870  Biso   1.000  H
  H236     1.0000 0.21930  0.72890  0.05510  Biso   1.000  H
  H237     1.0000 0.23730  0.68240  0.04590  Biso   1.000  H
  C306     1.0000 0.04790  0.73660  0.88710  Biso   1.000  C
  H238     1.0000 0.06600  0.72180  0.91210  Biso   1.000  H
  H239     1.0000 0.07360  0.72230  0.86520  Biso   1.000  H
  H240     1.0000 0.07730  0.76360  0.88960  Biso   1.000  H
  C307     1.0000 0.10980  0.66350  0.18340  Biso   1.000  C
  C308     1.0000 0.74730  0.78980  0.79850  Biso   1.000  C
  N21      1.0000 0.01650  0.43060  0.97150  Biso   1.000  N
  N22      1.0000 0.00490  0.45000  0.04730  Biso   1.000  N
  N23      1.0000 0.78460  0.67900  0.03490  Biso   1.000  N
  N24      1.0000 0.71780  0.69910  0.95930  Biso   1.000  N
  O66      1.0000 0.22250  0.44841  0.98290  Biso   1.000  O
  O67      1.0000 0.21440  0.45700  0.06500  Biso   1.000  O
  O68      1.0000 0.98150  0.69415  0.01890  Biso   1.000  O
  O69      1.0000 0.91250  0.70760  0.93880  Biso   1.000  O
  O70      1.0000 0.15040  0.39360  0.79730  Biso   1.000  O
  O71      1.0000 0.31880  0.40200  0.80740  Biso   1.000  O
  O72      1.0000 0.05610  0.55930  0.20530  Biso   1.000  O
  O73      1.0000 0.22170  0.57050  0.21800  Biso   1.000  O
  O74      1.0000 0.04990  0.65690  0.21100  Biso   1.000  O
  O75      1.0000 0.20220  0.65830  0.19290  Biso   1.000  O
  O76      1.0000 0.64850  0.78850  0.78950  Biso   1.000  O
  O77      1.0000 0.80650  0.80950  0.77960  Biso   1.000  O
  O78      1.0000 0.14020  0.37541  0.02840  Biso   1.000  O
  C309     1.0000 0.91100  0.44800  0.98170  Biso   1.000  C
  C310     1.0000 0.91400  0.45390  0.00940  Biso   1.000  C
  C311     1.0000 0.67400  0.69590  0.02470  Biso   1.000  C
  C312     1.0000 0.64200  0.70330  0.99320  Biso   1.000  C
  Fe13     1.0000 0.36732  0.92955  0.47906  Biso   1.000  Fe
  Fe14     1.0000 0.63745  0.17743  0.51721  Biso   1.000  Fe
  Cd7      1.0000 0.23674  0.13165  0.25002  Biso   1.000  Cd
  C313     1.0000 0.58840  0.92290  0.51500  Biso   1.000  C
  C314     1.0000 0.67640  0.91950  0.54550  Biso   1.000  C
  H241     1.0000 0.67370  0.94110  0.56560  Biso   1.000  H
  H242     1.0000 0.67430  0.89330  0.55930  Biso   1.000  H
  C315     1.0000 0.77760  0.92300  0.52710  Biso   1.000  C
  H243     1.0000 0.81710  0.89850  0.53500  Biso   1.000  H
  H244     1.0000 0.81510  0.94600  0.54040  Biso   1.000  H
  C316     1.0000 0.77730  0.92780  0.48650  Biso   1.000  C
  H245     1.0000 0.83220  0.94670  0.48280  Biso   1.000  H
  H246     1.0000 0.79590  0.90140  0.47580  Biso   1.000  H
  C317     1.0000 0.69030  0.94140  0.46140  Biso   1.000  C
  H247     1.0000 0.69800  0.97070  0.45720  Biso   1.000  H
  H248     1.0000 0.68950  0.92830  0.43500  Biso   1.000  H
  C318     1.0000 0.59060  0.93480  0.47490  Biso   1.000  C
  C319     1.0000 0.47170  0.92630  0.56600  Biso   1.000  C
  H249     1.0000 0.52950  0.92160  0.58480  Biso   1.000  H
  C320     1.0000 0.49400  0.97000  0.41860  Biso   1.000  C
  H250     1.0000 0.55660  0.97530  0.40950  Biso   1.000  H
  C321     1.0000 0.37260  0.92850  0.58100  Biso   1.000  C
  C322     1.0000 0.37110  0.91980  0.62230  Biso   1.000  C
  H251     1.0000 0.43190  0.91420  0.63910  Biso   1.000  H
  C323     1.0000 0.27690  0.91960  0.63860  Biso   1.000  C
  C324     1.0000 0.18840  0.93290  0.61330  Biso   1.000  C
  H252     1.0000 0.12720  0.93430  0.62450  Biso   1.000  H
  C325     1.0000 0.18750  0.94400  0.57330  Biso   1.000  C
  C326     1.0000 0.28270  0.93990  0.55500  Biso   1.000  C
  C327     1.0000 0.40480  0.98440  0.39450  Biso   1.000  C
  C328     1.0000 0.41960  0.00760  0.35880  Biso   1.000  C
  H253     1.0000 0.48460  0.00980  0.35080  Biso   1.000  H
  C329     1.0000 0.33820  0.02650  0.33650  Biso   1.000  C
  C330     1.0000 0.24020  0.01960  0.34560  Biso   1.000  C
  H254     1.0000 0.18530  0.03110  0.32890  Biso   1.000  H
  C331     1.0000 0.22070  0.99610  0.37870  Biso   1.000  C
  C332     1.0000 0.30460  0.97820  0.40260  Biso   1.000  C
  C333     1.0000 0.09230  0.95660  0.54650  Biso   1.000  C
  H255     1.0000 0.10890  0.96330  0.51980  Biso   1.000  H
  H256     1.0000 0.04390  0.93440  0.54440  Biso   1.000  H
  H257     1.0000 0.06320  0.98020  0.55800  Biso   1.000  H
  C334     1.0000 0.11480  0.99070  0.38880  Biso   1.000  C
  H258     1.0000 0.11610  0.97350  0.41250  Biso   1.000  H
  H259     1.0000 0.08680  0.01700  0.39440  Biso   1.000  H
  H260     1.0000 0.07300  0.97820  0.36620  Biso   1.000  H
  C335     1.0000 0.26750  0.90510  0.67920  Biso   1.000  C
  C336     1.0000 0.35230  0.05370  0.30100  Biso   1.000  C
  C337     1.0000 0.82490  0.17250  0.47940  Biso   1.000  C
  C338     1.0000 0.89670  0.16760  0.44620  Biso   1.000  C
  H261     1.0000 0.87810  0.18820  0.42530  Biso   1.000  H
  H262     1.0000 0.88410  0.14090  0.43350  Biso   1.000  H
  C339     1.0000 0.00510  0.17120  0.45970  Biso   1.000  C
  H263     1.0000 0.03160  0.19230  0.44320  Biso   1.000  H
  H264     1.0000 0.03650  0.14550  0.45320  Biso   1.000  H
  C340     1.0000 0.03990  0.18000  0.49960  Biso   1.000  C
  H265     1.0000 0.07530  0.15570  0.51120  Biso   1.000  H
  H266     1.0000 0.09100  0.20140  0.49960  Biso   1.000  H
  C341     1.0000 0.96710  0.19320  0.52880  Biso   1.000  C
  H267     1.0000 0.97000  0.22300  0.53080  Biso   1.000  H
  H268     1.0000 0.99230  0.18240  0.55550  Biso   1.000  H
  C342     1.0000 0.86050  0.18150  0.51930  Biso   1.000  C
  C343     1.0000 0.67420  0.17560  0.42850  Biso   1.000  C
  H269     1.0000 0.71770  0.17070  0.40900  Biso   1.000  H
  C344     1.0000 0.80750  0.21610  0.57470  Biso   1.000  C
  H270     1.0000 0.87690  0.22010  0.58330  Biso   1.000  H
  C345     1.0000 0.56680  0.17860  0.41410  Biso   1.000  C
  C346     1.0000 0.53250  0.17210  0.37270  Biso   1.000  C
  H271     1.0000 0.57990  0.16700  0.35480  Biso   1.000  H
  C347     1.0000 0.43000  0.17330  0.35800  Biso   1.000  C
  C348     1.0000 0.36090  0.18470  0.38500  Biso   1.000  C
  H272     1.0000 0.29220  0.18780  0.37460  Biso   1.000  H
  C349     1.0000 0.38980  0.19160  0.42590  Biso   1.000  C
  C350     1.0000 0.49230  0.18850  0.44180  Biso   1.000  C
  C351     1.0000 0.73460  0.23000  0.60160  Biso   1.000  C
  C352     1.0000 0.77480  0.24820  0.63840  Biso   1.000  C
  H273     1.0000 0.84530  0.24880  0.64600  Biso   1.000  H
  C353     1.0000 0.70840  0.26600  0.66440  Biso   1.000  C
  C354     1.0000 0.60530  0.26020  0.65540  Biso   1.000  C
  H274     1.0000 0.56310  0.27060  0.67350  Biso   1.000  H
  C355     1.0000 0.56030  0.23980  0.62120  Biso   1.000  C
  C356     1.0000 0.62910  0.22390  0.59460  Biso   1.000  C
  C357     1.0000 0.31330  0.20360  0.45410  Biso   1.000  C
  H275     1.0000 0.34810  0.20720  0.48130  Biso   1.000  H
  H276     1.0000 0.28070  0.22890  0.44490  Biso   1.000  H
  H277     1.0000 0.26270  0.18240  0.45410  Biso   1.000  H
  C358     1.0000 0.45210  0.23660  0.61290  Biso   1.000  C
  H278     1.0000 0.43400  0.22180  0.58790  Biso   1.000  H
  H279     1.0000 0.42640  0.22230  0.63480  Biso   1.000  H
  H280     1.0000 0.42270  0.26360  0.61040  Biso   1.000  H
  C359     1.0000 0.39020  0.16350  0.31660  Biso   1.000  C
  C360     1.0000 0.75270  0.28980  0.70150  Biso   1.000  C
  N25      1.0000 0.48350  0.93060  0.52850  Biso   1.000  N
  N26      1.0000 0.49510  0.95000  0.45270  Biso   1.000  N
  N27      1.0000 0.71540  0.17900  0.46510  Biso   1.000  N
  N28      1.0000 0.78220  0.19910  0.54070  Biso   1.000  N
  O79      1.0000 0.27750  0.94841  0.51710  Biso   1.000  O
  O80      1.0000 0.28560  0.95700  0.43500  Biso   1.000  O
  O81      1.0000 0.51850  0.19415  0.48110  Biso   1.000  O
  O82      1.0000 0.58750  0.20760  0.56120  Biso   1.000  O
  O83      1.0000 0.34960  0.89360  0.70270  Biso   1.000  O
  O84      1.0000 0.18120  0.90200  0.69260  Biso   1.000  O
  O85      1.0000 0.44390  0.05930  0.29470  Biso   1.000  O
  O86      1.0000 0.27830  0.07050  0.28200  Biso   1.000  O
  O87      1.0000 0.45010  0.15690  0.28900  Biso   1.000  O
  O88      1.0000 0.29780  0.15830  0.30710  Biso   1.000  O
  O89      1.0000 0.85150  0.28850  0.71050  Biso   1.000  O
  O90      1.0000 0.69350  0.30950  0.72040  Biso   1.000  O
  O91      1.0000 0.35980  0.87541  0.47160  Biso   1.000  O
  C361     1.0000 0.58900  0.94800  0.51830  Biso   1.000  C
  C362     1.0000 0.58600  0.95390  0.49060  Biso   1.000  C
  C363     1.0000 0.82600  0.19590  0.47530  Biso   1.000  C
  C364     1.0000 0.85800  0.20330  0.50680  Biso   1.000  C
  Fe15     1.0000 0.86732  0.42955  0.47906  Biso   1.000  Fe
  Fe16     1.0000 0.13745  0.67743  0.51721  Biso   1.000  Fe
  Cd8      1.0000 0.73674  0.63165  0.25002  Biso   1.000  Cd
  C365     1.0000 0.08840  0.42290  0.51500  Biso   1.000  C
  C366     1.0000 0.17640  0.41950  0.54550  Biso   1.000  C
  H281     1.0000 0.17370  0.44110  0.56560  Biso   1.000  H
  H282     1.0000 0.17430  0.39330  0.55930  Biso   1.000  H
  C367     1.0000 0.27760  0.42300  0.52710  Biso   1.000  C
  H283     1.0000 0.31710  0.39850  0.53500  Biso   1.000  H
  H284     1.0000 0.31510  0.44600  0.54040  Biso   1.000  H
  C368     1.0000 0.27730  0.42780  0.48650  Biso   1.000  C
  H285     1.0000 0.33220  0.44670  0.48280  Biso   1.000  H
  H286     1.0000 0.29590  0.40140  0.47580  Biso   1.000  H
  C369     1.0000 0.19030  0.44140  0.46140  Biso   1.000  C
  H287     1.0000 0.19800  0.47070  0.45720  Biso   1.000  H
  H288     1.0000 0.18950  0.42830  0.43500  Biso   1.000  H
  C370     1.0000 0.09060  0.43480  0.47490  Biso   1.000  C
  C371     1.0000 0.97170  0.42630  0.56600  Biso   1.000  C
  H289     1.0000 0.02950  0.42160  0.58480  Biso   1.000  H
  C372     1.0000 0.99400  0.47000  0.41860  Biso   1.000  C
  H290     1.0000 0.05660  0.47530  0.40950  Biso   1.000  H
  C373     1.0000 0.87260  0.42850  0.58100  Biso   1.000  C
  C374     1.0000 0.87110  0.41980  0.62230  Biso   1.000  C
  H291     1.0000 0.93190  0.41420  0.63910  Biso   1.000  H
  C375     1.0000 0.77690  0.41960  0.63860  Biso   1.000  C
  C376     1.0000 0.68840  0.43290  0.61330  Biso   1.000  C
  H292     1.0000 0.62720  0.43430  0.62450  Biso   1.000  H
  C377     1.0000 0.68750  0.44400  0.57330  Biso   1.000  C
  C378     1.0000 0.78270  0.43990  0.55500  Biso   1.000  C
  C379     1.0000 0.90480  0.48440  0.39450  Biso   1.000  C
  C380     1.0000 0.91960  0.50760  0.35880  Biso   1.000  C
  H293     1.0000 0.98460  0.50980  0.35080  Biso   1.000  H
  C381     1.0000 0.83820  0.52650  0.33650  Biso   1.000  C
  C382     1.0000 0.74020  0.51960  0.34560  Biso   1.000  C
  H294     1.0000 0.68530  0.53110  0.32890  Biso   1.000  H
  C383     1.0000 0.72070  0.49610  0.37870  Biso   1.000  C
  C384     1.0000 0.80460  0.47820  0.40260  Biso   1.000  C
  C385     1.0000 0.59230  0.45660  0.54650  Biso   1.000  C
  H295     1.0000 0.60890  0.46330  0.51980  Biso   1.000  H
  H296     1.0000 0.54390  0.43440  0.54440  Biso   1.000  H
  H297     1.0000 0.56320  0.48020  0.55800  Biso   1.000  H
  C386     1.0000 0.61480  0.49070  0.38880  Biso   1.000  C
  H298     1.0000 0.61610  0.47350  0.41250  Biso   1.000  H
  H299     1.0000 0.58680  0.51700  0.39440  Biso   1.000  H
  H300     1.0000 0.57300  0.47820  0.36620  Biso   1.000  H
  C387     1.0000 0.76750  0.40510  0.67920  Biso   1.000  C
  C388     1.0000 0.85230  0.55370  0.30100  Biso   1.000  C
  C389     1.0000 0.32490  0.67250  0.47940  Biso   1.000  C
  C390     1.0000 0.39670  0.66760  0.44620  Biso   1.000  C
  H301     1.0000 0.37810  0.68820  0.42530  Biso   1.000  H
  H302     1.0000 0.38410  0.64090  0.43350  Biso   1.000  H
  C391     1.0000 0.50510  0.67120  0.45970  Biso   1.000  C
  H303     1.0000 0.53160  0.69230  0.44320  Biso   1.000  H
  H304     1.0000 0.53650  0.64550  0.45320  Biso   1.000  H
  C392     1.0000 0.53990  0.68000  0.49960  Biso   1.000  C
  H305     1.0000 0.57530  0.65570  0.51120  Biso   1.000  H
  H306     1.0000 0.59100  0.70140  0.49960  Biso   1.000  H
  C393     1.0000 0.46710  0.69320  0.52880  Biso   1.000  C
  H307     1.0000 0.47000  0.72300  0.53080  Biso   1.000  H
  H308     1.0000 0.49230  0.68240  0.55550  Biso   1.000  H
  C394     1.0000 0.36050  0.68150  0.51930  Biso   1.000  C
  C395     1.0000 0.17420  0.67560  0.42850  Biso   1.000  C
  H309     1.0000 0.21770  0.67070  0.40900  Biso   1.000  H
  C396     1.0000 0.30750  0.71610  0.57470  Biso   1.000  C
  H310     1.0000 0.37690  0.72010  0.58330  Biso   1.000  H
  C397     1.0000 0.06680  0.67860  0.41410  Biso   1.000  C
  C398     1.0000 0.03250  0.67210  0.37270  Biso   1.000  C
  H311     1.0000 0.07990  0.66700  0.35480  Biso   1.000  H
  C399     1.0000 0.93000  0.67330  0.35800  Biso   1.000  C
  C400     1.0000 0.86090  0.68470  0.38500  Biso   1.000  C
  H312     1.0000 0.79220  0.68780  0.37460  Biso   1.000  H
  C401     1.0000 0.88980  0.69160  0.42590  Biso   1.000  C
  C402     1.0000 0.99230  0.68850  0.44180  Biso   1.000  C
  C403     1.0000 0.23460  0.73000  0.60160  Biso   1.000  C
  C404     1.0000 0.27480  0.74820  0.63840  Biso   1.000  C
  H313     1.0000 0.34530  0.74880  0.64600  Biso   1.000  H
  C405     1.0000 0.20840  0.76600  0.66440  Biso   1.000  C
  C406     1.0000 0.10530  0.76020  0.65540  Biso   1.000  C
  H314     1.0000 0.06310  0.77060  0.67350  Biso   1.000  H
  C407     1.0000 0.06030  0.73980  0.62120  Biso   1.000  C
  C408     1.0000 0.12910  0.72390  0.59460  Biso   1.000  C
  C409     1.0000 0.81330  0.70360  0.45410  Biso   1.000  C
  H315     1.0000 0.84810  0.70720  0.48130  Biso   1.000  H
  H316     1.0000 0.78070  0.72890  0.44490  Biso   1.000  H
  H317     1.0000 0.76270  0.68240  0.45410  Biso   1.000  H
  C410     1.0000 0.95210  0.73660  0.61290  Biso   1.000  C
  H318     1.0000 0.93400  0.72180  0.58790  Biso   1.000  H
  H319     1.0000 0.92640  0.72230  0.63480  Biso   1.000  H
  H320     1.0000 0.92270  0.76360  0.61040  Biso   1.000  H
  C411     1.0000 0.89020  0.66350  0.31660  Biso   1.000  C
  C412     1.0000 0.25270  0.78980  0.70150  Biso   1.000  C
  N29      1.0000 0.98350  0.43060  0.52850  Biso   1.000  N
  N30      1.0000 0.99510  0.45000  0.45270  Biso   1.000  N
  N31      1.0000 0.21540  0.67900  0.46510  Biso   1.000  N
  N32      1.0000 0.28220  0.69910  0.54070  Biso   1.000  N
  O92      1.0000 0.77750  0.44841  0.51710  Biso   1.000  O
  O93      1.0000 0.78560  0.45700  0.43500  Biso   1.000  O
  O94      1.0000 0.01850  0.69415  0.48110  Biso   1.000  O
  O95      1.0000 0.08750  0.70760  0.56120  Biso   1.000  O
  O96      1.0000 0.84960  0.39360  0.70270  Biso   1.000  O
  O97      1.0000 0.68120  0.40200  0.69260  Biso   1.000  O
  O98      1.0000 0.94390  0.55930  0.29470  Biso   1.000  O
  O99      1.0000 0.77830  0.57050  0.28200  Biso   1.000  O
  O100     1.0000 0.95010  0.65690  0.28900  Biso   1.000  O
  O101     1.0000 0.79780  0.65830  0.30710  Biso   1.000  O
  O102     1.0000 0.35150  0.78850  0.71050  Biso   1.000  O
  O103     1.0000 0.19350  0.80950  0.72040  Biso   1.000  O
  O104     1.0000 0.85980  0.37541  0.47160  Biso   1.000  O
  C413     1.0000 0.08900  0.44800  0.51830  Biso   1.000  C
  C414     1.0000 0.08600  0.45390  0.49060  Biso   1.000  C
  C415     1.0000 0.32600  0.69590  0.47530  Biso   1.000  C
  C416     1.0000 0.35800  0.70330  0.50680  Biso   1.000  C
  Cd9      1.0000 0.50000  0.89885  0.75000  Biso   1.000  Cd
  Cd10     1.0000 0.50000  0.78883  0.75000  Biso   1.000  Cd
  Cd11     1.0000 0.00000  0.39885  0.75000  Biso   1.000  Cd
  Cd12     1.0000 0.00000  0.28883  0.75000  Biso   1.000  Cd
  Cd13     1.0000 0.50000  0.10115  0.25000  Biso   1.000  Cd
  Cd14     1.0000 0.50000  0.21117  0.25000  Biso   1.000  Cd
  Cd15     1.0000 0.00000  0.60115  0.25000  Biso   1.000  Cd
  Cd16     1.0000 0.00000  0.71117  0.25000  Biso   1.000  Cd
