data_image0
_cell_length_a       38.6484
_cell_length_b       38.6484
_cell_length_c       38.6484
_cell_angle_alpha    90
_cell_angle_beta     90
_cell_angle_gamma    90

_symmetry_space_group_name_H-M    "P 1"
_symmetry_int_tables_number       1

loop_
  _symmetry_equiv_pos_as_xyz
  'x, y, z'

loop_
  _atom_site_label
  _atom_site_occupancy
  _atom_site_fract_x
  _atom_site_fract_y
  _atom_site_fract_z
  _atom_site_thermal_displace_type
  _atom_site_B_iso_or_equiv
  _atom_site_type_symbol
  C1       1.0000 0.48266  0.24697  0.10889  Biso   1.000  C
  H1       1.0000 0.46810  0.24570  0.12860  Biso   1.000  H
  C2       1.0000 0.47169  0.24923  0.07357  Biso   1.000  C
  C3       1.0000 0.39090  0.22023  0.09672  Biso   1.000  C
  H2       1.0000 0.39540  0.19990  0.08370  Biso   1.000  H
  C4       1.0000 0.36523  0.22010  0.12241  Biso   1.000  C
  H3       1.0000 0.35230  0.19970  0.12690  Biso   1.000  H
  O1       1.0000 0.31463  0.22219  0.17251  Biso   1.000  O
  O2       1.0000 0.24540  0.15140  0.19020  Biso   1.000  O
  O3       1.0000 0.25505  0.15905  0.21011  Biso   1.000  O
  C5       1.0000 0.98266  0.74697  0.60889  Biso   1.000  C
  H4       1.0000 0.96810  0.74570  0.62860  Biso   1.000  H
  C6       1.0000 0.97169  0.74923  0.57357  Biso   1.000  C
  C7       1.0000 0.89090  0.72023  0.59672  Biso   1.000  C
  H5       1.0000 0.89540  0.69990  0.58370  Biso   1.000  H
  C8       1.0000 0.86523  0.72010  0.62241  Biso   1.000  C
  H6       1.0000 0.85230  0.69970  0.62690  Biso   1.000  H
  O4       1.0000 0.81463  0.72219  0.67251  Biso   1.000  O
  O5       1.0000 0.74540  0.65140  0.69020  Biso   1.000  O
  O6       1.0000 0.75505  0.65905  0.71011  Biso   1.000  O
  C9       1.0000 0.51734  0.75303  0.10889  Biso   1.000  C
  H7       1.0000 0.53190  0.75430  0.12860  Biso   1.000  H
  C10      1.0000 0.52831  0.75077  0.07357  Biso   1.000  C
  C11      1.0000 0.60910  0.77977  0.09672  Biso   1.000  C
  H8       1.0000 0.60460  0.80010  0.08370  Biso   1.000  H
  C12      1.0000 0.63477  0.77990  0.12241  Biso   1.000  C
  H9       1.0000 0.64770  0.80030  0.12690  Biso   1.000  H
  O7       1.0000 0.68537  0.77781  0.17251  Biso   1.000  O
  O8       1.0000 0.75460  0.84860  0.19020  Biso   1.000  O
  O9       1.0000 0.74495  0.84095  0.21011  Biso   1.000  O
  C13      1.0000 0.01734  0.25303  0.60889  Biso   1.000  C
  H10      1.0000 0.03190  0.25430  0.62860  Biso   1.000  H
  C14      1.0000 0.02831  0.25077  0.57357  Biso   1.000  C
  C15      1.0000 0.10910  0.27977  0.59672  Biso   1.000  C
  H11      1.0000 0.10460  0.30010  0.58370  Biso   1.000  H
  C16      1.0000 0.13477  0.27990  0.62241  Biso   1.000  C
  H12      1.0000 0.14770  0.30030  0.62690  Biso   1.000  H
  O10      1.0000 0.18537  0.27781  0.67251  Biso   1.000  O
  O11      1.0000 0.25460  0.34860  0.69020  Biso   1.000  O
  O12      1.0000 0.24495  0.34095  0.71011  Biso   1.000  O
  C17      1.0000 0.51734  0.24697  0.89111  Biso   1.000  C
  H13      1.0000 0.53190  0.24570  0.87140  Biso   1.000  H
  C18      1.0000 0.52831  0.24923  0.92643  Biso   1.000  C
  C19      1.0000 0.60910  0.22023  0.90328  Biso   1.000  C
  H14      1.0000 0.60460  0.19990  0.91630  Biso   1.000  H
  C20      1.0000 0.63477  0.22010  0.87759  Biso   1.000  C
  H15      1.0000 0.64770  0.19970  0.87310  Biso   1.000  H
  O13      1.0000 0.68537  0.22219  0.82749  Biso   1.000  O
  O14      1.0000 0.75460  0.15140  0.80980  Biso   1.000  O
  O15      1.0000 0.74495  0.15905  0.78989  Biso   1.000  O
  C21      1.0000 0.01734  0.74697  0.39111  Biso   1.000  C
  H16      1.0000 0.03190  0.74570  0.37140  Biso   1.000  H
  C22      1.0000 0.02831  0.74923  0.42643  Biso   1.000  C
  C23      1.0000 0.10910  0.72023  0.40328  Biso   1.000  C
  H17      1.0000 0.10460  0.69990  0.41630  Biso   1.000  H
  C24      1.0000 0.13477  0.72010  0.37759  Biso   1.000  C
  H18      1.0000 0.14770  0.69970  0.37310  Biso   1.000  H
  O16      1.0000 0.18537  0.72219  0.32749  Biso   1.000  O
  O17      1.0000 0.25460  0.65140  0.30980  Biso   1.000  O
  O18      1.0000 0.24495  0.65905  0.28989  Biso   1.000  O
  C25      1.0000 0.48266  0.75303  0.89111  Biso   1.000  C
  H19      1.0000 0.46810  0.75430  0.87140  Biso   1.000  H
  C26      1.0000 0.47169  0.75077  0.92643  Biso   1.000  C
  C27      1.0000 0.39090  0.77977  0.90328  Biso   1.000  C
  H20      1.0000 0.39540  0.80010  0.91630  Biso   1.000  H
  C28      1.0000 0.36523  0.77990  0.87759  Biso   1.000  C
  H21      1.0000 0.35230  0.80030  0.87310  Biso   1.000  H
  O19      1.0000 0.31463  0.77781  0.82749  Biso   1.000  O
  O20      1.0000 0.24540  0.84860  0.80980  Biso   1.000  O
  O21      1.0000 0.25505  0.84095  0.78989  Biso   1.000  O
  C29      1.0000 0.98266  0.25303  0.39111  Biso   1.000  C
  H22      1.0000 0.96810  0.25430  0.37140  Biso   1.000  H
  C30      1.0000 0.97169  0.25077  0.42643  Biso   1.000  C
  C31      1.0000 0.89090  0.27977  0.40328  Biso   1.000  C
  H23      1.0000 0.89540  0.30010  0.41630  Biso   1.000  H
  C32      1.0000 0.86523  0.27990  0.37759  Biso   1.000  C
  H24      1.0000 0.85230  0.30030  0.37310  Biso   1.000  H
  O22      1.0000 0.81463  0.27781  0.32749  Biso   1.000  O
  O23      1.0000 0.74540  0.34860  0.30980  Biso   1.000  O
  O24      1.0000 0.75505  0.34095  0.28989  Biso   1.000  O
  C33      1.0000 0.10889  0.48266  0.24697  Biso   1.000  C
  H25      1.0000 0.12860  0.46810  0.24570  Biso   1.000  H
  C34      1.0000 0.07357  0.47169  0.24923  Biso   1.000  C
  C35      1.0000 0.09672  0.39090  0.22023  Biso   1.000  C
  H26      1.0000 0.08370  0.39540  0.19990  Biso   1.000  H
  C36      1.0000 0.12241  0.36523  0.22010  Biso   1.000  C
  H27      1.0000 0.12690  0.35230  0.19970  Biso   1.000  H
  O25      1.0000 0.17251  0.31463  0.22219  Biso   1.000  O
  O26      1.0000 0.19020  0.24540  0.15140  Biso   1.000  O
  O27      1.0000 0.21011  0.25505  0.15905  Biso   1.000  O
  C37      1.0000 0.60889  0.98266  0.74697  Biso   1.000  C
  H28      1.0000 0.62860  0.96810  0.74570  Biso   1.000  H
  C38      1.0000 0.57357  0.97169  0.74923  Biso   1.000  C
  C39      1.0000 0.59672  0.89090  0.72023  Biso   1.000  C
  H29      1.0000 0.58370  0.89540  0.69990  Biso   1.000  H
  C40      1.0000 0.62241  0.86523  0.72010  Biso   1.000  C
  H30      1.0000 0.62690  0.85230  0.69970  Biso   1.000  H
  O28      1.0000 0.67251  0.81463  0.72219  Biso   1.000  O
  O29      1.0000 0.69020  0.74540  0.65140  Biso   1.000  O
  O30      1.0000 0.71011  0.75505  0.65905  Biso   1.000  O
  C41      1.0000 0.10889  0.51734  0.75303  Biso   1.000  C
  H31      1.0000 0.12860  0.53190  0.75430  Biso   1.000  H
  C42      1.0000 0.07357  0.52831  0.75077  Biso   1.000  C
  C43      1.0000 0.09672  0.60910  0.77977  Biso   1.000  C
  H32      1.0000 0.08370  0.60460  0.80010  Biso   1.000  H
  C44      1.0000 0.12241  0.63477  0.77990  Biso   1.000  C
  H33      1.0000 0.12690  0.64770  0.80030  Biso   1.000  H
  O31      1.0000 0.17251  0.68537  0.77781  Biso   1.000  O
  O32      1.0000 0.19020  0.75460  0.84860  Biso   1.000  O
  O33      1.0000 0.21011  0.74495  0.84095  Biso   1.000  O
  C45      1.0000 0.60889  0.01734  0.25303  Biso   1.000  C
  H34      1.0000 0.62860  0.03190  0.25430  Biso   1.000  H
  C46      1.0000 0.57357  0.02831  0.25077  Biso   1.000  C
  C47      1.0000 0.59672  0.10910  0.27977  Biso   1.000  C
  H35      1.0000 0.58370  0.10460  0.30010  Biso   1.000  H
  C48      1.0000 0.62241  0.13477  0.27990  Biso   1.000  C
  H36      1.0000 0.62690  0.14770  0.30030  Biso   1.000  H
  O34      1.0000 0.67251  0.18537  0.27781  Biso   1.000  O
  O35      1.0000 0.69020  0.25460  0.34860  Biso   1.000  O
  O36      1.0000 0.71011  0.24495  0.34095  Biso   1.000  O
  C49      1.0000 0.89111  0.51734  0.24697  Biso   1.000  C
  H37      1.0000 0.87140  0.53190  0.24570  Biso   1.000  H
  C50      1.0000 0.92643  0.52831  0.24923  Biso   1.000  C
  C51      1.0000 0.90328  0.60910  0.22023  Biso   1.000  C
  H38      1.0000 0.91630  0.60460  0.19990  Biso   1.000  H
  C52      1.0000 0.87759  0.63477  0.22010  Biso   1.000  C
  H39      1.0000 0.87310  0.64770  0.19970  Biso   1.000  H
  O37      1.0000 0.82749  0.68537  0.22219  Biso   1.000  O
  O38      1.0000 0.80980  0.75460  0.15140  Biso   1.000  O
  O39      1.0000 0.78989  0.74495  0.15905  Biso   1.000  O
  C53      1.0000 0.39111  0.01734  0.74697  Biso   1.000  C
  H40      1.0000 0.37140  0.03190  0.74570  Biso   1.000  H
  C54      1.0000 0.42643  0.02831  0.74923  Biso   1.000  C
  C55      1.0000 0.40328  0.10910  0.72023  Biso   1.000  C
  H41      1.0000 0.41630  0.10460  0.69990  Biso   1.000  H
  C56      1.0000 0.37759  0.13477  0.72010  Biso   1.000  C
  H42      1.0000 0.37310  0.14770  0.69970  Biso   1.000  H
  O40      1.0000 0.32749  0.18537  0.72219  Biso   1.000  O
  O41      1.0000 0.30980  0.25460  0.65140  Biso   1.000  O
  O42      1.0000 0.28989  0.24495  0.65905  Biso   1.000  O
  C57      1.0000 0.89111  0.48266  0.75303  Biso   1.000  C
  H43      1.0000 0.87140  0.46810  0.75430  Biso   1.000  H
  C58      1.0000 0.92643  0.47169  0.75077  Biso   1.000  C
  C59      1.0000 0.90328  0.39090  0.77977  Biso   1.000  C
  H44      1.0000 0.91630  0.39540  0.80010  Biso   1.000  H
  C60      1.0000 0.87759  0.36523  0.77990  Biso   1.000  C
  H45      1.0000 0.87310  0.35230  0.80030  Biso   1.000  H
  O43      1.0000 0.82749  0.31463  0.77781  Biso   1.000  O
  O44      1.0000 0.80980  0.24540  0.84860  Biso   1.000  O
  O45      1.0000 0.78989  0.25505  0.84095  Biso   1.000  O
  C61      1.0000 0.39111  0.98266  0.25303  Biso   1.000  C
  H46      1.0000 0.37140  0.96810  0.25430  Biso   1.000  H
  C62      1.0000 0.42643  0.97169  0.25077  Biso   1.000  C
  C63      1.0000 0.40328  0.89090  0.27977  Biso   1.000  C
  H47      1.0000 0.41630  0.89540  0.30010  Biso   1.000  H
  C64      1.0000 0.37759  0.86523  0.27990  Biso   1.000  C
  H48      1.0000 0.37310  0.85230  0.30030  Biso   1.000  H
  O46      1.0000 0.32749  0.81463  0.27781  Biso   1.000  O
  O47      1.0000 0.30980  0.74540  0.34860  Biso   1.000  O
  O48      1.0000 0.28989  0.75505  0.34095  Biso   1.000  O
  C65      1.0000 0.24697  0.10889  0.48266  Biso   1.000  C
  H49      1.0000 0.24570  0.12860  0.46810  Biso   1.000  H
  C66      1.0000 0.24923  0.07357  0.47169  Biso   1.000  C
  C67      1.0000 0.22023  0.09672  0.39090  Biso   1.000  C
  H50      1.0000 0.19990  0.08370  0.39540  Biso   1.000  H
  C68      1.0000 0.22010  0.12241  0.36523  Biso   1.000  C
  H51      1.0000 0.19970  0.12690  0.35230  Biso   1.000  H
  O49      1.0000 0.22219  0.17251  0.31463  Biso   1.000  O
  O50      1.0000 0.15140  0.19020  0.24540  Biso   1.000  O
  O51      1.0000 0.15905  0.21011  0.25505  Biso   1.000  O
  C69      1.0000 0.74697  0.60889  0.98266  Biso   1.000  C
  H52      1.0000 0.74570  0.62860  0.96810  Biso   1.000  H
  C70      1.0000 0.74923  0.57357  0.97169  Biso   1.000  C
  C71      1.0000 0.72023  0.59672  0.89090  Biso   1.000  C
  H53      1.0000 0.69990  0.58370  0.89540  Biso   1.000  H
  C72      1.0000 0.72010  0.62241  0.86523  Biso   1.000  C
  H54      1.0000 0.69970  0.62690  0.85230  Biso   1.000  H
  O52      1.0000 0.72219  0.67251  0.81463  Biso   1.000  O
  O53      1.0000 0.65140  0.69020  0.74540  Biso   1.000  O
  O54      1.0000 0.65905  0.71011  0.75505  Biso   1.000  O
  C73      1.0000 0.75303  0.10889  0.51734  Biso   1.000  C
  H55      1.0000 0.75430  0.12860  0.53190  Biso   1.000  H
  C74      1.0000 0.75077  0.07357  0.52831  Biso   1.000  C
  C75      1.0000 0.77977  0.09672  0.60910  Biso   1.000  C
  H56      1.0000 0.80010  0.08370  0.60460  Biso   1.000  H
  C76      1.0000 0.77990  0.12241  0.63477  Biso   1.000  C
  H57      1.0000 0.80030  0.12690  0.64770  Biso   1.000  H
  O55      1.0000 0.77781  0.17251  0.68537  Biso   1.000  O
  O56      1.0000 0.84860  0.19020  0.75460  Biso   1.000  O
  O57      1.0000 0.84095  0.21011  0.74495  Biso   1.000  O
  C77      1.0000 0.25303  0.60889  0.01734  Biso   1.000  C
  H58      1.0000 0.25430  0.62860  0.03190  Biso   1.000  H
  C78      1.0000 0.25077  0.57357  0.02831  Biso   1.000  C
  C79      1.0000 0.27977  0.59672  0.10910  Biso   1.000  C
  H59      1.0000 0.30010  0.58370  0.10460  Biso   1.000  H
  C80      1.0000 0.27990  0.62241  0.13477  Biso   1.000  C
  H60      1.0000 0.30030  0.62690  0.14770  Biso   1.000  H
  O58      1.0000 0.27781  0.67251  0.18537  Biso   1.000  O
  O59      1.0000 0.34860  0.69020  0.25460  Biso   1.000  O
  O60      1.0000 0.34095  0.71011  0.24495  Biso   1.000  O
  C81      1.0000 0.24697  0.89111  0.51734  Biso   1.000  C
  H61      1.0000 0.24570  0.87140  0.53190  Biso   1.000  H
  C82      1.0000 0.24923  0.92643  0.52831  Biso   1.000  C
  C83      1.0000 0.22023  0.90328  0.60910  Biso   1.000  C
  H62      1.0000 0.19990  0.91630  0.60460  Biso   1.000  H
  C84      1.0000 0.22010  0.87759  0.63477  Biso   1.000  C
  H63      1.0000 0.19970  0.87310  0.64770  Biso   1.000  H
  O61      1.0000 0.22219  0.82749  0.68537  Biso   1.000  O
  O62      1.0000 0.15140  0.80980  0.75460  Biso   1.000  O
  O63      1.0000 0.15905  0.78989  0.74495  Biso   1.000  O
  C85      1.0000 0.74697  0.39111  0.01734  Biso   1.000  C
  H64      1.0000 0.74570  0.37140  0.03190  Biso   1.000  H
  C86      1.0000 0.74923  0.42643  0.02831  Biso   1.000  C
  C87      1.0000 0.72023  0.40328  0.10910  Biso   1.000  C
  H65      1.0000 0.69990  0.41630  0.10460  Biso   1.000  H
  C88      1.0000 0.72010  0.37759  0.13477  Biso   1.000  C
  H66      1.0000 0.69970  0.37310  0.14770  Biso   1.000  H
  O64      1.0000 0.72219  0.32749  0.18537  Biso   1.000  O
  O65      1.0000 0.65140  0.30980  0.25460  Biso   1.000  O
  O66      1.0000 0.65905  0.28989  0.24495  Biso   1.000  O
  C89      1.0000 0.75303  0.89111  0.48266  Biso   1.000  C
  H67      1.0000 0.75430  0.87140  0.46810  Biso   1.000  H
  C90      1.0000 0.75077  0.92643  0.47169  Biso   1.000  C
  C91      1.0000 0.77977  0.90328  0.39090  Biso   1.000  C
  H68      1.0000 0.80010  0.91630  0.39540  Biso   1.000  H
  C92      1.0000 0.77990  0.87759  0.36523  Biso   1.000  C
  H69      1.0000 0.80030  0.87310  0.35230  Biso   1.000  H
  O67      1.0000 0.77781  0.82749  0.31463  Biso   1.000  O
  O68      1.0000 0.84860  0.80980  0.24540  Biso   1.000  O
  O69      1.0000 0.84095  0.78989  0.25505  Biso   1.000  O
  C93      1.0000 0.25303  0.39111  0.98266  Biso   1.000  C
  H70      1.0000 0.25430  0.37140  0.96810  Biso   1.000  H
  C94      1.0000 0.25077  0.42643  0.97169  Biso   1.000  C
  C95      1.0000 0.27977  0.40328  0.89090  Biso   1.000  C
  H71      1.0000 0.30010  0.41630  0.89540  Biso   1.000  H
  C96      1.0000 0.27990  0.37759  0.86523  Biso   1.000  C
  H72      1.0000 0.30030  0.37310  0.85230  Biso   1.000  H
  O70      1.0000 0.27781  0.32749  0.81463  Biso   1.000  O
  O71      1.0000 0.34860  0.30980  0.74540  Biso   1.000  O
  O72      1.0000 0.34095  0.28989  0.75505  Biso   1.000  O
  C97      1.0000 0.24697  0.48266  0.89111  Biso   1.000  C
  H73      1.0000 0.24570  0.46810  0.87140  Biso   1.000  H
  C98      1.0000 0.24923  0.47169  0.92643  Biso   1.000  C
  C99      1.0000 0.22023  0.39090  0.90328  Biso   1.000  C
  H74      1.0000 0.19990  0.39540  0.91630  Biso   1.000  H
  C100     1.0000 0.22010  0.36523  0.87759  Biso   1.000  C
  H75      1.0000 0.19970  0.35230  0.87310  Biso   1.000  H
  O73      1.0000 0.22219  0.31463  0.82749  Biso   1.000  O
  O74      1.0000 0.15140  0.24540  0.80980  Biso   1.000  O
  O75      1.0000 0.15905  0.25505  0.78989  Biso   1.000  O
  C101     1.0000 0.74697  0.98266  0.39111  Biso   1.000  C
  H76      1.0000 0.74570  0.96810  0.37140  Biso   1.000  H
  C102     1.0000 0.74923  0.97169  0.42643  Biso   1.000  C
  C103     1.0000 0.72023  0.89090  0.40328  Biso   1.000  C
  H77      1.0000 0.69990  0.89540  0.41630  Biso   1.000  H
  C104     1.0000 0.72010  0.86523  0.37759  Biso   1.000  C
  H78      1.0000 0.69970  0.85230  0.37310  Biso   1.000  H
  O76      1.0000 0.72219  0.81463  0.32749  Biso   1.000  O
  O77      1.0000 0.65140  0.74540  0.30980  Biso   1.000  O
  O78      1.0000 0.65905  0.75505  0.28989  Biso   1.000  O
  C105     1.0000 0.75303  0.51734  0.89111  Biso   1.000  C
  H79      1.0000 0.75430  0.53190  0.87140  Biso   1.000  H
  C106     1.0000 0.75077  0.52831  0.92643  Biso   1.000  C
  C107     1.0000 0.77977  0.60910  0.90328  Biso   1.000  C
  H80      1.0000 0.80010  0.60460  0.91630  Biso   1.000  H
  C108     1.0000 0.77990  0.63477  0.87759  Biso   1.000  C
  H81      1.0000 0.80030  0.64770  0.87310  Biso   1.000  H
  O79      1.0000 0.77781  0.68537  0.82749  Biso   1.000  O
  O80      1.0000 0.84860  0.75460  0.80980  Biso   1.000  O
  O81      1.0000 0.84095  0.74495  0.78989  Biso   1.000  O
  C109     1.0000 0.25303  0.01734  0.39111  Biso   1.000  C
  H82      1.0000 0.25430  0.03190  0.37140  Biso   1.000  H
  C110     1.0000 0.25077  0.02831  0.42643  Biso   1.000  C
  C111     1.0000 0.27977  0.10910  0.40328  Biso   1.000  C
  H83      1.0000 0.30010  0.10460  0.41630  Biso   1.000  H
  C112     1.0000 0.27990  0.13477  0.37759  Biso   1.000  C
  H84      1.0000 0.30030  0.14770  0.37310  Biso   1.000  H
  O82      1.0000 0.27781  0.18537  0.32749  Biso   1.000  O
  O83      1.0000 0.34860  0.25460  0.30980  Biso   1.000  O
  O84      1.0000 0.34095  0.24495  0.28989  Biso   1.000  O
  C113     1.0000 0.24697  0.51734  0.10889  Biso   1.000  C
  H85      1.0000 0.24570  0.53190  0.12860  Biso   1.000  H
  C114     1.0000 0.24923  0.52831  0.07357  Biso   1.000  C
  C115     1.0000 0.22023  0.60910  0.09672  Biso   1.000  C
  H86      1.0000 0.19990  0.60460  0.08370  Biso   1.000  H
  C116     1.0000 0.22010  0.63477  0.12241  Biso   1.000  C
  H87      1.0000 0.19970  0.64770  0.12690  Biso   1.000  H
  O85      1.0000 0.22219  0.68537  0.17251  Biso   1.000  O
  O86      1.0000 0.15140  0.75460  0.19020  Biso   1.000  O
  O87      1.0000 0.15905  0.74495  0.21011  Biso   1.000  O
  C117     1.0000 0.74697  0.01734  0.60889  Biso   1.000  C
  H88      1.0000 0.74570  0.03190  0.62860  Biso   1.000  H
  C118     1.0000 0.74923  0.02831  0.57357  Biso   1.000  C
  C119     1.0000 0.72023  0.10910  0.59672  Biso   1.000  C
  H89      1.0000 0.69990  0.10460  0.58370  Biso   1.000  H
  C120     1.0000 0.72010  0.13477  0.62241  Biso   1.000  C
  H90      1.0000 0.69970  0.14770  0.62690  Biso   1.000  H
  O88      1.0000 0.72219  0.18537  0.67251  Biso   1.000  O
  O89      1.0000 0.65140  0.25460  0.69020  Biso   1.000  O
  O90      1.0000 0.65905  0.24495  0.71011  Biso   1.000  O
  C121     1.0000 0.75303  0.48266  0.10889  Biso   1.000  C
  H91      1.0000 0.75430  0.46810  0.12860  Biso   1.000  H
  C122     1.0000 0.75077  0.47169  0.07357  Biso   1.000  C
  C123     1.0000 0.77977  0.39090  0.09672  Biso   1.000  C
  H92      1.0000 0.80010  0.39540  0.08370  Biso   1.000  H
  C124     1.0000 0.77990  0.36523  0.12241  Biso   1.000  C
  H93      1.0000 0.80030  0.35230  0.12690  Biso   1.000  H
  O91      1.0000 0.77781  0.31463  0.17251  Biso   1.000  O
  O92      1.0000 0.84860  0.24540  0.19020  Biso   1.000  O
  O93      1.0000 0.84095  0.25505  0.21011  Biso   1.000  O
  C125     1.0000 0.25303  0.98266  0.60889  Biso   1.000  C
  H94      1.0000 0.25430  0.96810  0.62860  Biso   1.000  H
  C126     1.0000 0.25077  0.97169  0.57357  Biso   1.000  C
  C127     1.0000 0.27977  0.89090  0.59672  Biso   1.000  C
  H95      1.0000 0.30010  0.89540  0.58370  Biso   1.000  H
  C128     1.0000 0.27990  0.86523  0.62241  Biso   1.000  C
  H96      1.0000 0.30030  0.85230  0.62690  Biso   1.000  H
  O94      1.0000 0.27781  0.81463  0.67251  Biso   1.000  O
  O95      1.0000 0.34860  0.74540  0.69020  Biso   1.000  O
  O96      1.0000 0.34095  0.75505  0.71011  Biso   1.000  O
  C129     1.0000 0.48266  0.10889  0.75303  Biso   1.000  C
  H97      1.0000 0.46810  0.12860  0.75430  Biso   1.000  H
  C130     1.0000 0.47169  0.07357  0.75077  Biso   1.000  C
  C131     1.0000 0.39090  0.09672  0.77977  Biso   1.000  C
  H98      1.0000 0.39540  0.08370  0.80010  Biso   1.000  H
  C132     1.0000 0.36523  0.12241  0.77990  Biso   1.000  C
  H99      1.0000 0.35230  0.12690  0.80030  Biso   1.000  H
  O97      1.0000 0.31463  0.17251  0.77781  Biso   1.000  O
  O98      1.0000 0.24540  0.19020  0.84860  Biso   1.000  O
  O99      1.0000 0.25505  0.21011  0.84095  Biso   1.000  O
  C133     1.0000 0.98266  0.60889  0.25303  Biso   1.000  C
  H100     1.0000 0.96810  0.62860  0.25430  Biso   1.000  H
  C134     1.0000 0.97169  0.57357  0.25077  Biso   1.000  C
  C135     1.0000 0.89090  0.59672  0.27977  Biso   1.000  C
  H101     1.0000 0.89540  0.58370  0.30010  Biso   1.000  H
  C136     1.0000 0.86523  0.62241  0.27990  Biso   1.000  C
  H102     1.0000 0.85230  0.62690  0.30030  Biso   1.000  H
  O100     1.0000 0.81463  0.67251  0.27781  Biso   1.000  O
  O101     1.0000 0.74540  0.69020  0.34860  Biso   1.000  O
  O102     1.0000 0.75505  0.71011  0.34095  Biso   1.000  O
  C137     1.0000 0.51734  0.10889  0.24697  Biso   1.000  C
  H103     1.0000 0.53190  0.12860  0.24570  Biso   1.000  H
  C138     1.0000 0.52831  0.07357  0.24923  Biso   1.000  C
  C139     1.0000 0.60910  0.09672  0.22023  Biso   1.000  C
  H104     1.0000 0.60460  0.08370  0.19990  Biso   1.000  H
  C140     1.0000 0.63477  0.12241  0.22010  Biso   1.000  C
  H105     1.0000 0.64770  0.12690  0.19970  Biso   1.000  H
  O103     1.0000 0.68537  0.17251  0.22219  Biso   1.000  O
  O104     1.0000 0.75460  0.19020  0.15140  Biso   1.000  O
  O105     1.0000 0.74495  0.21011  0.15905  Biso   1.000  O
  C141     1.0000 0.01734  0.60889  0.74697  Biso   1.000  C
  H106     1.0000 0.03190  0.62860  0.74570  Biso   1.000  H
  C142     1.0000 0.02831  0.57357  0.74923  Biso   1.000  C
  C143     1.0000 0.10910  0.59672  0.72023  Biso   1.000  C
  H107     1.0000 0.10460  0.58370  0.69990  Biso   1.000  H
  C144     1.0000 0.13477  0.62241  0.72010  Biso   1.000  C
  H108     1.0000 0.14770  0.62690  0.69970  Biso   1.000  H
  O106     1.0000 0.18537  0.67251  0.72219  Biso   1.000  O
  O107     1.0000 0.25460  0.69020  0.65140  Biso   1.000  O
  O108     1.0000 0.24495  0.71011  0.65905  Biso   1.000  O
  C145     1.0000 0.51734  0.89111  0.75303  Biso   1.000  C
  H109     1.0000 0.53190  0.87140  0.75430  Biso   1.000  H
  C146     1.0000 0.52831  0.92643  0.75077  Biso   1.000  C
  C147     1.0000 0.60910  0.90328  0.77977  Biso   1.000  C
  H110     1.0000 0.60460  0.91630  0.80010  Biso   1.000  H
  C148     1.0000 0.63477  0.87759  0.77990  Biso   1.000  C
  H111     1.0000 0.64770  0.87310  0.80030  Biso   1.000  H
  O109     1.0000 0.68537  0.82749  0.77781  Biso   1.000  O
  O110     1.0000 0.75460  0.80980  0.84860  Biso   1.000  O
  O111     1.0000 0.74495  0.78989  0.84095  Biso   1.000  O
  C149     1.0000 0.01734  0.39111  0.25303  Biso   1.000  C
  H112     1.0000 0.03190  0.37140  0.25430  Biso   1.000  H
  C150     1.0000 0.02831  0.42643  0.25077  Biso   1.000  C
  C151     1.0000 0.10910  0.40328  0.27977  Biso   1.000  C
  H113     1.0000 0.10460  0.41630  0.30010  Biso   1.000  H
  C152     1.0000 0.13477  0.37759  0.27990  Biso   1.000  C
  H114     1.0000 0.14770  0.37310  0.30030  Biso   1.000  H
  O112     1.0000 0.18537  0.32749  0.27781  Biso   1.000  O
  O113     1.0000 0.25460  0.30980  0.34860  Biso   1.000  O
  O114     1.0000 0.24495  0.28989  0.34095  Biso   1.000  O
  C153     1.0000 0.48266  0.89111  0.24697  Biso   1.000  C
  H115     1.0000 0.46810  0.87140  0.24570  Biso   1.000  H
  C154     1.0000 0.47169  0.92643  0.24923  Biso   1.000  C
  C155     1.0000 0.39090  0.90328  0.22023  Biso   1.000  C
  H116     1.0000 0.39540  0.91630  0.19990  Biso   1.000  H
  C156     1.0000 0.36523  0.87759  0.22010  Biso   1.000  C
  H117     1.0000 0.35230  0.87310  0.19970  Biso   1.000  H
  O115     1.0000 0.31463  0.82749  0.22219  Biso   1.000  O
  O116     1.0000 0.24540  0.80980  0.15140  Biso   1.000  O
  O117     1.0000 0.25505  0.78989  0.15905  Biso   1.000  O
  C157     1.0000 0.98266  0.39111  0.74697  Biso   1.000  C
  H118     1.0000 0.96810  0.37140  0.74570  Biso   1.000  H
  C158     1.0000 0.97169  0.42643  0.74923  Biso   1.000  C
  C159     1.0000 0.89090  0.40328  0.72023  Biso   1.000  C
  H119     1.0000 0.89540  0.41630  0.69990  Biso   1.000  H
  C160     1.0000 0.86523  0.37759  0.72010  Biso   1.000  C
  H120     1.0000 0.85230  0.37310  0.69970  Biso   1.000  H
  O118     1.0000 0.81463  0.32749  0.72219  Biso   1.000  O
  O119     1.0000 0.74540  0.30980  0.65140  Biso   1.000  O
  O120     1.0000 0.75505  0.28989  0.65905  Biso   1.000  O
  C161     1.0000 0.10889  0.24697  0.51734  Biso   1.000  C
  H121     1.0000 0.12860  0.24570  0.53190  Biso   1.000  H
  C162     1.0000 0.07357  0.24923  0.52831  Biso   1.000  C
  C163     1.0000 0.09672  0.22023  0.60910  Biso   1.000  C
  H122     1.0000 0.08370  0.19990  0.60460  Biso   1.000  H
  C164     1.0000 0.12241  0.22010  0.63477  Biso   1.000  C
  H123     1.0000 0.12690  0.19970  0.64770  Biso   1.000  H
  O121     1.0000 0.17251  0.22219  0.68537  Biso   1.000  O
  O122     1.0000 0.19020  0.15140  0.75460  Biso   1.000  O
  O123     1.0000 0.21011  0.15905  0.74495  Biso   1.000  O
  C165     1.0000 0.60889  0.74697  0.01734  Biso   1.000  C
  H124     1.0000 0.62860  0.74570  0.03190  Biso   1.000  H
  C166     1.0000 0.57357  0.74923  0.02831  Biso   1.000  C
  C167     1.0000 0.59672  0.72023  0.10910  Biso   1.000  C
  H125     1.0000 0.58370  0.69990  0.10460  Biso   1.000  H
  C168     1.0000 0.62241  0.72010  0.13477  Biso   1.000  C
  H126     1.0000 0.62690  0.69970  0.14770  Biso   1.000  H
  O124     1.0000 0.67251  0.72219  0.18537  Biso   1.000  O
  O125     1.0000 0.69020  0.65140  0.25460  Biso   1.000  O
  O126     1.0000 0.71011  0.65905  0.24495  Biso   1.000  O
  C169     1.0000 0.10889  0.75303  0.48266  Biso   1.000  C
  H127     1.0000 0.12860  0.75430  0.46810  Biso   1.000  H
  C170     1.0000 0.07357  0.75077  0.47169  Biso   1.000  C
  C171     1.0000 0.09672  0.77977  0.39090  Biso   1.000  C
  H128     1.0000 0.08370  0.80010  0.39540  Biso   1.000  H
  C172     1.0000 0.12241  0.77990  0.36523  Biso   1.000  C
  H129     1.0000 0.12690  0.80030  0.35230  Biso   1.000  H
  O127     1.0000 0.17251  0.77781  0.31463  Biso   1.000  O
  O128     1.0000 0.19020  0.84860  0.24540  Biso   1.000  O
  O129     1.0000 0.21011  0.84095  0.25505  Biso   1.000  O
  C173     1.0000 0.60889  0.25303  0.98266  Biso   1.000  C
  H130     1.0000 0.62860  0.25430  0.96810  Biso   1.000  H
  C174     1.0000 0.57357  0.25077  0.97169  Biso   1.000  C
  C175     1.0000 0.59672  0.27977  0.89090  Biso   1.000  C
  H131     1.0000 0.58370  0.30010  0.89540  Biso   1.000  H
  C176     1.0000 0.62241  0.27990  0.86523  Biso   1.000  C
  H132     1.0000 0.62690  0.30030  0.85230  Biso   1.000  H
  O130     1.0000 0.67251  0.27781  0.81463  Biso   1.000  O
  O131     1.0000 0.69020  0.34860  0.74540  Biso   1.000  O
  O132     1.0000 0.71011  0.34095  0.75505  Biso   1.000  O
  C177     1.0000 0.89111  0.24697  0.48266  Biso   1.000  C
  H133     1.0000 0.87140  0.24570  0.46810  Biso   1.000  H
  C178     1.0000 0.92643  0.24923  0.47169  Biso   1.000  C
  C179     1.0000 0.90328  0.22023  0.39090  Biso   1.000  C
  H134     1.0000 0.91630  0.19990  0.39540  Biso   1.000  H
  C180     1.0000 0.87759  0.22010  0.36523  Biso   1.000  C
  H135     1.0000 0.87310  0.19970  0.35230  Biso   1.000  H
  O133     1.0000 0.82749  0.22219  0.31463  Biso   1.000  O
  O134     1.0000 0.80980  0.15140  0.24540  Biso   1.000  O
  O135     1.0000 0.78989  0.15905  0.25505  Biso   1.000  O
  C181     1.0000 0.39111  0.74697  0.98266  Biso   1.000  C
  H136     1.0000 0.37140  0.74570  0.96810  Biso   1.000  H
  C182     1.0000 0.42643  0.74923  0.97169  Biso   1.000  C
  C183     1.0000 0.40328  0.72023  0.89090  Biso   1.000  C
  H137     1.0000 0.41630  0.69990  0.89540  Biso   1.000  H
  C184     1.0000 0.37759  0.72010  0.86523  Biso   1.000  C
  H138     1.0000 0.37310  0.69970  0.85230  Biso   1.000  H
  O136     1.0000 0.32749  0.72219  0.81463  Biso   1.000  O
  O137     1.0000 0.30980  0.65140  0.74540  Biso   1.000  O
  O138     1.0000 0.28989  0.65905  0.75505  Biso   1.000  O
  C185     1.0000 0.89111  0.75303  0.51734  Biso   1.000  C
  H139     1.0000 0.87140  0.75430  0.53190  Biso   1.000  H
  C186     1.0000 0.92643  0.75077  0.52831  Biso   1.000  C
  C187     1.0000 0.90328  0.77977  0.60910  Biso   1.000  C
  H140     1.0000 0.91630  0.80010  0.60460  Biso   1.000  H
  C188     1.0000 0.87759  0.77990  0.63477  Biso   1.000  C
  H141     1.0000 0.87310  0.80030  0.64770  Biso   1.000  H
  O139     1.0000 0.82749  0.77781  0.68537  Biso   1.000  O
  O140     1.0000 0.80980  0.84860  0.75460  Biso   1.000  O
  O141     1.0000 0.78989  0.84095  0.74495  Biso   1.000  O
  C189     1.0000 0.39111  0.25303  0.01734  Biso   1.000  C
  H142     1.0000 0.37140  0.25430  0.03190  Biso   1.000  H
  C190     1.0000 0.42643  0.25077  0.02831  Biso   1.000  C
  C191     1.0000 0.40328  0.27977  0.10910  Biso   1.000  C
  H143     1.0000 0.41630  0.30010  0.10460  Biso   1.000  H
  C192     1.0000 0.37759  0.27990  0.13477  Biso   1.000  C
  H144     1.0000 0.37310  0.30030  0.14770  Biso   1.000  H
  O142     1.0000 0.32749  0.27781  0.18537  Biso   1.000  O
  O143     1.0000 0.30980  0.34860  0.25460  Biso   1.000  O
  O144     1.0000 0.28989  0.34095  0.24495  Biso   1.000  O
  C193     1.0000 0.51734  0.75303  0.89111  Biso   1.000  C
  H145     1.0000 0.53190  0.75430  0.87140  Biso   1.000  H
  C194     1.0000 0.52831  0.75077  0.92643  Biso   1.000  C
  C195     1.0000 0.60910  0.77977  0.90328  Biso   1.000  C
  H146     1.0000 0.60460  0.80010  0.91630  Biso   1.000  H
  C196     1.0000 0.63477  0.77990  0.87759  Biso   1.000  C
  H147     1.0000 0.64770  0.80030  0.87310  Biso   1.000  H
  O145     1.0000 0.68537  0.77781  0.82749  Biso   1.000  O
  O146     1.0000 0.75460  0.84860  0.80980  Biso   1.000  O
  O147     1.0000 0.74495  0.84095  0.78989  Biso   1.000  O
  C197     1.0000 0.01734  0.25303  0.39111  Biso   1.000  C
  H148     1.0000 0.03190  0.25430  0.37140  Biso   1.000  H
  C198     1.0000 0.02831  0.25077  0.42643  Biso   1.000  C
  C199     1.0000 0.10910  0.27977  0.40328  Biso   1.000  C
  H149     1.0000 0.10460  0.30010  0.41630  Biso   1.000  H
  C200     1.0000 0.13477  0.27990  0.37759  Biso   1.000  C
  H150     1.0000 0.14770  0.30030  0.37310  Biso   1.000  H
  O148     1.0000 0.18537  0.27781  0.32749  Biso   1.000  O
  O149     1.0000 0.25460  0.34860  0.30980  Biso   1.000  O
  O150     1.0000 0.24495  0.34095  0.28989  Biso   1.000  O
  C201     1.0000 0.48266  0.24697  0.89111  Biso   1.000  C
  H151     1.0000 0.46810  0.24570  0.87140  Biso   1.000  H
  C202     1.0000 0.47169  0.24923  0.92643  Biso   1.000  C
  C203     1.0000 0.39090  0.22023  0.90328  Biso   1.000  C
  H152     1.0000 0.39540  0.19990  0.91630  Biso   1.000  H
  C204     1.0000 0.36523  0.22010  0.87759  Biso   1.000  C
  H153     1.0000 0.35230  0.19970  0.87310  Biso   1.000  H
  O151     1.0000 0.31463  0.22219  0.82749  Biso   1.000  O
  O152     1.0000 0.24540  0.15140  0.80980  Biso   1.000  O
  O153     1.0000 0.25505  0.15905  0.78989  Biso   1.000  O
  C205     1.0000 0.98266  0.74697  0.39111  Biso   1.000  C
  H154     1.0000 0.96810  0.74570  0.37140  Biso   1.000  H
  C206     1.0000 0.97169  0.74923  0.42643  Biso   1.000  C
  C207     1.0000 0.89090  0.72023  0.40328  Biso   1.000  C
  H155     1.0000 0.89540  0.69990  0.41630  Biso   1.000  H
  C208     1.0000 0.86523  0.72010  0.37759  Biso   1.000  C
  H156     1.0000 0.85230  0.69970  0.37310  Biso   1.000  H
  O154     1.0000 0.81463  0.72219  0.32749  Biso   1.000  O
  O155     1.0000 0.74540  0.65140  0.30980  Biso   1.000  O
  O156     1.0000 0.75505  0.65905  0.28989  Biso   1.000  O
  C209     1.0000 0.48266  0.75303  0.10889  Biso   1.000  C
  H157     1.0000 0.46810  0.75430  0.12860  Biso   1.000  H
  C210     1.0000 0.47169  0.75077  0.07357  Biso   1.000  C
  C211     1.0000 0.39090  0.77977  0.09672  Biso   1.000  C
  H158     1.0000 0.39540  0.80010  0.08370  Biso   1.000  H
  C212     1.0000 0.36523  0.77990  0.12241  Biso   1.000  C
  H159     1.0000 0.35230  0.80030  0.12690  Biso   1.000  H
  O157     1.0000 0.31463  0.77781  0.17251  Biso   1.000  O
  O158     1.0000 0.24540  0.84860  0.19020  Biso   1.000  O
  O159     1.0000 0.25505  0.84095  0.21011  Biso   1.000  O
  C213     1.0000 0.98266  0.25303  0.60889  Biso   1.000  C
  H160     1.0000 0.96810  0.25430  0.62860  Biso   1.000  H
  C214     1.0000 0.97169  0.25077  0.57357  Biso   1.000  C
  C215     1.0000 0.89090  0.27977  0.59672  Biso   1.000  C
  H161     1.0000 0.89540  0.30010  0.58370  Biso   1.000  H
  C216     1.0000 0.86523  0.27990  0.62241  Biso   1.000  C
  H162     1.0000 0.85230  0.30030  0.62690  Biso   1.000  H
  O160     1.0000 0.81463  0.27781  0.67251  Biso   1.000  O
  O161     1.0000 0.74540  0.34860  0.69020  Biso   1.000  O
  O162     1.0000 0.75505  0.34095  0.71011  Biso   1.000  O
  C217     1.0000 0.51734  0.24697  0.10889  Biso   1.000  C
  H163     1.0000 0.53190  0.24570  0.12860  Biso   1.000  H
  C218     1.0000 0.52831  0.24923  0.07357  Biso   1.000  C
  C219     1.0000 0.60910  0.22023  0.09672  Biso   1.000  C
  H164     1.0000 0.60460  0.19990  0.08370  Biso   1.000  H
  C220     1.0000 0.63477  0.22010  0.12241  Biso   1.000  C
  H165     1.0000 0.64770  0.19970  0.12690  Biso   1.000  H
  O163     1.0000 0.68537  0.22219  0.17251  Biso   1.000  O
  O164     1.0000 0.75460  0.15140  0.19020  Biso   1.000  O
  O165     1.0000 0.74495  0.15905  0.21011  Biso   1.000  O
  C221     1.0000 0.01734  0.74697  0.60889  Biso   1.000  C
  H166     1.0000 0.03190  0.74570  0.62860  Biso   1.000  H
  C222     1.0000 0.02831  0.74923  0.57357  Biso   1.000  C
  C223     1.0000 0.10910  0.72023  0.59672  Biso   1.000  C
  H167     1.0000 0.10460  0.69990  0.58370  Biso   1.000  H
  C224     1.0000 0.13477  0.72010  0.62241  Biso   1.000  C
  H168     1.0000 0.14770  0.69970  0.62690  Biso   1.000  H
  O166     1.0000 0.18537  0.72219  0.67251  Biso   1.000  O
  O167     1.0000 0.25460  0.65140  0.69020  Biso   1.000  O
  O168     1.0000 0.24495  0.65905  0.71011  Biso   1.000  O
  C225     1.0000 0.89111  0.51734  0.75303  Biso   1.000  C
  H169     1.0000 0.87140  0.53190  0.75430  Biso   1.000  H
  C226     1.0000 0.92643  0.52831  0.75077  Biso   1.000  C
  C227     1.0000 0.90328  0.60910  0.77977  Biso   1.000  C
  H170     1.0000 0.91630  0.60460  0.80010  Biso   1.000  H
  C228     1.0000 0.87759  0.63477  0.77990  Biso   1.000  C
  H171     1.0000 0.87310  0.64770  0.80030  Biso   1.000  H
  O169     1.0000 0.82749  0.68537  0.77781  Biso   1.000  O
  O170     1.0000 0.80980  0.75460  0.84860  Biso   1.000  O
  O171     1.0000 0.78989  0.74495  0.84095  Biso   1.000  O
  C229     1.0000 0.39111  0.01734  0.25303  Biso   1.000  C
  H172     1.0000 0.37140  0.03190  0.25430  Biso   1.000  H
  C230     1.0000 0.42643  0.02831  0.25077  Biso   1.000  C
  C231     1.0000 0.40328  0.10910  0.27977  Biso   1.000  C
  H173     1.0000 0.41630  0.10460  0.30010  Biso   1.000  H
  C232     1.0000 0.37759  0.13477  0.27990  Biso   1.000  C
  H174     1.0000 0.37310  0.14770  0.30030  Biso   1.000  H
  O172     1.0000 0.32749  0.18537  0.27781  Biso   1.000  O
  O173     1.0000 0.30980  0.25460  0.34860  Biso   1.000  O
  O174     1.0000 0.28989  0.24495  0.34095  Biso   1.000  O
  C233     1.0000 0.89111  0.48266  0.24697  Biso   1.000  C
  H175     1.0000 0.87140  0.46810  0.24570  Biso   1.000  H
  C234     1.0000 0.92643  0.47169  0.24923  Biso   1.000  C
  C235     1.0000 0.90328  0.39090  0.22023  Biso   1.000  C
  H176     1.0000 0.91630  0.39540  0.19990  Biso   1.000  H
  C236     1.0000 0.87759  0.36523  0.22010  Biso   1.000  C
  H177     1.0000 0.87310  0.35230  0.19970  Biso   1.000  H
  O175     1.0000 0.82749  0.31463  0.22219  Biso   1.000  O
  O176     1.0000 0.80980  0.24540  0.15140  Biso   1.000  O
  O177     1.0000 0.78989  0.25505  0.15905  Biso   1.000  O
  C237     1.0000 0.39111  0.98266  0.74697  Biso   1.000  C
  H178     1.0000 0.37140  0.96810  0.74570  Biso   1.000  H
  C238     1.0000 0.42643  0.97169  0.74923  Biso   1.000  C
  C239     1.0000 0.40328  0.89090  0.72023  Biso   1.000  C
  H179     1.0000 0.41630  0.89540  0.69990  Biso   1.000  H
  C240     1.0000 0.37759  0.86523  0.72010  Biso   1.000  C
  H180     1.0000 0.37310  0.85230  0.69970  Biso   1.000  H
  O178     1.0000 0.32749  0.81463  0.72219  Biso   1.000  O
  O179     1.0000 0.30980  0.74540  0.65140  Biso   1.000  O
  O180     1.0000 0.28989  0.75505  0.65905  Biso   1.000  O
  C241     1.0000 0.10889  0.48266  0.75303  Biso   1.000  C
  H181     1.0000 0.12860  0.46810  0.75430  Biso   1.000  H
  C242     1.0000 0.07357  0.47169  0.75077  Biso   1.000  C
  C243     1.0000 0.09672  0.39090  0.77977  Biso   1.000  C
  H182     1.0000 0.08370  0.39540  0.80010  Biso   1.000  H
  C244     1.0000 0.12241  0.36523  0.77990  Biso   1.000  C
  H183     1.0000 0.12690  0.35230  0.80030  Biso   1.000  H
  O181     1.0000 0.17251  0.31463  0.77781  Biso   1.000  O
  O182     1.0000 0.19020  0.24540  0.84860  Biso   1.000  O
  O183     1.0000 0.21011  0.25505  0.84095  Biso   1.000  O
  C245     1.0000 0.60889  0.98266  0.25303  Biso   1.000  C
  H184     1.0000 0.62860  0.96810  0.25430  Biso   1.000  H
  C246     1.0000 0.57357  0.97169  0.25077  Biso   1.000  C
  C247     1.0000 0.59672  0.89090  0.27977  Biso   1.000  C
  H185     1.0000 0.58370  0.89540  0.30010  Biso   1.000  H
  C248     1.0000 0.62241  0.86523  0.27990  Biso   1.000  C
  H186     1.0000 0.62690  0.85230  0.30030  Biso   1.000  H
  O184     1.0000 0.67251  0.81463  0.27781  Biso   1.000  O
  O185     1.0000 0.69020  0.74540  0.34860  Biso   1.000  O
  O186     1.0000 0.71011  0.75505  0.34095  Biso   1.000  O
  C249     1.0000 0.10889  0.51734  0.24697  Biso   1.000  C
  H187     1.0000 0.12860  0.53190  0.24570  Biso   1.000  H
  C250     1.0000 0.07357  0.52831  0.24923  Biso   1.000  C
  C251     1.0000 0.09672  0.60910  0.22023  Biso   1.000  C
  H188     1.0000 0.08370  0.60460  0.19990  Biso   1.000  H
  C252     1.0000 0.12241  0.63477  0.22010  Biso   1.000  C
  H189     1.0000 0.12690  0.64770  0.19970  Biso   1.000  H
  O187     1.0000 0.17251  0.68537  0.22219  Biso   1.000  O
  O188     1.0000 0.19020  0.75460  0.15140  Biso   1.000  O
  O189     1.0000 0.21011  0.74495  0.15905  Biso   1.000  O
  C253     1.0000 0.60889  0.01734  0.74697  Biso   1.000  C
  H190     1.0000 0.62860  0.03190  0.74570  Biso   1.000  H
  C254     1.0000 0.57357  0.02831  0.74923  Biso   1.000  C
  C255     1.0000 0.59672  0.10910  0.72023  Biso   1.000  C
  H191     1.0000 0.58370  0.10460  0.69990  Biso   1.000  H
  C256     1.0000 0.62241  0.13477  0.72010  Biso   1.000  C
  H192     1.0000 0.62690  0.14770  0.69970  Biso   1.000  H
  O190     1.0000 0.67251  0.18537  0.72219  Biso   1.000  O
  O191     1.0000 0.69020  0.25460  0.65140  Biso   1.000  O
  O192     1.0000 0.71011  0.24495  0.65905  Biso   1.000  O
  C257     1.0000 0.75303  0.89111  0.51734  Biso   1.000  C
  H193     1.0000 0.75430  0.87140  0.53190  Biso   1.000  H
  C258     1.0000 0.75077  0.92643  0.52831  Biso   1.000  C
  C259     1.0000 0.77977  0.90328  0.60910  Biso   1.000  C
  H194     1.0000 0.80010  0.91630  0.60460  Biso   1.000  H
  C260     1.0000 0.77990  0.87759  0.63477  Biso   1.000  C
  H195     1.0000 0.80030  0.87310  0.64770  Biso   1.000  H
  O193     1.0000 0.77781  0.82749  0.68537  Biso   1.000  O
  O194     1.0000 0.84860  0.80980  0.75460  Biso   1.000  O
  O195     1.0000 0.84095  0.78989  0.74495  Biso   1.000  O
  C261     1.0000 0.25303  0.39111  0.01734  Biso   1.000  C
  H196     1.0000 0.25430  0.37140  0.03190  Biso   1.000  H
  C262     1.0000 0.25077  0.42643  0.02831  Biso   1.000  C
  C263     1.0000 0.27977  0.40328  0.10910  Biso   1.000  C
  H197     1.0000 0.30010  0.41630  0.10460  Biso   1.000  H
  C264     1.0000 0.27990  0.37759  0.13477  Biso   1.000  C
  H198     1.0000 0.30030  0.37310  0.14770  Biso   1.000  H
  O196     1.0000 0.27781  0.32749  0.18537  Biso   1.000  O
  O197     1.0000 0.34860  0.30980  0.25460  Biso   1.000  O
  O198     1.0000 0.34095  0.28989  0.24495  Biso   1.000  O
  C265     1.0000 0.24697  0.89111  0.48266  Biso   1.000  C
  H199     1.0000 0.24570  0.87140  0.46810  Biso   1.000  H
  C266     1.0000 0.24923  0.92643  0.47169  Biso   1.000  C
  C267     1.0000 0.22023  0.90328  0.39090  Biso   1.000  C
  H200     1.0000 0.19990  0.91630  0.39540  Biso   1.000  H
  C268     1.0000 0.22010  0.87759  0.36523  Biso   1.000  C
  H201     1.0000 0.19970  0.87310  0.35230  Biso   1.000  H
  O199     1.0000 0.22219  0.82749  0.31463  Biso   1.000  O
  O200     1.0000 0.15140  0.80980  0.24540  Biso   1.000  O
  O201     1.0000 0.15905  0.78989  0.25505  Biso   1.000  O
  C269     1.0000 0.74697  0.39111  0.98266  Biso   1.000  C
  H202     1.0000 0.74570  0.37140  0.96810  Biso   1.000  H
  C270     1.0000 0.74923  0.42643  0.97169  Biso   1.000  C
  C271     1.0000 0.72023  0.40328  0.89090  Biso   1.000  C
  H203     1.0000 0.69990  0.41630  0.89540  Biso   1.000  H
  C272     1.0000 0.72010  0.37759  0.86523  Biso   1.000  C
  H204     1.0000 0.69970  0.37310  0.85230  Biso   1.000  H
  O202     1.0000 0.72219  0.32749  0.81463  Biso   1.000  O
  O203     1.0000 0.65140  0.30980  0.74540  Biso   1.000  O
  O204     1.0000 0.65905  0.28989  0.75505  Biso   1.000  O
  C273     1.0000 0.75303  0.10889  0.48266  Biso   1.000  C
  H205     1.0000 0.75430  0.12860  0.46810  Biso   1.000  H
  C274     1.0000 0.75077  0.07357  0.47169  Biso   1.000  C
  C275     1.0000 0.77977  0.09672  0.39090  Biso   1.000  C
  H206     1.0000 0.80010  0.08370  0.39540  Biso   1.000  H
  C276     1.0000 0.77990  0.12241  0.36523  Biso   1.000  C
  H207     1.0000 0.80030  0.12690  0.35230  Biso   1.000  H
  O205     1.0000 0.77781  0.17251  0.31463  Biso   1.000  O
  O206     1.0000 0.84860  0.19020  0.24540  Biso   1.000  O
  O207     1.0000 0.84095  0.21011  0.25505  Biso   1.000  O
  C277     1.0000 0.25303  0.60889  0.98266  Biso   1.000  C
  H208     1.0000 0.25430  0.62860  0.96810  Biso   1.000  H
  C278     1.0000 0.25077  0.57357  0.97169  Biso   1.000  C
  C279     1.0000 0.27977  0.59672  0.89090  Biso   1.000  C
  H209     1.0000 0.30010  0.58370  0.89540  Biso   1.000  H
  C280     1.0000 0.27990  0.62241  0.86523  Biso   1.000  C
  H210     1.0000 0.30030  0.62690  0.85230  Biso   1.000  H
  O208     1.0000 0.27781  0.67251  0.81463  Biso   1.000  O
  O209     1.0000 0.34860  0.69020  0.74540  Biso   1.000  O
  O210     1.0000 0.34095  0.71011  0.75505  Biso   1.000  O
  C281     1.0000 0.24697  0.10889  0.51734  Biso   1.000  C
  H211     1.0000 0.24570  0.12860  0.53190  Biso   1.000  H
  C282     1.0000 0.24923  0.07357  0.52831  Biso   1.000  C
  C283     1.0000 0.22023  0.09672  0.60910  Biso   1.000  C
  H212     1.0000 0.19990  0.08370  0.60460  Biso   1.000  H
  C284     1.0000 0.22010  0.12241  0.63477  Biso   1.000  C
  H213     1.0000 0.19970  0.12690  0.64770  Biso   1.000  H
  O211     1.0000 0.22219  0.17251  0.68537  Biso   1.000  O
  O212     1.0000 0.15140  0.19020  0.75460  Biso   1.000  O
  O213     1.0000 0.15905  0.21011  0.74495  Biso   1.000  O
  C285     1.0000 0.74697  0.60889  0.01734  Biso   1.000  C
  H214     1.0000 0.74570  0.62860  0.03190  Biso   1.000  H
  C286     1.0000 0.74923  0.57357  0.02831  Biso   1.000  C
  C287     1.0000 0.72023  0.59672  0.10910  Biso   1.000  C
  H215     1.0000 0.69990  0.58370  0.10460  Biso   1.000  H
  C288     1.0000 0.72010  0.62241  0.13477  Biso   1.000  C
  H216     1.0000 0.69970  0.62690  0.14770  Biso   1.000  H
  O214     1.0000 0.72219  0.67251  0.18537  Biso   1.000  O
  O215     1.0000 0.65140  0.69020  0.25460  Biso   1.000  O
  O216     1.0000 0.65905  0.71011  0.24495  Biso   1.000  O
  C289     1.0000 0.75303  0.51734  0.10889  Biso   1.000  C
  H217     1.0000 0.75430  0.53190  0.12860  Biso   1.000  H
  C290     1.0000 0.75077  0.52831  0.07357  Biso   1.000  C
  C291     1.0000 0.77977  0.60910  0.09672  Biso   1.000  C
  H218     1.0000 0.80010  0.60460  0.08370  Biso   1.000  H
  C292     1.0000 0.77990  0.63477  0.12241  Biso   1.000  C
  H219     1.0000 0.80030  0.64770  0.12690  Biso   1.000  H
  O217     1.0000 0.77781  0.68537  0.17251  Biso   1.000  O
  O218     1.0000 0.84860  0.75460  0.19020  Biso   1.000  O
  O219     1.0000 0.84095  0.74495  0.21011  Biso   1.000  O
  C293     1.0000 0.25303  0.01734  0.60889  Biso   1.000  C
  H220     1.0000 0.25430  0.03190  0.62860  Biso   1.000  H
  C294     1.0000 0.25077  0.02831  0.57357  Biso   1.000  C
  C295     1.0000 0.27977  0.10910  0.59672  Biso   1.000  C
  H221     1.0000 0.30010  0.10460  0.58370  Biso   1.000  H
  C296     1.0000 0.27990  0.13477  0.62241  Biso   1.000  C
  H222     1.0000 0.30030  0.14770  0.62690  Biso   1.000  H
  O220     1.0000 0.27781  0.18537  0.67251  Biso   1.000  O
  O221     1.0000 0.34860  0.25460  0.69020  Biso   1.000  O
  O222     1.0000 0.34095  0.24495  0.71011  Biso   1.000  O
  C297     1.0000 0.24697  0.48266  0.10889  Biso   1.000  C
  H223     1.0000 0.24570  0.46810  0.12860  Biso   1.000  H
  C298     1.0000 0.24923  0.47169  0.07357  Biso   1.000  C
  C299     1.0000 0.22023  0.39090  0.09672  Biso   1.000  C
  H224     1.0000 0.19990  0.39540  0.08370  Biso   1.000  H
  C300     1.0000 0.22010  0.36523  0.12241  Biso   1.000  C
  H225     1.0000 0.19970  0.35230  0.12690  Biso   1.000  H
  O223     1.0000 0.22219  0.31463  0.17251  Biso   1.000  O
  O224     1.0000 0.15140  0.24540  0.19020  Biso   1.000  O
  O225     1.0000 0.15905  0.25505  0.21011  Biso   1.000  O
  C301     1.0000 0.74697  0.98266  0.60889  Biso   1.000  C
  H226     1.0000 0.74570  0.96810  0.62860  Biso   1.000  H
  C302     1.0000 0.74923  0.97169  0.57357  Biso   1.000  C
  C303     1.0000 0.72023  0.89090  0.59672  Biso   1.000  C
  H227     1.0000 0.69990  0.89540  0.58370  Biso   1.000  H
  C304     1.0000 0.72010  0.86523  0.62241  Biso   1.000  C
  H228     1.0000 0.69970  0.85230  0.62690  Biso   1.000  H
  O226     1.0000 0.72219  0.81463  0.67251  Biso   1.000  O
  O227     1.0000 0.65140  0.74540  0.69020  Biso   1.000  O
  O228     1.0000 0.65905  0.75505  0.71011  Biso   1.000  O
  C305     1.0000 0.75303  0.48266  0.89111  Biso   1.000  C
  H229     1.0000 0.75430  0.46810  0.87140  Biso   1.000  H
  C306     1.0000 0.75077  0.47169  0.92643  Biso   1.000  C
  C307     1.0000 0.77977  0.39090  0.90328  Biso   1.000  C
  H230     1.0000 0.80010  0.39540  0.91630  Biso   1.000  H
  C308     1.0000 0.77990  0.36523  0.87759  Biso   1.000  C
  H231     1.0000 0.80030  0.35230  0.87310  Biso   1.000  H
  O229     1.0000 0.77781  0.31463  0.82749  Biso   1.000  O
  O230     1.0000 0.84860  0.24540  0.80980  Biso   1.000  O
  O231     1.0000 0.84095  0.25505  0.78989  Biso   1.000  O
  C309     1.0000 0.25303  0.98266  0.39111  Biso   1.000  C
  H232     1.0000 0.25430  0.96810  0.37140  Biso   1.000  H
  C310     1.0000 0.25077  0.97169  0.42643  Biso   1.000  C
  C311     1.0000 0.27977  0.89090  0.40328  Biso   1.000  C
  H233     1.0000 0.30010  0.89540  0.41630  Biso   1.000  H
  C312     1.0000 0.27990  0.86523  0.37759  Biso   1.000  C
  H234     1.0000 0.30030  0.85230  0.37310  Biso   1.000  H
  O232     1.0000 0.27781  0.81463  0.32749  Biso   1.000  O
  O233     1.0000 0.34860  0.74540  0.30980  Biso   1.000  O
  O234     1.0000 0.34095  0.75505  0.28989  Biso   1.000  O
  C313     1.0000 0.24697  0.51734  0.89111  Biso   1.000  C
  H235     1.0000 0.24570  0.53190  0.87140  Biso   1.000  H
  C314     1.0000 0.24923  0.52831  0.92643  Biso   1.000  C
  C315     1.0000 0.22023  0.60910  0.90328  Biso   1.000  C
  H236     1.0000 0.19990  0.60460  0.91630  Biso   1.000  H
  C316     1.0000 0.22010  0.63477  0.87759  Biso   1.000  C
  H237     1.0000 0.19970  0.64770  0.87310  Biso   1.000  H
  O235     1.0000 0.22219  0.68537  0.82749  Biso   1.000  O
  O236     1.0000 0.15140  0.75460  0.80980  Biso   1.000  O
  O237     1.0000 0.15905  0.74495  0.78989  Biso   1.000  O
  C317     1.0000 0.74697  0.01734  0.39111  Biso   1.000  C
  H238     1.0000 0.74570  0.03190  0.37140  Biso   1.000  H
  C318     1.0000 0.74923  0.02831  0.42643  Biso   1.000  C
  C319     1.0000 0.72023  0.10910  0.40328  Biso   1.000  C
  H239     1.0000 0.69990  0.10460  0.41630  Biso   1.000  H
  C320     1.0000 0.72010  0.13477  0.37759  Biso   1.000  C
  H240     1.0000 0.69970  0.14770  0.37310  Biso   1.000  H
  O238     1.0000 0.72219  0.18537  0.32749  Biso   1.000  O
  O239     1.0000 0.65140  0.25460  0.30980  Biso   1.000  O
  O240     1.0000 0.65905  0.24495  0.28989  Biso   1.000  O
  C321     1.0000 0.51734  0.89111  0.24697  Biso   1.000  C
  H241     1.0000 0.53190  0.87140  0.24570  Biso   1.000  H
  C322     1.0000 0.52831  0.92643  0.24923  Biso   1.000  C
  C323     1.0000 0.60910  0.90328  0.22023  Biso   1.000  C
  H242     1.0000 0.60460  0.91630  0.19990  Biso   1.000  H
  C324     1.0000 0.63477  0.87759  0.22010  Biso   1.000  C
  H243     1.0000 0.64770  0.87310  0.19970  Biso   1.000  H
  O241     1.0000 0.68537  0.82749  0.22219  Biso   1.000  O
  O242     1.0000 0.75460  0.80980  0.15140  Biso   1.000  O
  O243     1.0000 0.74495  0.78989  0.15905  Biso   1.000  O
  C325     1.0000 0.01734  0.39111  0.74697  Biso   1.000  C
  H244     1.0000 0.03190  0.37140  0.74570  Biso   1.000  H
  C326     1.0000 0.02831  0.42643  0.74923  Biso   1.000  C
  C327     1.0000 0.10910  0.40328  0.72023  Biso   1.000  C
  H245     1.0000 0.10460  0.41630  0.69990  Biso   1.000  H
  C328     1.0000 0.13477  0.37759  0.72010  Biso   1.000  C
  H246     1.0000 0.14770  0.37310  0.69970  Biso   1.000  H
  O244     1.0000 0.18537  0.32749  0.72219  Biso   1.000  O
  O245     1.0000 0.25460  0.30980  0.65140  Biso   1.000  O
  O246     1.0000 0.24495  0.28989  0.65905  Biso   1.000  O
  C329     1.0000 0.48266  0.89111  0.75303  Biso   1.000  C
  H247     1.0000 0.46810  0.87140  0.75430  Biso   1.000  H
  C330     1.0000 0.47169  0.92643  0.75077  Biso   1.000  C
  C331     1.0000 0.39090  0.90328  0.77977  Biso   1.000  C
  H248     1.0000 0.39540  0.91630  0.80010  Biso   1.000  H
  C332     1.0000 0.36523  0.87759  0.77990  Biso   1.000  C
  H249     1.0000 0.35230  0.87310  0.80030  Biso   1.000  H
  O247     1.0000 0.31463  0.82749  0.77781  Biso   1.000  O
  O248     1.0000 0.24540  0.80980  0.84860  Biso   1.000  O
  O249     1.0000 0.25505  0.78989  0.84095  Biso   1.000  O
  C333     1.0000 0.98266  0.39111  0.25303  Biso   1.000  C
  H250     1.0000 0.96810  0.37140  0.25430  Biso   1.000  H
  C334     1.0000 0.97169  0.42643  0.25077  Biso   1.000  C
  C335     1.0000 0.89090  0.40328  0.27977  Biso   1.000  C
  H251     1.0000 0.89540  0.41630  0.30010  Biso   1.000  H
  C336     1.0000 0.86523  0.37759  0.27990  Biso   1.000  C
  H252     1.0000 0.85230  0.37310  0.30030  Biso   1.000  H
  O250     1.0000 0.81463  0.32749  0.27781  Biso   1.000  O
  O251     1.0000 0.74540  0.30980  0.34860  Biso   1.000  O
  O252     1.0000 0.75505  0.28989  0.34095  Biso   1.000  O
  C337     1.0000 0.48266  0.10889  0.24697  Biso   1.000  C
  H253     1.0000 0.46810  0.12860  0.24570  Biso   1.000  H
  C338     1.0000 0.47169  0.07357  0.24923  Biso   1.000  C
  C339     1.0000 0.39090  0.09672  0.22023  Biso   1.000  C
  H254     1.0000 0.39540  0.08370  0.19990  Biso   1.000  H
  C340     1.0000 0.36523  0.12241  0.22010  Biso   1.000  C
  H255     1.0000 0.35230  0.12690  0.19970  Biso   1.000  H
  O253     1.0000 0.31463  0.17251  0.22219  Biso   1.000  O
  O254     1.0000 0.24540  0.19020  0.15140  Biso   1.000  O
  O255     1.0000 0.25505  0.21011  0.15905  Biso   1.000  O
  C341     1.0000 0.98266  0.60889  0.74697  Biso   1.000  C
  H256     1.0000 0.96810  0.62860  0.74570  Biso   1.000  H
  C342     1.0000 0.97169  0.57357  0.74923  Biso   1.000  C
  C343     1.0000 0.89090  0.59672  0.72023  Biso   1.000  C
  H257     1.0000 0.89540  0.58370  0.69990  Biso   1.000  H
  C344     1.0000 0.86523  0.62241  0.72010  Biso   1.000  C
  H258     1.0000 0.85230  0.62690  0.69970  Biso   1.000  H
  O256     1.0000 0.81463  0.67251  0.72219  Biso   1.000  O
  O257     1.0000 0.74540  0.69020  0.65140  Biso   1.000  O
  O258     1.0000 0.75505  0.71011  0.65905  Biso   1.000  O
  C345     1.0000 0.51734  0.10889  0.75303  Biso   1.000  C
  H259     1.0000 0.53190  0.12860  0.75430  Biso   1.000  H
  C346     1.0000 0.52831  0.07357  0.75077  Biso   1.000  C
  C347     1.0000 0.60910  0.09672  0.77977  Biso   1.000  C
  H260     1.0000 0.60460  0.08370  0.80010  Biso   1.000  H
  C348     1.0000 0.63477  0.12241  0.77990  Biso   1.000  C
  H261     1.0000 0.64770  0.12690  0.80030  Biso   1.000  H
  O259     1.0000 0.68537  0.17251  0.77781  Biso   1.000  O
  O260     1.0000 0.75460  0.19020  0.84860  Biso   1.000  O
  O261     1.0000 0.74495  0.21011  0.84095  Biso   1.000  O
  C349     1.0000 0.01734  0.60889  0.25303  Biso   1.000  C
  H262     1.0000 0.03190  0.62860  0.25430  Biso   1.000  H
  C350     1.0000 0.02831  0.57357  0.25077  Biso   1.000  C
  C351     1.0000 0.10910  0.59672  0.27977  Biso   1.000  C
  H263     1.0000 0.10460  0.58370  0.30010  Biso   1.000  H
  C352     1.0000 0.13477  0.62241  0.27990  Biso   1.000  C
  H264     1.0000 0.14770  0.62690  0.30030  Biso   1.000  H
  O262     1.0000 0.18537  0.67251  0.27781  Biso   1.000  O
  O263     1.0000 0.25460  0.69020  0.34860  Biso   1.000  O
  O264     1.0000 0.24495  0.71011  0.34095  Biso   1.000  O
  C353     1.0000 0.89111  0.75303  0.48266  Biso   1.000  C
  H265     1.0000 0.87140  0.75430  0.46810  Biso   1.000  H
  C354     1.0000 0.92643  0.75077  0.47169  Biso   1.000  C
  C355     1.0000 0.90328  0.77977  0.39090  Biso   1.000  C
  H266     1.0000 0.91630  0.80010  0.39540  Biso   1.000  H
  C356     1.0000 0.87759  0.77990  0.36523  Biso   1.000  C
  H267     1.0000 0.87310  0.80030  0.35230  Biso   1.000  H
  O265     1.0000 0.82749  0.77781  0.31463  Biso   1.000  O
  O266     1.0000 0.80980  0.84860  0.24540  Biso   1.000  O
  O267     1.0000 0.78989  0.84095  0.25505  Biso   1.000  O
  C357     1.0000 0.39111  0.25303  0.98266  Biso   1.000  C
  H268     1.0000 0.37140  0.25430  0.96810  Biso   1.000  H
  C358     1.0000 0.42643  0.25077  0.97169  Biso   1.000  C
  C359     1.0000 0.40328  0.27977  0.89090  Biso   1.000  C
  H269     1.0000 0.41630  0.30010  0.89540  Biso   1.000  H
  C360     1.0000 0.37759  0.27990  0.86523  Biso   1.000  C
  H270     1.0000 0.37310  0.30030  0.85230  Biso   1.000  H
  O268     1.0000 0.32749  0.27781  0.81463  Biso   1.000  O
  O269     1.0000 0.30980  0.34860  0.74540  Biso   1.000  O
  O270     1.0000 0.28989  0.34095  0.75505  Biso   1.000  O
  C361     1.0000 0.89111  0.24697  0.51734  Biso   1.000  C
  H271     1.0000 0.87140  0.24570  0.53190  Biso   1.000  H
  C362     1.0000 0.92643  0.24923  0.52831  Biso   1.000  C
  C363     1.0000 0.90328  0.22023  0.60910  Biso   1.000  C
  H272     1.0000 0.91630  0.19990  0.60460  Biso   1.000  H
  C364     1.0000 0.87759  0.22010  0.63477  Biso   1.000  C
  H273     1.0000 0.87310  0.19970  0.64770  Biso   1.000  H
  O271     1.0000 0.82749  0.22219  0.68537  Biso   1.000  O
  O272     1.0000 0.80980  0.15140  0.75460  Biso   1.000  O
  O273     1.0000 0.78989  0.15905  0.74495  Biso   1.000  O
  C365     1.0000 0.39111  0.74697  0.01734  Biso   1.000  C
  H274     1.0000 0.37140  0.74570  0.03190  Biso   1.000  H
  C366     1.0000 0.42643  0.74923  0.02831  Biso   1.000  C
  C367     1.0000 0.40328  0.72023  0.10910  Biso   1.000  C
  H275     1.0000 0.41630  0.69990  0.10460  Biso   1.000  H
  C368     1.0000 0.37759  0.72010  0.13477  Biso   1.000  C
  H276     1.0000 0.37310  0.69970  0.14770  Biso   1.000  H
  O274     1.0000 0.32749  0.72219  0.18537  Biso   1.000  O
  O275     1.0000 0.30980  0.65140  0.25460  Biso   1.000  O
  O276     1.0000 0.28989  0.65905  0.24495  Biso   1.000  O
  C369     1.0000 0.10889  0.75303  0.51734  Biso   1.000  C
  H277     1.0000 0.12860  0.75430  0.53190  Biso   1.000  H
  C370     1.0000 0.07357  0.75077  0.52831  Biso   1.000  C
  C371     1.0000 0.09672  0.77977  0.60910  Biso   1.000  C
  H278     1.0000 0.08370  0.80010  0.60460  Biso   1.000  H
  C372     1.0000 0.12241  0.77990  0.63477  Biso   1.000  C
  H279     1.0000 0.12690  0.80030  0.64770  Biso   1.000  H
  O277     1.0000 0.17251  0.77781  0.68537  Biso   1.000  O
  O278     1.0000 0.19020  0.84860  0.75460  Biso   1.000  O
  O279     1.0000 0.21011  0.84095  0.74495  Biso   1.000  O
  C373     1.0000 0.60889  0.25303  0.01734  Biso   1.000  C
  H280     1.0000 0.62860  0.25430  0.03190  Biso   1.000  H
  C374     1.0000 0.57357  0.25077  0.02831  Biso   1.000  C
  C375     1.0000 0.59672  0.27977  0.10910  Biso   1.000  C
  H281     1.0000 0.58370  0.30010  0.10460  Biso   1.000  H
  C376     1.0000 0.62241  0.27990  0.13477  Biso   1.000  C
  H282     1.0000 0.62690  0.30030  0.14770  Biso   1.000  H
  O280     1.0000 0.67251  0.27781  0.18537  Biso   1.000  O
  O281     1.0000 0.69020  0.34860  0.25460  Biso   1.000  O
  O282     1.0000 0.71011  0.34095  0.24495  Biso   1.000  O
  C377     1.0000 0.10889  0.24697  0.48266  Biso   1.000  C
  H283     1.0000 0.12860  0.24570  0.46810  Biso   1.000  H
  C378     1.0000 0.07357  0.24923  0.47169  Biso   1.000  C
  C379     1.0000 0.09672  0.22023  0.39090  Biso   1.000  C
  H284     1.0000 0.08370  0.19990  0.39540  Biso   1.000  H
  C380     1.0000 0.12241  0.22010  0.36523  Biso   1.000  C
  H285     1.0000 0.12690  0.19970  0.35230  Biso   1.000  H
  O283     1.0000 0.17251  0.22219  0.31463  Biso   1.000  O
  O284     1.0000 0.19020  0.15140  0.24540  Biso   1.000  O
  O285     1.0000 0.21011  0.15905  0.25505  Biso   1.000  O
  C381     1.0000 0.60889  0.74697  0.98266  Biso   1.000  C
  H286     1.0000 0.62860  0.74570  0.96810  Biso   1.000  H
  C382     1.0000 0.57357  0.74923  0.97169  Biso   1.000  C
  C383     1.0000 0.59672  0.72023  0.89090  Biso   1.000  C
  H287     1.0000 0.58370  0.69990  0.89540  Biso   1.000  H
  C384     1.0000 0.62241  0.72010  0.86523  Biso   1.000  C
  H288     1.0000 0.62690  0.69970  0.85230  Biso   1.000  H
  O286     1.0000 0.67251  0.72219  0.81463  Biso   1.000  O
  O287     1.0000 0.69020  0.65140  0.74540  Biso   1.000  O
  O288     1.0000 0.71011  0.65905  0.75505  Biso   1.000  O
  O289     1.0000 0.21738  0.21738  0.21738  Biso   1.000  O
  O290     1.0000 0.71738  0.71738  0.71738  Biso   1.000  O
  O291     1.0000 0.78262  0.78262  0.21738  Biso   1.000  O
  O292     1.0000 0.28262  0.28262  0.71738  Biso   1.000  O
  O293     1.0000 0.78262  0.21738  0.78262  Biso   1.000  O
  O294     1.0000 0.28262  0.71738  0.28262  Biso   1.000  O
  O295     1.0000 0.21738  0.78262  0.78262  Biso   1.000  O
  O296     1.0000 0.71738  0.28262  0.28262  Biso   1.000  O
  O297     1.0000 0.21738  0.21738  0.78262  Biso   1.000  O
  O298     1.0000 0.71738  0.71738  0.28262  Biso   1.000  O
  O299     1.0000 0.78262  0.78262  0.78262  Biso   1.000  O
  O300     1.0000 0.28262  0.28262  0.28262  Biso   1.000  O
  O301     1.0000 0.21738  0.78262  0.21738  Biso   1.000  O
  O302     1.0000 0.71738  0.28262  0.71738  Biso   1.000  O
  O303     1.0000 0.78262  0.21738  0.21738  Biso   1.000  O
  O304     1.0000 0.28262  0.71738  0.71738  Biso   1.000  O
  O305     1.0000 0.28976  0.23492  0.23492  Biso   1.000  O
  Zr1      1.0000 0.26622  0.20159  0.20159  Biso   1.000  Zr
  Zr2      1.0000 0.27685  0.21277  0.21277  Biso   1.000  Zr
  O306     1.0000 0.31625  0.24552  0.24552  Biso   1.000  O
  O307     1.0000 0.78976  0.73492  0.73492  Biso   1.000  O
  Zr3      1.0000 0.76622  0.70159  0.70159  Biso   1.000  Zr
  Zr4      1.0000 0.77685  0.71277  0.71277  Biso   1.000  Zr
  O308     1.0000 0.81625  0.74552  0.74552  Biso   1.000  O
  O309     1.0000 0.71024  0.76508  0.23492  Biso   1.000  O
  Zr5      1.0000 0.73378  0.79841  0.20159  Biso   1.000  Zr
  Zr6      1.0000 0.72315  0.78723  0.21277  Biso   1.000  Zr
  O310     1.0000 0.68375  0.75448  0.24552  Biso   1.000  O
  O311     1.0000 0.21024  0.26508  0.73492  Biso   1.000  O
  Zr7      1.0000 0.23378  0.29841  0.70159  Biso   1.000  Zr
  Zr8      1.0000 0.22315  0.28723  0.71277  Biso   1.000  Zr
  O312     1.0000 0.18375  0.25448  0.74552  Biso   1.000  O
  O313     1.0000 0.71024  0.23492  0.76508  Biso   1.000  O
  Zr9      1.0000 0.73378  0.20159  0.79841  Biso   1.000  Zr
  Zr10     1.0000 0.72315  0.21277  0.78723  Biso   1.000  Zr
  O314     1.0000 0.68375  0.24552  0.75448  Biso   1.000  O
  O315     1.0000 0.21024  0.73492  0.26508  Biso   1.000  O
  Zr11     1.0000 0.23378  0.70159  0.29841  Biso   1.000  Zr
  Zr12     1.0000 0.22315  0.71277  0.28723  Biso   1.000  Zr
  O316     1.0000 0.18375  0.74552  0.25448  Biso   1.000  O
  O317     1.0000 0.28976  0.76508  0.76508  Biso   1.000  O
  Zr13     1.0000 0.26622  0.79841  0.79841  Biso   1.000  Zr
  Zr14     1.0000 0.27685  0.78723  0.78723  Biso   1.000  Zr
  O318     1.0000 0.31625  0.75448  0.75448  Biso   1.000  O
  O319     1.0000 0.78976  0.26508  0.26508  Biso   1.000  O
  Zr15     1.0000 0.76622  0.29841  0.29841  Biso   1.000  Zr
  Zr16     1.0000 0.77685  0.28723  0.28723  Biso   1.000  Zr
  O320     1.0000 0.81625  0.25448  0.25448  Biso   1.000  O
  O321     1.0000 0.23492  0.28976  0.23492  Biso   1.000  O
  Zr17     1.0000 0.20159  0.26622  0.20159  Biso   1.000  Zr
  Zr18     1.0000 0.21277  0.27685  0.21277  Biso   1.000  Zr
  O322     1.0000 0.24552  0.31625  0.24552  Biso   1.000  O
  O323     1.0000 0.73492  0.78976  0.73492  Biso   1.000  O
  Zr19     1.0000 0.70159  0.76622  0.70159  Biso   1.000  Zr
  Zr20     1.0000 0.71277  0.77685  0.71277  Biso   1.000  Zr
  O324     1.0000 0.74552  0.81625  0.74552  Biso   1.000  O
  O325     1.0000 0.23492  0.71024  0.76508  Biso   1.000  O
  Zr21     1.0000 0.20159  0.73378  0.79841  Biso   1.000  Zr
  Zr22     1.0000 0.21277  0.72315  0.78723  Biso   1.000  Zr
  O326     1.0000 0.24552  0.68375  0.75448  Biso   1.000  O
  O327     1.0000 0.73492  0.21024  0.26508  Biso   1.000  O
  Zr23     1.0000 0.70159  0.23378  0.29841  Biso   1.000  Zr
  Zr24     1.0000 0.71277  0.22315  0.28723  Biso   1.000  Zr
  O328     1.0000 0.74552  0.18375  0.25448  Biso   1.000  O
  O329     1.0000 0.76508  0.71024  0.23492  Biso   1.000  O
  Zr25     1.0000 0.79841  0.73378  0.20159  Biso   1.000  Zr
  Zr26     1.0000 0.78723  0.72315  0.21277  Biso   1.000  Zr
  O330     1.0000 0.75448  0.68375  0.24552  Biso   1.000  O
  O331     1.0000 0.26508  0.21024  0.73492  Biso   1.000  O
  Zr27     1.0000 0.29841  0.23378  0.70159  Biso   1.000  Zr
  Zr28     1.0000 0.28723  0.22315  0.71277  Biso   1.000  Zr
  O332     1.0000 0.25448  0.18375  0.74552  Biso   1.000  O
  O333     1.0000 0.76508  0.28976  0.76508  Biso   1.000  O
  Zr29     1.0000 0.79841  0.26622  0.79841  Biso   1.000  Zr
  Zr30     1.0000 0.78723  0.27685  0.78723  Biso   1.000  Zr
  O334     1.0000 0.75448  0.31625  0.75448  Biso   1.000  O
  O335     1.0000 0.26508  0.78976  0.26508  Biso   1.000  O
  Zr31     1.0000 0.29841  0.76622  0.29841  Biso   1.000  Zr
  Zr32     1.0000 0.28723  0.77685  0.28723  Biso   1.000  Zr
  O336     1.0000 0.25448  0.81625  0.25448  Biso   1.000  O
  O337     1.0000 0.23492  0.23492  0.28976  Biso   1.000  O
  Zr33     1.0000 0.20159  0.20159  0.26622  Biso   1.000  Zr
  Zr34     1.0000 0.21277  0.21277  0.27685  Biso   1.000  Zr
  O338     1.0000 0.24552  0.24552  0.31625  Biso   1.000  O
  O339     1.0000 0.73492  0.73492  0.78976  Biso   1.000  O
  Zr35     1.0000 0.70159  0.70159  0.76622  Biso   1.000  Zr
  Zr36     1.0000 0.71277  0.71277  0.77685  Biso   1.000  Zr
  O340     1.0000 0.74552  0.74552  0.81625  Biso   1.000  O
  O341     1.0000 0.76508  0.23492  0.71024  Biso   1.000  O
  Zr37     1.0000 0.79841  0.20159  0.73378  Biso   1.000  Zr
  Zr38     1.0000 0.78723  0.21277  0.72315  Biso   1.000  Zr
  O342     1.0000 0.75448  0.24552  0.68375  Biso   1.000  O
  O343     1.0000 0.26508  0.73492  0.21024  Biso   1.000  O
  Zr39     1.0000 0.29841  0.70159  0.23378  Biso   1.000  Zr
  Zr40     1.0000 0.28723  0.71277  0.22315  Biso   1.000  Zr
  O344     1.0000 0.25448  0.74552  0.18375  Biso   1.000  O
  O345     1.0000 0.23492  0.76508  0.71024  Biso   1.000  O
  Zr41     1.0000 0.20159  0.79841  0.73378  Biso   1.000  Zr
  Zr42     1.0000 0.21277  0.78723  0.72315  Biso   1.000  Zr
  O346     1.0000 0.24552  0.75448  0.68375  Biso   1.000  O
  O347     1.0000 0.73492  0.26508  0.21024  Biso   1.000  O
  Zr43     1.0000 0.70159  0.29841  0.23378  Biso   1.000  Zr
  Zr44     1.0000 0.71277  0.28723  0.22315  Biso   1.000  Zr
  O348     1.0000 0.74552  0.25448  0.18375  Biso   1.000  O
  O349     1.0000 0.76508  0.76508  0.28976  Biso   1.000  O
  Zr45     1.0000 0.79841  0.79841  0.26622  Biso   1.000  Zr
  Zr46     1.0000 0.78723  0.78723  0.27685  Biso   1.000  Zr
  O350     1.0000 0.75448  0.75448  0.31625  Biso   1.000  O
  O351     1.0000 0.26508  0.26508  0.78976  Biso   1.000  O
  Zr47     1.0000 0.29841  0.29841  0.76622  Biso   1.000  Zr
  Zr48     1.0000 0.28723  0.28723  0.77685  Biso   1.000  Zr
  O352     1.0000 0.25448  0.25448  0.81625  Biso   1.000  O
  O353     1.0000 0.23492  0.28976  0.76508  Biso   1.000  O
  Zr49     1.0000 0.20159  0.26622  0.79841  Biso   1.000  Zr
  Zr50     1.0000 0.21277  0.27685  0.78723  Biso   1.000  Zr
  O354     1.0000 0.24552  0.31625  0.75448  Biso   1.000  O
  O355     1.0000 0.73492  0.78976  0.26508  Biso   1.000  O
  Zr51     1.0000 0.70159  0.76622  0.29841  Biso   1.000  Zr
  Zr52     1.0000 0.71277  0.77685  0.28723  Biso   1.000  Zr
  O356     1.0000 0.74552  0.81625  0.25448  Biso   1.000  O
  O357     1.0000 0.76508  0.71024  0.76508  Biso   1.000  O
  Zr53     1.0000 0.79841  0.73378  0.79841  Biso   1.000  Zr
  Zr54     1.0000 0.78723  0.72315  0.78723  Biso   1.000  Zr
  O358     1.0000 0.75448  0.68375  0.75448  Biso   1.000  O
  O359     1.0000 0.26508  0.21024  0.26508  Biso   1.000  O
  Zr55     1.0000 0.29841  0.23378  0.29841  Biso   1.000  Zr
  Zr56     1.0000 0.28723  0.22315  0.28723  Biso   1.000  Zr
  O360     1.0000 0.25448  0.18375  0.25448  Biso   1.000  O
  O361     1.0000 0.23492  0.71024  0.23492  Biso   1.000  O
  Zr57     1.0000 0.20159  0.73378  0.20159  Biso   1.000  Zr
  Zr58     1.0000 0.21277  0.72315  0.21277  Biso   1.000  Zr
  O362     1.0000 0.24552  0.68375  0.24552  Biso   1.000  O
  O363     1.0000 0.73492  0.21024  0.73492  Biso   1.000  O
  Zr59     1.0000 0.70159  0.23378  0.70159  Biso   1.000  Zr
  Zr60     1.0000 0.71277  0.22315  0.71277  Biso   1.000  Zr
  O364     1.0000 0.74552  0.18375  0.74552  Biso   1.000  O
  O365     1.0000 0.76508  0.28976  0.23492  Biso   1.000  O
  Zr61     1.0000 0.79841  0.26622  0.20159  Biso   1.000  Zr
  Zr62     1.0000 0.78723  0.27685  0.21277  Biso   1.000  Zr
  O366     1.0000 0.75448  0.31625  0.24552  Biso   1.000  O
  O367     1.0000 0.26508  0.78976  0.73492  Biso   1.000  O
  Zr63     1.0000 0.29841  0.76622  0.70159  Biso   1.000  Zr
  Zr64     1.0000 0.28723  0.77685  0.71277  Biso   1.000  Zr
  O368     1.0000 0.25448  0.81625  0.74552  Biso   1.000  O
  O369     1.0000 0.28976  0.23492  0.76508  Biso   1.000  O
  Zr65     1.0000 0.26622  0.20159  0.79841  Biso   1.000  Zr
  Zr66     1.0000 0.27685  0.21277  0.78723  Biso   1.000  Zr
  O370     1.0000 0.31625  0.24552  0.75448  Biso   1.000  O
  O371     1.0000 0.78976  0.73492  0.26508  Biso   1.000  O
  Zr67     1.0000 0.76622  0.70159  0.29841  Biso   1.000  Zr
  Zr68     1.0000 0.77685  0.71277  0.28723  Biso   1.000  Zr
  O372     1.0000 0.81625  0.74552  0.25448  Biso   1.000  O
  O373     1.0000 0.71024  0.23492  0.23492  Biso   1.000  O
  Zr69     1.0000 0.73378  0.20159  0.20159  Biso   1.000  Zr
  Zr70     1.0000 0.72315  0.21277  0.21277  Biso   1.000  Zr
  O374     1.0000 0.68375  0.24552  0.24552  Biso   1.000  O
  O375     1.0000 0.21024  0.73492  0.73492  Biso   1.000  O
  Zr71     1.0000 0.23378  0.70159  0.70159  Biso   1.000  Zr
  Zr72     1.0000 0.22315  0.71277  0.71277  Biso   1.000  Zr
  O376     1.0000 0.18375  0.74552  0.74552  Biso   1.000  O
  O377     1.0000 0.71024  0.76508  0.76508  Biso   1.000  O
  Zr73     1.0000 0.73378  0.79841  0.79841  Biso   1.000  Zr
  Zr74     1.0000 0.72315  0.78723  0.78723  Biso   1.000  Zr
  O378     1.0000 0.68375  0.75448  0.75448  Biso   1.000  O
  O379     1.0000 0.21024  0.26508  0.26508  Biso   1.000  O
  Zr75     1.0000 0.23378  0.29841  0.29841  Biso   1.000  Zr
  Zr76     1.0000 0.22315  0.28723  0.28723  Biso   1.000  Zr
  O380     1.0000 0.18375  0.25448  0.25448  Biso   1.000  O
  O381     1.0000 0.28976  0.76508  0.23492  Biso   1.000  O
  Zr77     1.0000 0.26622  0.79841  0.20159  Biso   1.000  Zr
  Zr78     1.0000 0.27685  0.78723  0.21277  Biso   1.000  Zr
  O382     1.0000 0.31625  0.75448  0.24552  Biso   1.000  O
  O383     1.0000 0.78976  0.26508  0.73492  Biso   1.000  O
  Zr79     1.0000 0.76622  0.29841  0.70159  Biso   1.000  Zr
  Zr80     1.0000 0.77685  0.28723  0.71277  Biso   1.000  Zr
  O384     1.0000 0.81625  0.25448  0.74552  Biso   1.000  O
  O385     1.0000 0.23492  0.23492  0.71024  Biso   1.000  O
  Zr81     1.0000 0.20159  0.20159  0.73378  Biso   1.000  Zr
  Zr82     1.0000 0.21277  0.21277  0.72315  Biso   1.000  Zr
  O386     1.0000 0.24552  0.24552  0.68375  Biso   1.000  O
  O387     1.0000 0.73492  0.73492  0.21024  Biso   1.000  O
  Zr83     1.0000 0.70159  0.70159  0.23378  Biso   1.000  Zr
  Zr84     1.0000 0.71277  0.71277  0.22315  Biso   1.000  Zr
  O388     1.0000 0.74552  0.74552  0.18375  Biso   1.000  O
  O389     1.0000 0.23492  0.76508  0.28976  Biso   1.000  O
  Zr85     1.0000 0.20159  0.79841  0.26622  Biso   1.000  Zr
  Zr86     1.0000 0.21277  0.78723  0.27685  Biso   1.000  Zr
  O390     1.0000 0.24552  0.75448  0.31625  Biso   1.000  O
  O391     1.0000 0.73492  0.26508  0.78976  Biso   1.000  O
  Zr87     1.0000 0.70159  0.29841  0.76622  Biso   1.000  Zr
  Zr88     1.0000 0.71277  0.28723  0.77685  Biso   1.000  Zr
  O392     1.0000 0.74552  0.25448  0.81625  Biso   1.000  O
  O393     1.0000 0.76508  0.23492  0.28976  Biso   1.000  O
  Zr89     1.0000 0.79841  0.20159  0.26622  Biso   1.000  Zr
  Zr90     1.0000 0.78723  0.21277  0.27685  Biso   1.000  Zr
  O394     1.0000 0.75448  0.24552  0.31625  Biso   1.000  O
  O395     1.0000 0.26508  0.73492  0.78976  Biso   1.000  O
  Zr91     1.0000 0.29841  0.70159  0.76622  Biso   1.000  Zr
  Zr92     1.0000 0.28723  0.71277  0.77685  Biso   1.000  Zr
  O396     1.0000 0.25448  0.74552  0.81625  Biso   1.000  O
  O397     1.0000 0.76508  0.76508  0.71024  Biso   1.000  O
  Zr93     1.0000 0.79841  0.79841  0.73378  Biso   1.000  Zr
  Zr94     1.0000 0.78723  0.78723  0.72315  Biso   1.000  Zr
  O398     1.0000 0.75448  0.75448  0.68375  Biso   1.000  O
  O399     1.0000 0.26508  0.26508  0.21024  Biso   1.000  O
  Zr95     1.0000 0.29841  0.29841  0.23378  Biso   1.000  Zr
  Zr96     1.0000 0.28723  0.28723  0.22315  Biso   1.000  Zr
  O400     1.0000 0.25448  0.25448  0.18375  Biso   1.000  O
  N1       1.0000 0.50000  0.25017  0.05216  Biso   1.000  N
  N2       1.0000 0.00000  0.75017  0.55216  Biso   1.000  N
  N3       1.0000 0.50000  0.74983  0.05216  Biso   1.000  N
  N4       1.0000 0.00000  0.24983  0.55216  Biso   1.000  N
  N5       1.0000 0.50000  0.25017  0.94784  Biso   1.000  N
  N6       1.0000 0.00000  0.75017  0.44784  Biso   1.000  N
  N7       1.0000 0.50000  0.74983  0.94784  Biso   1.000  N
  N8       1.0000 0.00000  0.24983  0.44784  Biso   1.000  N
  N9       1.0000 0.05216  0.50000  0.25017  Biso   1.000  N
  N10      1.0000 0.55216  0.00000  0.75017  Biso   1.000  N
  N11      1.0000 0.05216  0.50000  0.74983  Biso   1.000  N
  N12      1.0000 0.55216  0.00000  0.24983  Biso   1.000  N
  N13      1.0000 0.94784  0.50000  0.25017  Biso   1.000  N
  N14      1.0000 0.44784  0.00000  0.75017  Biso   1.000  N
  N15      1.0000 0.94784  0.50000  0.74983  Biso   1.000  N
  N16      1.0000 0.44784  0.00000  0.24983  Biso   1.000  N
  N17      1.0000 0.25017  0.05216  0.50000  Biso   1.000  N
  N18      1.0000 0.75017  0.55216  0.00000  Biso   1.000  N
  N19      1.0000 0.74983  0.05216  0.50000  Biso   1.000  N
  N20      1.0000 0.24983  0.55216  0.00000  Biso   1.000  N
  N21      1.0000 0.25017  0.94784  0.50000  Biso   1.000  N
  N22      1.0000 0.75017  0.44784  0.00000  Biso   1.000  N
  N23      1.0000 0.74983  0.94784  0.50000  Biso   1.000  N
  N24      1.0000 0.24983  0.44784  0.00000  Biso   1.000  N
  N25      1.0000 0.25017  0.50000  0.94784  Biso   1.000  N
  N26      1.0000 0.75017  0.00000  0.44784  Biso   1.000  N
  N27      1.0000 0.74983  0.50000  0.94784  Biso   1.000  N
  N28      1.0000 0.24983  0.00000  0.44784  Biso   1.000  N
  N29      1.0000 0.25017  0.50000  0.05216  Biso   1.000  N
  N30      1.0000 0.75017  0.00000  0.55216  Biso   1.000  N
  N31      1.0000 0.74983  0.50000  0.05216  Biso   1.000  N
  N32      1.0000 0.24983  0.00000  0.55216  Biso   1.000  N
  N33      1.0000 0.50000  0.05216  0.74983  Biso   1.000  N
  N34      1.0000 0.00000  0.55216  0.24983  Biso   1.000  N
  N35      1.0000 0.50000  0.05216  0.25017  Biso   1.000  N
  N36      1.0000 0.00000  0.55216  0.75017  Biso   1.000  N
  N37      1.0000 0.50000  0.94784  0.74983  Biso   1.000  N
  N38      1.0000 0.00000  0.44784  0.24983  Biso   1.000  N
  N39      1.0000 0.50000  0.94784  0.25017  Biso   1.000  N
  N40      1.0000 0.00000  0.44784  0.75017  Biso   1.000  N
  N41      1.0000 0.05216  0.25017  0.50000  Biso   1.000  N
  N42      1.0000 0.55216  0.75017  0.00000  Biso   1.000  N
  N43      1.0000 0.05216  0.74983  0.50000  Biso   1.000  N
  N44      1.0000 0.55216  0.24983  0.00000  Biso   1.000  N
  N45      1.0000 0.94784  0.25017  0.50000  Biso   1.000  N
  N46      1.0000 0.44784  0.75017  0.00000  Biso   1.000  N
  N47      1.0000 0.94784  0.74983  0.50000  Biso   1.000  N
  N48      1.0000 0.44784  0.24983  0.00000  Biso   1.000  N
  C385     1.0000 0.40964  0.25000  0.09036  Biso   1.000  C
  C386     1.0000 0.35887  0.25000  0.14113  Biso   1.000  C
  C387     1.0000 0.43720  0.25000  0.06280  Biso   1.000  C
  C388     1.0000 0.33142  0.25000  0.16858  Biso   1.000  C
  C389     1.0000 0.59036  0.75000  0.09036  Biso   1.000  C
  C390     1.0000 0.64113  0.75000  0.14113  Biso   1.000  C
  C391     1.0000 0.56280  0.75000  0.06280  Biso   1.000  C
  C392     1.0000 0.66858  0.75000  0.16858  Biso   1.000  C
  C393     1.0000 0.59036  0.25000  0.90964  Biso   1.000  C
  C394     1.0000 0.64113  0.25000  0.85887  Biso   1.000  C
  C395     1.0000 0.56280  0.25000  0.93720  Biso   1.000  C
  C396     1.0000 0.66858  0.25000  0.83142  Biso   1.000  C
  C397     1.0000 0.40964  0.75000  0.90964  Biso   1.000  C
  C398     1.0000 0.35887  0.75000  0.85887  Biso   1.000  C
  C399     1.0000 0.43720  0.75000  0.93720  Biso   1.000  C
  C400     1.0000 0.33142  0.75000  0.83142  Biso   1.000  C
  C401     1.0000 0.09036  0.40964  0.25000  Biso   1.000  C
  C402     1.0000 0.14113  0.35887  0.25000  Biso   1.000  C
  C403     1.0000 0.06280  0.43720  0.25000  Biso   1.000  C
  C404     1.0000 0.16858  0.33142  0.25000  Biso   1.000  C
  C405     1.0000 0.09036  0.59036  0.75000  Biso   1.000  C
  C406     1.0000 0.14113  0.64113  0.75000  Biso   1.000  C
  C407     1.0000 0.06280  0.56280  0.75000  Biso   1.000  C
  C408     1.0000 0.16858  0.66858  0.75000  Biso   1.000  C
  C409     1.0000 0.90964  0.59036  0.25000  Biso   1.000  C
  C410     1.0000 0.85887  0.64113  0.25000  Biso   1.000  C
  C411     1.0000 0.93720  0.56280  0.25000  Biso   1.000  C
  C412     1.0000 0.83142  0.66858  0.25000  Biso   1.000  C
  C413     1.0000 0.90964  0.40964  0.75000  Biso   1.000  C
  C414     1.0000 0.85887  0.35887  0.75000  Biso   1.000  C
  C415     1.0000 0.93720  0.43720  0.75000  Biso   1.000  C
  C416     1.0000 0.83142  0.33142  0.75000  Biso   1.000  C
  C417     1.0000 0.25000  0.09036  0.40964  Biso   1.000  C
  C418     1.0000 0.25000  0.14113  0.35887  Biso   1.000  C
  C419     1.0000 0.25000  0.06280  0.43720  Biso   1.000  C
  C420     1.0000 0.25000  0.16858  0.33142  Biso   1.000  C
  C421     1.0000 0.75000  0.09036  0.59036  Biso   1.000  C
  C422     1.0000 0.75000  0.14113  0.64113  Biso   1.000  C
  C423     1.0000 0.75000  0.06280  0.56280  Biso   1.000  C
  C424     1.0000 0.75000  0.16858  0.66858  Biso   1.000  C
  C425     1.0000 0.25000  0.90964  0.59036  Biso   1.000  C
  C426     1.0000 0.25000  0.85887  0.64113  Biso   1.000  C
  C427     1.0000 0.25000  0.93720  0.56280  Biso   1.000  C
  C428     1.0000 0.25000  0.83142  0.66858  Biso   1.000  C
  C429     1.0000 0.75000  0.90964  0.40964  Biso   1.000  C
  C430     1.0000 0.75000  0.85887  0.35887  Biso   1.000  C
  C431     1.0000 0.75000  0.93720  0.43720  Biso   1.000  C
  C432     1.0000 0.75000  0.83142  0.33142  Biso   1.000  C
  C433     1.0000 0.25000  0.40964  0.90964  Biso   1.000  C
  C434     1.0000 0.25000  0.35887  0.85887  Biso   1.000  C
  C435     1.0000 0.25000  0.43720  0.93720  Biso   1.000  C
  C436     1.0000 0.25000  0.33142  0.83142  Biso   1.000  C
  C437     1.0000 0.75000  0.59036  0.90964  Biso   1.000  C
  C438     1.0000 0.75000  0.64113  0.85887  Biso   1.000  C
  C439     1.0000 0.75000  0.56280  0.93720  Biso   1.000  C
  C440     1.0000 0.75000  0.66858  0.83142  Biso   1.000  C
  C441     1.0000 0.25000  0.59036  0.09036  Biso   1.000  C
  C442     1.0000 0.25000  0.64113  0.14113  Biso   1.000  C
  C443     1.0000 0.25000  0.56280  0.06280  Biso   1.000  C
  C444     1.0000 0.25000  0.66858  0.16858  Biso   1.000  C
  C445     1.0000 0.75000  0.40964  0.09036  Biso   1.000  C
  C446     1.0000 0.75000  0.35887  0.14113  Biso   1.000  C
  C447     1.0000 0.75000  0.43720  0.06280  Biso   1.000  C
  C448     1.0000 0.75000  0.33142  0.16858  Biso   1.000  C
  C449     1.0000 0.40964  0.09036  0.75000  Biso   1.000  C
  C450     1.0000 0.35887  0.14113  0.75000  Biso   1.000  C
  C451     1.0000 0.43720  0.06280  0.75000  Biso   1.000  C
  C452     1.0000 0.33142  0.16858  0.75000  Biso   1.000  C
  C453     1.0000 0.59036  0.09036  0.25000  Biso   1.000  C
  C454     1.0000 0.64113  0.14113  0.25000  Biso   1.000  C
  C455     1.0000 0.56280  0.06280  0.25000  Biso   1.000  C
  C456     1.0000 0.66858  0.16858  0.25000  Biso   1.000  C
  C457     1.0000 0.59036  0.90964  0.75000  Biso   1.000  C
  C458     1.0000 0.64113  0.85887  0.75000  Biso   1.000  C
  C459     1.0000 0.56280  0.93720  0.75000  Biso   1.000  C
  C460     1.0000 0.66858  0.83142  0.75000  Biso   1.000  C
  C461     1.0000 0.40964  0.90964  0.25000  Biso   1.000  C
  C462     1.0000 0.35887  0.85887  0.25000  Biso   1.000  C
  C463     1.0000 0.43720  0.93720  0.25000  Biso   1.000  C
  C464     1.0000 0.33142  0.83142  0.25000  Biso   1.000  C
  C465     1.0000 0.09036  0.25000  0.59036  Biso   1.000  C
  C466     1.0000 0.14113  0.25000  0.64113  Biso   1.000  C
  C467     1.0000 0.06280  0.25000  0.56280  Biso   1.000  C
  C468     1.0000 0.16858  0.25000  0.66858  Biso   1.000  C
  C469     1.0000 0.09036  0.75000  0.40964  Biso   1.000  C
  C470     1.0000 0.14113  0.75000  0.35887  Biso   1.000  C
  C471     1.0000 0.06280  0.75000  0.43720  Biso   1.000  C
  C472     1.0000 0.16858  0.75000  0.33142  Biso   1.000  C
  C473     1.0000 0.90964  0.25000  0.40964  Biso   1.000  C
  C474     1.0000 0.85887  0.25000  0.35887  Biso   1.000  C
  C475     1.0000 0.93720  0.25000  0.43720  Biso   1.000  C
  C476     1.0000 0.83142  0.25000  0.33142  Biso   1.000  C
  C477     1.0000 0.90964  0.75000  0.59036  Biso   1.000  C
  C478     1.0000 0.85887  0.75000  0.64113  Biso   1.000  C
  C479     1.0000 0.93720  0.75000  0.56280  Biso   1.000  C
  C480     1.0000 0.83142  0.75000  0.66858  Biso   1.000  C
  C481     1.0000 0.59036  0.75000  0.90964  Biso   1.000  C
  C482     1.0000 0.64113  0.75000  0.85887  Biso   1.000  C
  C483     1.0000 0.56280  0.75000  0.93720  Biso   1.000  C
  C484     1.0000 0.66858  0.75000  0.83142  Biso   1.000  C
  C485     1.0000 0.09036  0.25000  0.40964  Biso   1.000  C
  C486     1.0000 0.14113  0.25000  0.35887  Biso   1.000  C
  C487     1.0000 0.06280  0.25000  0.43720  Biso   1.000  C
  C488     1.0000 0.16858  0.25000  0.33142  Biso   1.000  C
  C489     1.0000 0.40964  0.25000  0.90964  Biso   1.000  C
  C490     1.0000 0.35887  0.25000  0.85887  Biso   1.000  C
  C491     1.0000 0.43720  0.25000  0.93720  Biso   1.000  C
  C492     1.0000 0.33142  0.25000  0.83142  Biso   1.000  C
  C493     1.0000 0.40964  0.75000  0.09036  Biso   1.000  C
  C494     1.0000 0.35887  0.75000  0.14113  Biso   1.000  C
  C495     1.0000 0.43720  0.75000  0.06280  Biso   1.000  C
  C496     1.0000 0.33142  0.75000  0.16858  Biso   1.000  C
  C497     1.0000 0.59036  0.25000  0.09036  Biso   1.000  C
  C498     1.0000 0.64113  0.25000  0.14113  Biso   1.000  C
  C499     1.0000 0.56280  0.25000  0.06280  Biso   1.000  C
  C500     1.0000 0.66858  0.25000  0.16858  Biso   1.000  C
  C501     1.0000 0.90964  0.59036  0.75000  Biso   1.000  C
  C502     1.0000 0.85887  0.64113  0.75000  Biso   1.000  C
  C503     1.0000 0.93720  0.56280  0.75000  Biso   1.000  C
  C504     1.0000 0.83142  0.66858  0.75000  Biso   1.000  C
  C505     1.0000 0.40964  0.09036  0.25000  Biso   1.000  C
  C506     1.0000 0.35887  0.14113  0.25000  Biso   1.000  C
  C507     1.0000 0.43720  0.06280  0.25000  Biso   1.000  C
  C508     1.0000 0.33142  0.16858  0.25000  Biso   1.000  C
  C509     1.0000 0.90964  0.40964  0.25000  Biso   1.000  C
  C510     1.0000 0.85887  0.35887  0.25000  Biso   1.000  C
  C511     1.0000 0.93720  0.43720  0.25000  Biso   1.000  C
  C512     1.0000 0.83142  0.33142  0.25000  Biso   1.000  C
  C513     1.0000 0.09036  0.40964  0.75000  Biso   1.000  C
  C514     1.0000 0.14113  0.35887  0.75000  Biso   1.000  C
  C515     1.0000 0.06280  0.43720  0.75000  Biso   1.000  C
  C516     1.0000 0.16858  0.33142  0.75000  Biso   1.000  C
  C517     1.0000 0.09036  0.59036  0.25000  Biso   1.000  C
  C518     1.0000 0.14113  0.64113  0.25000  Biso   1.000  C
  C519     1.0000 0.06280  0.56280  0.25000  Biso   1.000  C
  C520     1.0000 0.16858  0.66858  0.25000  Biso   1.000  C
  C521     1.0000 0.75000  0.90964  0.59036  Biso   1.000  C
  C522     1.0000 0.75000  0.85887  0.64113  Biso   1.000  C
  C523     1.0000 0.75000  0.93720  0.56280  Biso   1.000  C
  C524     1.0000 0.75000  0.83142  0.66858  Biso   1.000  C
  C525     1.0000 0.25000  0.40964  0.09036  Biso   1.000  C
  C526     1.0000 0.25000  0.35887  0.14113  Biso   1.000  C
  C527     1.0000 0.25000  0.43720  0.06280  Biso   1.000  C
  C528     1.0000 0.25000  0.33142  0.16858  Biso   1.000  C
  C529     1.0000 0.25000  0.90964  0.40964  Biso   1.000  C
  C530     1.0000 0.25000  0.85887  0.35887  Biso   1.000  C
  C531     1.0000 0.25000  0.93720  0.43720  Biso   1.000  C
  C532     1.0000 0.25000  0.83142  0.33142  Biso   1.000  C
  C533     1.0000 0.75000  0.09036  0.40964  Biso   1.000  C
  C534     1.0000 0.75000  0.14113  0.35887  Biso   1.000  C
  C535     1.0000 0.75000  0.06280  0.43720  Biso   1.000  C
  C536     1.0000 0.75000  0.16858  0.33142  Biso   1.000  C
  C537     1.0000 0.25000  0.09036  0.59036  Biso   1.000  C
  C538     1.0000 0.25000  0.14113  0.64113  Biso   1.000  C
  C539     1.0000 0.25000  0.06280  0.56280  Biso   1.000  C
  C540     1.0000 0.25000  0.16858  0.66858  Biso   1.000  C
  C541     1.0000 0.75000  0.59036  0.09036  Biso   1.000  C
  C542     1.0000 0.75000  0.64113  0.14113  Biso   1.000  C
  C543     1.0000 0.75000  0.56280  0.06280  Biso   1.000  C
  C544     1.0000 0.75000  0.66858  0.16858  Biso   1.000  C
  C545     1.0000 0.75000  0.40964  0.90964  Biso   1.000  C
  C546     1.0000 0.75000  0.35887  0.85887  Biso   1.000  C
  C547     1.0000 0.75000  0.43720  0.93720  Biso   1.000  C
  C548     1.0000 0.75000  0.33142  0.83142  Biso   1.000  C
  C549     1.0000 0.25000  0.59036  0.90964  Biso   1.000  C
  C550     1.0000 0.25000  0.64113  0.85887  Biso   1.000  C
  C551     1.0000 0.25000  0.56280  0.93720  Biso   1.000  C
  C552     1.0000 0.25000  0.66858  0.83142  Biso   1.000  C
  C553     1.0000 0.59036  0.90964  0.25000  Biso   1.000  C
  C554     1.0000 0.64113  0.85887  0.25000  Biso   1.000  C
  C555     1.0000 0.56280  0.93720  0.25000  Biso   1.000  C
  C556     1.0000 0.66858  0.83142  0.25000  Biso   1.000  C
  C557     1.0000 0.40964  0.90964  0.75000  Biso   1.000  C
  C558     1.0000 0.35887  0.85887  0.75000  Biso   1.000  C
  C559     1.0000 0.43720  0.93720  0.75000  Biso   1.000  C
  C560     1.0000 0.33142  0.83142  0.75000  Biso   1.000  C
  C561     1.0000 0.59036  0.09036  0.75000  Biso   1.000  C
  C562     1.0000 0.64113  0.14113  0.75000  Biso   1.000  C
  C563     1.0000 0.56280  0.06280  0.75000  Biso   1.000  C
  C564     1.0000 0.66858  0.16858  0.75000  Biso   1.000  C
  C565     1.0000 0.90964  0.75000  0.40964  Biso   1.000  C
  C566     1.0000 0.85887  0.75000  0.35887  Biso   1.000  C
  C567     1.0000 0.93720  0.75000  0.43720  Biso   1.000  C
  C568     1.0000 0.83142  0.75000  0.33142  Biso   1.000  C
  C569     1.0000 0.90964  0.25000  0.59036  Biso   1.000  C
  C570     1.0000 0.85887  0.25000  0.64113  Biso   1.000  C
  C571     1.0000 0.93720  0.25000  0.56280  Biso   1.000  C
  C572     1.0000 0.83142  0.25000  0.66858  Biso   1.000  C
  C573     1.0000 0.09036  0.75000  0.59036  Biso   1.000  C
  C574     1.0000 0.14113  0.75000  0.64113  Biso   1.000  C
  C575     1.0000 0.06280  0.75000  0.56280  Biso   1.000  C
  C576     1.0000 0.16858  0.75000  0.66858  Biso   1.000  C
  Fe1      1.0000 0.50000  0.26364  0.00000  Biso   1.000  Fe
  Fe2      1.0000 0.00000  0.76364  0.50000  Biso   1.000  Fe
  Fe3      1.0000 0.50000  0.73636  0.00000  Biso   1.000  Fe
  Fe4      1.0000 0.00000  0.23636  0.50000  Biso   1.000  Fe
  Fe5      1.0000 0.00000  0.50000  0.26364  Biso   1.000  Fe
  Fe6      1.0000 0.50000  0.00000  0.76364  Biso   1.000  Fe
  Fe7      1.0000 0.00000  0.50000  0.73636  Biso   1.000  Fe
  Fe8      1.0000 0.50000  0.00000  0.23636  Biso   1.000  Fe
  Fe9      1.0000 0.26364  0.00000  0.50000  Biso   1.000  Fe
  Fe10     1.0000 0.76364  0.50000  0.00000  Biso   1.000  Fe
  Fe11     1.0000 0.73636  0.00000  0.50000  Biso   1.000  Fe
  Fe12     1.0000 0.23636  0.50000  0.00000  Biso   1.000  Fe
  Fe13     1.0000 0.26364  0.50000  0.00000  Biso   1.000  Fe
  Fe14     1.0000 0.76364  0.00000  0.50000  Biso   1.000  Fe
  Fe15     1.0000 0.73636  0.50000  0.00000  Biso   1.000  Fe
  Fe16     1.0000 0.23636  0.00000  0.50000  Biso   1.000  Fe
  Fe17     1.0000 0.50000  0.00000  0.73636  Biso   1.000  Fe
  Fe18     1.0000 0.00000  0.50000  0.23636  Biso   1.000  Fe
  Fe19     1.0000 0.50000  0.00000  0.26364  Biso   1.000  Fe
  Fe20     1.0000 0.00000  0.50000  0.76364  Biso   1.000  Fe
  Fe21     1.0000 0.00000  0.26364  0.50000  Biso   1.000  Fe
  Fe22     1.0000 0.50000  0.76364  0.00000  Biso   1.000  Fe
  Fe23     1.0000 0.00000  0.73636  0.50000  Biso   1.000  Fe
  Fe24     1.0000 0.50000  0.23636  0.00000  Biso   1.000  Fe
