data_image0
_cell_length_a       42.606
_cell_length_b       42.606
_cell_length_c       42.606
_cell_angle_alpha    90
_cell_angle_beta     90
_cell_angle_gamma    90

_symmetry_space_group_name_H-M    "P 1"
_symmetry_int_tables_number       1

loop_
  _symmetry_equiv_pos_as_xyz
  'x, y, z'

loop_
  _atom_site_label
  _atom_site_occupancy
  _atom_site_fract_x
  _atom_site_fract_y
  _atom_site_fract_z
  _atom_site_thermal_displace_type
  _atom_site_B_iso_or_equiv
  _atom_site_type_symbol
  N1       1.0000 0.30716  0.17067  0.10606  Biso   1.000  N
  C1       1.0000 0.28695  0.17787  0.08351  Biso   1.000  C
  H1       1.0000 0.26930  0.16600  0.07860  Biso   1.000  H
  O1       1.0000 0.25449  0.20877  0.03293  Biso   1.000  O
  N2       1.0000 0.30716  0.67067  0.60606  Biso   1.000  N
  C2       1.0000 0.28695  0.67787  0.58351  Biso   1.000  C
  H2       1.0000 0.26930  0.66600  0.57860  Biso   1.000  H
  O2       1.0000 0.25449  0.70877  0.53293  Biso   1.000  O
  N3       1.0000 0.80716  0.17067  0.60606  Biso   1.000  N
  C3       1.0000 0.78695  0.17787  0.58351  Biso   1.000  C
  H3       1.0000 0.76930  0.16600  0.57860  Biso   1.000  H
  O3       1.0000 0.75449  0.20877  0.53293  Biso   1.000  O
  N4       1.0000 0.80716  0.67067  0.10606  Biso   1.000  N
  C4       1.0000 0.78695  0.67787  0.08351  Biso   1.000  C
  H4       1.0000 0.76930  0.66600  0.07860  Biso   1.000  H
  O4       1.0000 0.75449  0.70877  0.03293  Biso   1.000  O
  N5       1.0000 0.69284  0.82933  0.10606  Biso   1.000  N
  C5       1.0000 0.71305  0.82213  0.08351  Biso   1.000  C
  H5       1.0000 0.73070  0.83400  0.07860  Biso   1.000  H
  O5       1.0000 0.74551  0.79123  0.03293  Biso   1.000  O
  N6       1.0000 0.69284  0.32933  0.60606  Biso   1.000  N
  C6       1.0000 0.71305  0.32213  0.58351  Biso   1.000  C
  H6       1.0000 0.73070  0.33400  0.57860  Biso   1.000  H
  O6       1.0000 0.74551  0.29123  0.53293  Biso   1.000  O
  N7       1.0000 0.19284  0.82933  0.60606  Biso   1.000  N
  C7       1.0000 0.21305  0.82213  0.58351  Biso   1.000  C
  H7       1.0000 0.23070  0.83400  0.57860  Biso   1.000  H
  O7       1.0000 0.24551  0.79123  0.53293  Biso   1.000  O
  N8       1.0000 0.19284  0.32933  0.10606  Biso   1.000  N
  C8       1.0000 0.21305  0.32213  0.08351  Biso   1.000  C
  H8       1.0000 0.23070  0.33400  0.07860  Biso   1.000  H
  O8       1.0000 0.24551  0.29123  0.03293  Biso   1.000  O
  N9       1.0000 0.69284  0.17067  0.89394  Biso   1.000  N
  C9       1.0000 0.71305  0.17787  0.91649  Biso   1.000  C
  H9       1.0000 0.73070  0.16600  0.92140  Biso   1.000  H
  O9       1.0000 0.74551  0.20877  0.96707  Biso   1.000  O
  N10      1.0000 0.69284  0.67067  0.39394  Biso   1.000  N
  C10      1.0000 0.71305  0.67787  0.41649  Biso   1.000  C
  H10      1.0000 0.73070  0.66600  0.42140  Biso   1.000  H
  O10      1.0000 0.74551  0.70877  0.46707  Biso   1.000  O
  N11      1.0000 0.19284  0.17067  0.39394  Biso   1.000  N
  C11      1.0000 0.21305  0.17787  0.41649  Biso   1.000  C
  H11      1.0000 0.23070  0.16600  0.42140  Biso   1.000  H
  O11      1.0000 0.24551  0.20877  0.46707  Biso   1.000  O
  N12      1.0000 0.19284  0.67067  0.89394  Biso   1.000  N
  C12      1.0000 0.21305  0.67787  0.91649  Biso   1.000  C
  H12      1.0000 0.23070  0.66600  0.92140  Biso   1.000  H
  O12      1.0000 0.24551  0.70877  0.96707  Biso   1.000  O
  N13      1.0000 0.30716  0.82933  0.89394  Biso   1.000  N
  C13      1.0000 0.28695  0.82213  0.91649  Biso   1.000  C
  H13      1.0000 0.26930  0.83400  0.92140  Biso   1.000  H
  O13      1.0000 0.25449  0.79123  0.96707  Biso   1.000  O
  N14      1.0000 0.30716  0.32933  0.39394  Biso   1.000  N
  C14      1.0000 0.28695  0.32213  0.41649  Biso   1.000  C
  H14      1.0000 0.26930  0.33400  0.42140  Biso   1.000  H
  O14      1.0000 0.25449  0.29123  0.46707  Biso   1.000  O
  N15      1.0000 0.80716  0.82933  0.39394  Biso   1.000  N
  C15      1.0000 0.78695  0.82213  0.41649  Biso   1.000  C
  H15      1.0000 0.76930  0.83400  0.42140  Biso   1.000  H
  O15      1.0000 0.75449  0.79123  0.46707  Biso   1.000  O
  N16      1.0000 0.80716  0.32933  0.89394  Biso   1.000  N
  C16      1.0000 0.78695  0.32213  0.91649  Biso   1.000  C
  H16      1.0000 0.76930  0.33400  0.92140  Biso   1.000  H
  O16      1.0000 0.75449  0.29123  0.96707  Biso   1.000  O
  N17      1.0000 0.10606  0.30716  0.17067  Biso   1.000  N
  C17      1.0000 0.08351  0.28695  0.17787  Biso   1.000  C
  H17      1.0000 0.07860  0.26930  0.16600  Biso   1.000  H
  O17      1.0000 0.03293  0.25449  0.20877  Biso   1.000  O
  N18      1.0000 0.10606  0.80716  0.67067  Biso   1.000  N
  C18      1.0000 0.08351  0.78695  0.67787  Biso   1.000  C
  H18      1.0000 0.07860  0.76930  0.66600  Biso   1.000  H
  O18      1.0000 0.03293  0.75449  0.70877  Biso   1.000  O
  N19      1.0000 0.60606  0.30716  0.67067  Biso   1.000  N
  C19      1.0000 0.58351  0.28695  0.67787  Biso   1.000  C
  H19      1.0000 0.57860  0.26930  0.66600  Biso   1.000  H
  O19      1.0000 0.53293  0.25449  0.70877  Biso   1.000  O
  N20      1.0000 0.60606  0.80716  0.17067  Biso   1.000  N
  C20      1.0000 0.58351  0.78695  0.17787  Biso   1.000  C
  H20      1.0000 0.57860  0.76930  0.16600  Biso   1.000  H
  O20      1.0000 0.53293  0.75449  0.20877  Biso   1.000  O
  N21      1.0000 0.10606  0.69284  0.82933  Biso   1.000  N
  C21      1.0000 0.08351  0.71305  0.82213  Biso   1.000  C
  H21      1.0000 0.07860  0.73070  0.83400  Biso   1.000  H
  O21      1.0000 0.03293  0.74551  0.79123  Biso   1.000  O
  N22      1.0000 0.10606  0.19284  0.32933  Biso   1.000  N
  C22      1.0000 0.08351  0.21305  0.32213  Biso   1.000  C
  H22      1.0000 0.07860  0.23070  0.33400  Biso   1.000  H
  O22      1.0000 0.03293  0.24551  0.29123  Biso   1.000  O
  N23      1.0000 0.60606  0.69284  0.32933  Biso   1.000  N
  C23      1.0000 0.58351  0.71305  0.32213  Biso   1.000  C
  H23      1.0000 0.57860  0.73070  0.33400  Biso   1.000  H
  O23      1.0000 0.53293  0.74551  0.29123  Biso   1.000  O
  N24      1.0000 0.60606  0.19284  0.82933  Biso   1.000  N
  C24      1.0000 0.58351  0.21305  0.82213  Biso   1.000  C
  H24      1.0000 0.57860  0.23070  0.83400  Biso   1.000  H
  O24      1.0000 0.53293  0.24551  0.79123  Biso   1.000  O
  N25      1.0000 0.89394  0.69284  0.17067  Biso   1.000  N
  C25      1.0000 0.91649  0.71305  0.17787  Biso   1.000  C
  H25      1.0000 0.92140  0.73070  0.16600  Biso   1.000  H
  O25      1.0000 0.96707  0.74551  0.20877  Biso   1.000  O
  N26      1.0000 0.89394  0.19284  0.67067  Biso   1.000  N
  C26      1.0000 0.91649  0.21305  0.67787  Biso   1.000  C
  H26      1.0000 0.92140  0.23070  0.66600  Biso   1.000  H
  O26      1.0000 0.96707  0.24551  0.70877  Biso   1.000  O
  N27      1.0000 0.39394  0.69284  0.67067  Biso   1.000  N
  C27      1.0000 0.41649  0.71305  0.67787  Biso   1.000  C
  H27      1.0000 0.42140  0.73070  0.66600  Biso   1.000  H
  O27      1.0000 0.46707  0.74551  0.70877  Biso   1.000  O
  N28      1.0000 0.39394  0.19284  0.17067  Biso   1.000  N
  C28      1.0000 0.41649  0.21305  0.17787  Biso   1.000  C
  H28      1.0000 0.42140  0.23070  0.16600  Biso   1.000  H
  O28      1.0000 0.46707  0.24551  0.20877  Biso   1.000  O
  N29      1.0000 0.89394  0.30716  0.82933  Biso   1.000  N
  C29      1.0000 0.91649  0.28695  0.82213  Biso   1.000  C
  H29      1.0000 0.92140  0.26930  0.83400  Biso   1.000  H
  O29      1.0000 0.96707  0.25449  0.79123  Biso   1.000  O
  N30      1.0000 0.89394  0.80716  0.32933  Biso   1.000  N
  C30      1.0000 0.91649  0.78695  0.32213  Biso   1.000  C
  H30      1.0000 0.92140  0.76930  0.33400  Biso   1.000  H
  O30      1.0000 0.96707  0.75449  0.29123  Biso   1.000  O
  N31      1.0000 0.39394  0.30716  0.32933  Biso   1.000  N
  C31      1.0000 0.41649  0.28695  0.32213  Biso   1.000  C
  H31      1.0000 0.42140  0.26930  0.33400  Biso   1.000  H
  O31      1.0000 0.46707  0.25449  0.29123  Biso   1.000  O
  N32      1.0000 0.39394  0.80716  0.82933  Biso   1.000  N
  C32      1.0000 0.41649  0.78695  0.82213  Biso   1.000  C
  H32      1.0000 0.42140  0.76930  0.83400  Biso   1.000  H
  O32      1.0000 0.46707  0.75449  0.79123  Biso   1.000  O
  N33      1.0000 0.17067  0.10606  0.30716  Biso   1.000  N
  C33      1.0000 0.17787  0.08351  0.28695  Biso   1.000  C
  H33      1.0000 0.16600  0.07860  0.26930  Biso   1.000  H
  O33      1.0000 0.20877  0.03293  0.25449  Biso   1.000  O
  N34      1.0000 0.17067  0.60606  0.80716  Biso   1.000  N
  C34      1.0000 0.17787  0.58351  0.78695  Biso   1.000  C
  H34      1.0000 0.16600  0.57860  0.76930  Biso   1.000  H
  O34      1.0000 0.20877  0.53293  0.75449  Biso   1.000  O
  N35      1.0000 0.67067  0.10606  0.80716  Biso   1.000  N
  C35      1.0000 0.67787  0.08351  0.78695  Biso   1.000  C
  H35      1.0000 0.66600  0.07860  0.76930  Biso   1.000  H
  O35      1.0000 0.70877  0.03293  0.75449  Biso   1.000  O
  N36      1.0000 0.67067  0.60606  0.30716  Biso   1.000  N
  C36      1.0000 0.67787  0.58351  0.28695  Biso   1.000  C
  H36      1.0000 0.66600  0.57860  0.26930  Biso   1.000  H
  O36      1.0000 0.70877  0.53293  0.25449  Biso   1.000  O
  N37      1.0000 0.82933  0.10606  0.69284  Biso   1.000  N
  C37      1.0000 0.82213  0.08351  0.71305  Biso   1.000  C
  H37      1.0000 0.83400  0.07860  0.73070  Biso   1.000  H
  O37      1.0000 0.79123  0.03293  0.74551  Biso   1.000  O
  N38      1.0000 0.82933  0.60606  0.19284  Biso   1.000  N
  C38      1.0000 0.82213  0.58351  0.21305  Biso   1.000  C
  H38      1.0000 0.83400  0.57860  0.23070  Biso   1.000  H
  O38      1.0000 0.79123  0.53293  0.24551  Biso   1.000  O
  N39      1.0000 0.32933  0.10606  0.19284  Biso   1.000  N
  C39      1.0000 0.32213  0.08351  0.21305  Biso   1.000  C
  H39      1.0000 0.33400  0.07860  0.23070  Biso   1.000  H
  O39      1.0000 0.29123  0.03293  0.24551  Biso   1.000  O
  N40      1.0000 0.32933  0.60606  0.69284  Biso   1.000  N
  C40      1.0000 0.32213  0.58351  0.71305  Biso   1.000  C
  H40      1.0000 0.33400  0.57860  0.73070  Biso   1.000  H
  O40      1.0000 0.29123  0.53293  0.74551  Biso   1.000  O
  N41      1.0000 0.17067  0.89394  0.69284  Biso   1.000  N
  C41      1.0000 0.17787  0.91649  0.71305  Biso   1.000  C
  H41      1.0000 0.16600  0.92140  0.73070  Biso   1.000  H
  O41      1.0000 0.20877  0.96707  0.74551  Biso   1.000  O
  N42      1.0000 0.17067  0.39394  0.19284  Biso   1.000  N
  C42      1.0000 0.17787  0.41649  0.21305  Biso   1.000  C
  H42      1.0000 0.16600  0.42140  0.23070  Biso   1.000  H
  O42      1.0000 0.20877  0.46707  0.24551  Biso   1.000  O
  N43      1.0000 0.67067  0.89394  0.19284  Biso   1.000  N
  C43      1.0000 0.67787  0.91649  0.21305  Biso   1.000  C
  H43      1.0000 0.66600  0.92140  0.23070  Biso   1.000  H
  O43      1.0000 0.70877  0.96707  0.24551  Biso   1.000  O
  N44      1.0000 0.67067  0.39394  0.69284  Biso   1.000  N
  C44      1.0000 0.67787  0.41649  0.71305  Biso   1.000  C
  H44      1.0000 0.66600  0.42140  0.73070  Biso   1.000  H
  O44      1.0000 0.70877  0.46707  0.74551  Biso   1.000  O
  N45      1.0000 0.82933  0.89394  0.30716  Biso   1.000  N
  C45      1.0000 0.82213  0.91649  0.28695  Biso   1.000  C
  H45      1.0000 0.83400  0.92140  0.26930  Biso   1.000  H
  O45      1.0000 0.79123  0.96707  0.25449  Biso   1.000  O
  N46      1.0000 0.82933  0.39394  0.80716  Biso   1.000  N
  C46      1.0000 0.82213  0.41649  0.78695  Biso   1.000  C
  H46      1.0000 0.83400  0.42140  0.76930  Biso   1.000  H
  O46      1.0000 0.79123  0.46707  0.75449  Biso   1.000  O
  N47      1.0000 0.32933  0.89394  0.80716  Biso   1.000  N
  C47      1.0000 0.32213  0.91649  0.78695  Biso   1.000  C
  H47      1.0000 0.33400  0.92140  0.76930  Biso   1.000  H
  O47      1.0000 0.29123  0.96707  0.75449  Biso   1.000  O
  N48      1.0000 0.32933  0.39394  0.30716  Biso   1.000  N
  C48      1.0000 0.32213  0.41649  0.28695  Biso   1.000  C
  H48      1.0000 0.33400  0.42140  0.26930  Biso   1.000  H
  O48      1.0000 0.29123  0.46707  0.25449  Biso   1.000  O
  N49      1.0000 0.17067  0.30716  0.89394  Biso   1.000  N
  C49      1.0000 0.17787  0.28695  0.91649  Biso   1.000  C
  H49      1.0000 0.16600  0.26930  0.92140  Biso   1.000  H
  O49      1.0000 0.20877  0.25449  0.96707  Biso   1.000  O
  N50      1.0000 0.17067  0.80716  0.39394  Biso   1.000  N
  C50      1.0000 0.17787  0.78695  0.41649  Biso   1.000  C
  H50      1.0000 0.16600  0.76930  0.42140  Biso   1.000  H
  O50      1.0000 0.20877  0.75449  0.46707  Biso   1.000  O
  N51      1.0000 0.67067  0.30716  0.39394  Biso   1.000  N
  C51      1.0000 0.67787  0.28695  0.41649  Biso   1.000  C
  H51      1.0000 0.66600  0.26930  0.42140  Biso   1.000  H
  O51      1.0000 0.70877  0.25449  0.46707  Biso   1.000  O
  N52      1.0000 0.67067  0.80716  0.89394  Biso   1.000  N
  C52      1.0000 0.67787  0.78695  0.91649  Biso   1.000  C
  H52      1.0000 0.66600  0.76930  0.92140  Biso   1.000  H
  O52      1.0000 0.70877  0.75449  0.96707  Biso   1.000  O
  N53      1.0000 0.82933  0.69284  0.89394  Biso   1.000  N
  C53      1.0000 0.82213  0.71305  0.91649  Biso   1.000  C
  H53      1.0000 0.83400  0.73070  0.92140  Biso   1.000  H
  O53      1.0000 0.79123  0.74551  0.96707  Biso   1.000  O
  N54      1.0000 0.82933  0.19284  0.39394  Biso   1.000  N
  C54      1.0000 0.82213  0.21305  0.41649  Biso   1.000  C
  H54      1.0000 0.83400  0.23070  0.42140  Biso   1.000  H
  O54      1.0000 0.79123  0.24551  0.46707  Biso   1.000  O
  N55      1.0000 0.32933  0.69284  0.39394  Biso   1.000  N
  C55      1.0000 0.32213  0.71305  0.41649  Biso   1.000  C
  H55      1.0000 0.33400  0.73070  0.42140  Biso   1.000  H
  O55      1.0000 0.29123  0.74551  0.46707  Biso   1.000  O
  N56      1.0000 0.32933  0.19284  0.89394  Biso   1.000  N
  C56      1.0000 0.32213  0.21305  0.91649  Biso   1.000  C
  H56      1.0000 0.33400  0.23070  0.92140  Biso   1.000  H
  O56      1.0000 0.29123  0.24551  0.96707  Biso   1.000  O
  N57      1.0000 0.17067  0.69284  0.10606  Biso   1.000  N
  C57      1.0000 0.17787  0.71305  0.08351  Biso   1.000  C
  H57      1.0000 0.16600  0.73070  0.07860  Biso   1.000  H
  O57      1.0000 0.20877  0.74551  0.03293  Biso   1.000  O
  N58      1.0000 0.17067  0.19284  0.60606  Biso   1.000  N
  C58      1.0000 0.17787  0.21305  0.58351  Biso   1.000  C
  H58      1.0000 0.16600  0.23070  0.57860  Biso   1.000  H
  O58      1.0000 0.20877  0.24551  0.53293  Biso   1.000  O
  N59      1.0000 0.67067  0.69284  0.60606  Biso   1.000  N
  C59      1.0000 0.67787  0.71305  0.58351  Biso   1.000  C
  H59      1.0000 0.66600  0.73070  0.57860  Biso   1.000  H
  O59      1.0000 0.70877  0.74551  0.53293  Biso   1.000  O
  N60      1.0000 0.67067  0.19284  0.10606  Biso   1.000  N
  C60      1.0000 0.67787  0.21305  0.08351  Biso   1.000  C
  H60      1.0000 0.66600  0.23070  0.07860  Biso   1.000  H
  O60      1.0000 0.70877  0.24551  0.03293  Biso   1.000  O
  N61      1.0000 0.82933  0.30716  0.10606  Biso   1.000  N
  C61      1.0000 0.82213  0.28695  0.08351  Biso   1.000  C
  H61      1.0000 0.83400  0.26930  0.07860  Biso   1.000  H
  O61      1.0000 0.79123  0.25449  0.03293  Biso   1.000  O
  N62      1.0000 0.82933  0.80716  0.60606  Biso   1.000  N
  C62      1.0000 0.82213  0.78695  0.58351  Biso   1.000  C
  H62      1.0000 0.83400  0.76930  0.57860  Biso   1.000  H
  O62      1.0000 0.79123  0.75449  0.53293  Biso   1.000  O
  N63      1.0000 0.32933  0.30716  0.60606  Biso   1.000  N
  C63      1.0000 0.32213  0.28695  0.58351  Biso   1.000  C
  H63      1.0000 0.33400  0.26930  0.57860  Biso   1.000  H
  O63      1.0000 0.29123  0.25449  0.53293  Biso   1.000  O
  N64      1.0000 0.32933  0.80716  0.10606  Biso   1.000  N
  C64      1.0000 0.32213  0.78695  0.08351  Biso   1.000  C
  H64      1.0000 0.33400  0.76930  0.07860  Biso   1.000  H
  O64      1.0000 0.29123  0.75449  0.03293  Biso   1.000  O
  N65      1.0000 0.30716  0.10606  0.82933  Biso   1.000  N
  C65      1.0000 0.28695  0.08351  0.82213  Biso   1.000  C
  H65      1.0000 0.26930  0.07860  0.83400  Biso   1.000  H
  O65      1.0000 0.25449  0.03293  0.79123  Biso   1.000  O
  N66      1.0000 0.30716  0.60606  0.32933  Biso   1.000  N
  C66      1.0000 0.28695  0.58351  0.32213  Biso   1.000  C
  H66      1.0000 0.26930  0.57860  0.33400  Biso   1.000  H
  O66      1.0000 0.25449  0.53293  0.29123  Biso   1.000  O
  N67      1.0000 0.80716  0.10606  0.32933  Biso   1.000  N
  C67      1.0000 0.78695  0.08351  0.32213  Biso   1.000  C
  H67      1.0000 0.76930  0.07860  0.33400  Biso   1.000  H
  O67      1.0000 0.75449  0.03293  0.29123  Biso   1.000  O
  N68      1.0000 0.80716  0.60606  0.82933  Biso   1.000  N
  C68      1.0000 0.78695  0.58351  0.82213  Biso   1.000  C
  H68      1.0000 0.76930  0.57860  0.83400  Biso   1.000  H
  O68      1.0000 0.75449  0.53293  0.79123  Biso   1.000  O
  N69      1.0000 0.69284  0.10606  0.17067  Biso   1.000  N
  C69      1.0000 0.71305  0.08351  0.17787  Biso   1.000  C
  H69      1.0000 0.73070  0.07860  0.16600  Biso   1.000  H
  O69      1.0000 0.74551  0.03293  0.20877  Biso   1.000  O
  N70      1.0000 0.69284  0.60606  0.67067  Biso   1.000  N
  C70      1.0000 0.71305  0.58351  0.67787  Biso   1.000  C
  H70      1.0000 0.73070  0.57860  0.66600  Biso   1.000  H
  O70      1.0000 0.74551  0.53293  0.70877  Biso   1.000  O
  N71      1.0000 0.19284  0.10606  0.67067  Biso   1.000  N
  C71      1.0000 0.21305  0.08351  0.67787  Biso   1.000  C
  H71      1.0000 0.23070  0.07860  0.66600  Biso   1.000  H
  O71      1.0000 0.24551  0.03293  0.70877  Biso   1.000  O
  N72      1.0000 0.19284  0.60606  0.17067  Biso   1.000  N
  C72      1.0000 0.21305  0.58351  0.17787  Biso   1.000  C
  H72      1.0000 0.23070  0.57860  0.16600  Biso   1.000  H
  O72      1.0000 0.24551  0.53293  0.20877  Biso   1.000  O
  N73      1.0000 0.69284  0.89394  0.82933  Biso   1.000  N
  C73      1.0000 0.71305  0.91649  0.82213  Biso   1.000  C
  H73      1.0000 0.73070  0.92140  0.83400  Biso   1.000  H
  O73      1.0000 0.74551  0.96707  0.79123  Biso   1.000  O
  N74      1.0000 0.69284  0.39394  0.32933  Biso   1.000  N
  C74      1.0000 0.71305  0.41649  0.32213  Biso   1.000  C
  H74      1.0000 0.73070  0.42140  0.33400  Biso   1.000  H
  O74      1.0000 0.74551  0.46707  0.29123  Biso   1.000  O
  N75      1.0000 0.19284  0.89394  0.32933  Biso   1.000  N
  C75      1.0000 0.21305  0.91649  0.32213  Biso   1.000  C
  H75      1.0000 0.23070  0.92140  0.33400  Biso   1.000  H
  O75      1.0000 0.24551  0.96707  0.29123  Biso   1.000  O
  N76      1.0000 0.19284  0.39394  0.82933  Biso   1.000  N
  C76      1.0000 0.21305  0.41649  0.82213  Biso   1.000  C
  H76      1.0000 0.23070  0.42140  0.83400  Biso   1.000  H
  O76      1.0000 0.24551  0.46707  0.79123  Biso   1.000  O
  N77      1.0000 0.30716  0.89394  0.17067  Biso   1.000  N
  C77      1.0000 0.28695  0.91649  0.17787  Biso   1.000  C
  H77      1.0000 0.26930  0.92140  0.16600  Biso   1.000  H
  O77      1.0000 0.25449  0.96707  0.20877  Biso   1.000  O
  N78      1.0000 0.30716  0.39394  0.67067  Biso   1.000  N
  C78      1.0000 0.28695  0.41649  0.67787  Biso   1.000  C
  H78      1.0000 0.26930  0.42140  0.66600  Biso   1.000  H
  O78      1.0000 0.25449  0.46707  0.70877  Biso   1.000  O
  N79      1.0000 0.80716  0.89394  0.67067  Biso   1.000  N
  C79      1.0000 0.78695  0.91649  0.67787  Biso   1.000  C
  H79      1.0000 0.76930  0.92140  0.66600  Biso   1.000  H
  O79      1.0000 0.75449  0.96707  0.70877  Biso   1.000  O
  N80      1.0000 0.80716  0.39394  0.17067  Biso   1.000  N
  C80      1.0000 0.78695  0.41649  0.17787  Biso   1.000  C
  H80      1.0000 0.76930  0.42140  0.16600  Biso   1.000  H
  O80      1.0000 0.75449  0.46707  0.20877  Biso   1.000  O
  N81      1.0000 0.10606  0.17067  0.69284  Biso   1.000  N
  C81      1.0000 0.08351  0.17787  0.71305  Biso   1.000  C
  H81      1.0000 0.07860  0.16600  0.73070  Biso   1.000  H
  O81      1.0000 0.03293  0.20877  0.74551  Biso   1.000  O
  N82      1.0000 0.10606  0.67067  0.19284  Biso   1.000  N
  C82      1.0000 0.08351  0.67787  0.21305  Biso   1.000  C
  H82      1.0000 0.07860  0.66600  0.23070  Biso   1.000  H
  O82      1.0000 0.03293  0.70877  0.24551  Biso   1.000  O
  N83      1.0000 0.60606  0.17067  0.19284  Biso   1.000  N
  C83      1.0000 0.58351  0.17787  0.21305  Biso   1.000  C
  H83      1.0000 0.57860  0.16600  0.23070  Biso   1.000  H
  O83      1.0000 0.53293  0.20877  0.24551  Biso   1.000  O
  N84      1.0000 0.60606  0.67067  0.69284  Biso   1.000  N
  C84      1.0000 0.58351  0.67787  0.71305  Biso   1.000  C
  H84      1.0000 0.57860  0.66600  0.73070  Biso   1.000  H
  O84      1.0000 0.53293  0.70877  0.74551  Biso   1.000  O
  N85      1.0000 0.10606  0.82933  0.30716  Biso   1.000  N
  C85      1.0000 0.08351  0.82213  0.28695  Biso   1.000  C
  H85      1.0000 0.07860  0.83400  0.26930  Biso   1.000  H
  O85      1.0000 0.03293  0.79123  0.25449  Biso   1.000  O
  N86      1.0000 0.10606  0.32933  0.80716  Biso   1.000  N
  C86      1.0000 0.08351  0.32213  0.78695  Biso   1.000  C
  H86      1.0000 0.07860  0.33400  0.76930  Biso   1.000  H
  O86      1.0000 0.03293  0.29123  0.75449  Biso   1.000  O
  N87      1.0000 0.60606  0.82933  0.80716  Biso   1.000  N
  C87      1.0000 0.58351  0.82213  0.78695  Biso   1.000  C
  H87      1.0000 0.57860  0.83400  0.76930  Biso   1.000  H
  O87      1.0000 0.53293  0.79123  0.75449  Biso   1.000  O
  N88      1.0000 0.60606  0.32933  0.30716  Biso   1.000  N
  C88      1.0000 0.58351  0.32213  0.28695  Biso   1.000  C
  H88      1.0000 0.57860  0.33400  0.26930  Biso   1.000  H
  O88      1.0000 0.53293  0.29123  0.25449  Biso   1.000  O
  N89      1.0000 0.89394  0.17067  0.30716  Biso   1.000  N
  C89      1.0000 0.91649  0.17787  0.28695  Biso   1.000  C
  H89      1.0000 0.92140  0.16600  0.26930  Biso   1.000  H
  O89      1.0000 0.96707  0.20877  0.25449  Biso   1.000  O
  N90      1.0000 0.89394  0.67067  0.80716  Biso   1.000  N
  C90      1.0000 0.91649  0.67787  0.78695  Biso   1.000  C
  H90      1.0000 0.92140  0.66600  0.76930  Biso   1.000  H
  O90      1.0000 0.96707  0.70877  0.75449  Biso   1.000  O
  N91      1.0000 0.39394  0.17067  0.80716  Biso   1.000  N
  C91      1.0000 0.41649  0.17787  0.78695  Biso   1.000  C
  H91      1.0000 0.42140  0.16600  0.76930  Biso   1.000  H
  O91      1.0000 0.46707  0.20877  0.75449  Biso   1.000  O
  N92      1.0000 0.39394  0.67067  0.30716  Biso   1.000  N
  C92      1.0000 0.41649  0.67787  0.28695  Biso   1.000  C
  H92      1.0000 0.42140  0.66600  0.26930  Biso   1.000  H
  O92      1.0000 0.46707  0.70877  0.25449  Biso   1.000  O
  N93      1.0000 0.89394  0.82933  0.69284  Biso   1.000  N
  C93      1.0000 0.91649  0.82213  0.71305  Biso   1.000  C
  H93      1.0000 0.92140  0.83400  0.73070  Biso   1.000  H
  O93      1.0000 0.96707  0.79123  0.74551  Biso   1.000  O
  N94      1.0000 0.89394  0.32933  0.19284  Biso   1.000  N
  C94      1.0000 0.91649  0.32213  0.21305  Biso   1.000  C
  H94      1.0000 0.92140  0.33400  0.23070  Biso   1.000  H
  O94      1.0000 0.96707  0.29123  0.24551  Biso   1.000  O
  N95      1.0000 0.39394  0.82933  0.19284  Biso   1.000  N
  C95      1.0000 0.41649  0.82213  0.21305  Biso   1.000  C
  H95      1.0000 0.42140  0.83400  0.23070  Biso   1.000  H
  O95      1.0000 0.46707  0.79123  0.24551  Biso   1.000  O
  N96      1.0000 0.39394  0.32933  0.69284  Biso   1.000  N
  C96      1.0000 0.41649  0.32213  0.71305  Biso   1.000  C
  H96      1.0000 0.42140  0.33400  0.73070  Biso   1.000  H
  O96      1.0000 0.46707  0.29123  0.74551  Biso   1.000  O
  N97      1.0000 0.69284  0.82933  0.89394  Biso   1.000  N
  C97      1.0000 0.71305  0.82213  0.91649  Biso   1.000  C
  H97      1.0000 0.73070  0.83400  0.92140  Biso   1.000  H
  O97      1.0000 0.74551  0.79123  0.96707  Biso   1.000  O
  N98      1.0000 0.69284  0.32933  0.39394  Biso   1.000  N
  C98      1.0000 0.71305  0.32213  0.41649  Biso   1.000  C
  H98      1.0000 0.73070  0.33400  0.42140  Biso   1.000  H
  O98      1.0000 0.74551  0.29123  0.46707  Biso   1.000  O
  N99      1.0000 0.19284  0.82933  0.39394  Biso   1.000  N
  C99      1.0000 0.21305  0.82213  0.41649  Biso   1.000  C
  H99      1.0000 0.23070  0.83400  0.42140  Biso   1.000  H
  O99      1.0000 0.24551  0.79123  0.46707  Biso   1.000  O
  N100     1.0000 0.19284  0.32933  0.89394  Biso   1.000  N
  C100     1.0000 0.21305  0.32213  0.91649  Biso   1.000  C
  H100     1.0000 0.23070  0.33400  0.92140  Biso   1.000  H
  O100     1.0000 0.24551  0.29123  0.96707  Biso   1.000  O
  N101     1.0000 0.30716  0.17067  0.89394  Biso   1.000  N
  C101     1.0000 0.28695  0.17787  0.91649  Biso   1.000  C
  H101     1.0000 0.26930  0.16600  0.92140  Biso   1.000  H
  O101     1.0000 0.25449  0.20877  0.96707  Biso   1.000  O
  N102     1.0000 0.30716  0.67067  0.39394  Biso   1.000  N
  C102     1.0000 0.28695  0.67787  0.41649  Biso   1.000  C
  H102     1.0000 0.26930  0.66600  0.42140  Biso   1.000  H
  O102     1.0000 0.25449  0.70877  0.46707  Biso   1.000  O
  N103     1.0000 0.80716  0.17067  0.39394  Biso   1.000  N
  C103     1.0000 0.78695  0.17787  0.41649  Biso   1.000  C
  H103     1.0000 0.76930  0.16600  0.42140  Biso   1.000  H
  O103     1.0000 0.75449  0.20877  0.46707  Biso   1.000  O
  N104     1.0000 0.80716  0.67067  0.89394  Biso   1.000  N
  C104     1.0000 0.78695  0.67787  0.91649  Biso   1.000  C
  H104     1.0000 0.76930  0.66600  0.92140  Biso   1.000  H
  O104     1.0000 0.75449  0.70877  0.96707  Biso   1.000  O
  N105     1.0000 0.30716  0.82933  0.10606  Biso   1.000  N
  C105     1.0000 0.28695  0.82213  0.08351  Biso   1.000  C
  H105     1.0000 0.26930  0.83400  0.07860  Biso   1.000  H
  O105     1.0000 0.25449  0.79123  0.03293  Biso   1.000  O
  N106     1.0000 0.30716  0.32933  0.60606  Biso   1.000  N
  C106     1.0000 0.28695  0.32213  0.58351  Biso   1.000  C
  H106     1.0000 0.26930  0.33400  0.57860  Biso   1.000  H
  O106     1.0000 0.25449  0.29123  0.53293  Biso   1.000  O
  N107     1.0000 0.80716  0.82933  0.60606  Biso   1.000  N
  C107     1.0000 0.78695  0.82213  0.58351  Biso   1.000  C
  H107     1.0000 0.76930  0.83400  0.57860  Biso   1.000  H
  O107     1.0000 0.75449  0.79123  0.53293  Biso   1.000  O
  N108     1.0000 0.80716  0.32933  0.10606  Biso   1.000  N
  C108     1.0000 0.78695  0.32213  0.08351  Biso   1.000  C
  H108     1.0000 0.76930  0.33400  0.07860  Biso   1.000  H
  O108     1.0000 0.75449  0.29123  0.03293  Biso   1.000  O
  N109     1.0000 0.69284  0.17067  0.10606  Biso   1.000  N
  C109     1.0000 0.71305  0.17787  0.08351  Biso   1.000  C
  H109     1.0000 0.73070  0.16600  0.07860  Biso   1.000  H
  O109     1.0000 0.74551  0.20877  0.03293  Biso   1.000  O
  N110     1.0000 0.69284  0.67067  0.60606  Biso   1.000  N
  C110     1.0000 0.71305  0.67787  0.58351  Biso   1.000  C
  H110     1.0000 0.73070  0.66600  0.57860  Biso   1.000  H
  O110     1.0000 0.74551  0.70877  0.53293  Biso   1.000  O
  N111     1.0000 0.19284  0.17067  0.60606  Biso   1.000  N
  C111     1.0000 0.21305  0.17787  0.58351  Biso   1.000  C
  H111     1.0000 0.23070  0.16600  0.57860  Biso   1.000  H
  O111     1.0000 0.24551  0.20877  0.53293  Biso   1.000  O
  N112     1.0000 0.19284  0.67067  0.10606  Biso   1.000  N
  C112     1.0000 0.21305  0.67787  0.08351  Biso   1.000  C
  H112     1.0000 0.23070  0.66600  0.07860  Biso   1.000  H
  O112     1.0000 0.24551  0.70877  0.03293  Biso   1.000  O
  N113     1.0000 0.89394  0.69284  0.82933  Biso   1.000  N
  C113     1.0000 0.91649  0.71305  0.82213  Biso   1.000  C
  H113     1.0000 0.92140  0.73070  0.83400  Biso   1.000  H
  O113     1.0000 0.96707  0.74551  0.79123  Biso   1.000  O
  N114     1.0000 0.89394  0.19284  0.32933  Biso   1.000  N
  C114     1.0000 0.91649  0.21305  0.32213  Biso   1.000  C
  H114     1.0000 0.92140  0.23070  0.33400  Biso   1.000  H
  O114     1.0000 0.96707  0.24551  0.29123  Biso   1.000  O
  N115     1.0000 0.39394  0.69284  0.32933  Biso   1.000  N
  C115     1.0000 0.41649  0.71305  0.32213  Biso   1.000  C
  H115     1.0000 0.42140  0.73070  0.33400  Biso   1.000  H
  O115     1.0000 0.46707  0.74551  0.29123  Biso   1.000  O
  N116     1.0000 0.39394  0.19284  0.82933  Biso   1.000  N
  C116     1.0000 0.41649  0.21305  0.82213  Biso   1.000  C
  H116     1.0000 0.42140  0.23070  0.83400  Biso   1.000  H
  O116     1.0000 0.46707  0.24551  0.79123  Biso   1.000  O
  N117     1.0000 0.89394  0.30716  0.17067  Biso   1.000  N
  C117     1.0000 0.91649  0.28695  0.17787  Biso   1.000  C
  H117     1.0000 0.92140  0.26930  0.16600  Biso   1.000  H
  O117     1.0000 0.96707  0.25449  0.20877  Biso   1.000  O
  N118     1.0000 0.89394  0.80716  0.67067  Biso   1.000  N
  C118     1.0000 0.91649  0.78695  0.67787  Biso   1.000  C
  H118     1.0000 0.92140  0.76930  0.66600  Biso   1.000  H
  O118     1.0000 0.96707  0.75449  0.70877  Biso   1.000  O
  N119     1.0000 0.39394  0.30716  0.67067  Biso   1.000  N
  C119     1.0000 0.41649  0.28695  0.67787  Biso   1.000  C
  H119     1.0000 0.42140  0.26930  0.66600  Biso   1.000  H
  O119     1.0000 0.46707  0.25449  0.70877  Biso   1.000  O
  N120     1.0000 0.39394  0.80716  0.17067  Biso   1.000  N
  C120     1.0000 0.41649  0.78695  0.17787  Biso   1.000  C
  H120     1.0000 0.42140  0.76930  0.16600  Biso   1.000  H
  O120     1.0000 0.46707  0.75449  0.20877  Biso   1.000  O
  N121     1.0000 0.10606  0.30716  0.82933  Biso   1.000  N
  C121     1.0000 0.08351  0.28695  0.82213  Biso   1.000  C
  H121     1.0000 0.07860  0.26930  0.83400  Biso   1.000  H
  O121     1.0000 0.03293  0.25449  0.79123  Biso   1.000  O
  N122     1.0000 0.10606  0.80716  0.32933  Biso   1.000  N
  C122     1.0000 0.08351  0.78695  0.32213  Biso   1.000  C
  H122     1.0000 0.07860  0.76930  0.33400  Biso   1.000  H
  O122     1.0000 0.03293  0.75449  0.29123  Biso   1.000  O
  N123     1.0000 0.60606  0.30716  0.32933  Biso   1.000  N
  C123     1.0000 0.58351  0.28695  0.32213  Biso   1.000  C
  H123     1.0000 0.57860  0.26930  0.33400  Biso   1.000  H
  O123     1.0000 0.53293  0.25449  0.29123  Biso   1.000  O
  N124     1.0000 0.60606  0.80716  0.82933  Biso   1.000  N
  C124     1.0000 0.58351  0.78695  0.82213  Biso   1.000  C
  H124     1.0000 0.57860  0.76930  0.83400  Biso   1.000  H
  O124     1.0000 0.53293  0.75449  0.79123  Biso   1.000  O
  N125     1.0000 0.10606  0.69284  0.17067  Biso   1.000  N
  C125     1.0000 0.08351  0.71305  0.17787  Biso   1.000  C
  H125     1.0000 0.07860  0.73070  0.16600  Biso   1.000  H
  O125     1.0000 0.03293  0.74551  0.20877  Biso   1.000  O
  N126     1.0000 0.10606  0.19284  0.67067  Biso   1.000  N
  C126     1.0000 0.08351  0.21305  0.67787  Biso   1.000  C
  H126     1.0000 0.07860  0.23070  0.66600  Biso   1.000  H
  O126     1.0000 0.03293  0.24551  0.70877  Biso   1.000  O
  N127     1.0000 0.60606  0.69284  0.67067  Biso   1.000  N
  C127     1.0000 0.58351  0.71305  0.67787  Biso   1.000  C
  H127     1.0000 0.57860  0.73070  0.66600  Biso   1.000  H
  O127     1.0000 0.53293  0.74551  0.70877  Biso   1.000  O
  N128     1.0000 0.60606  0.19284  0.17067  Biso   1.000  N
  C128     1.0000 0.58351  0.21305  0.17787  Biso   1.000  C
  H128     1.0000 0.57860  0.23070  0.16600  Biso   1.000  H
  O128     1.0000 0.53293  0.24551  0.20877  Biso   1.000  O
  N129     1.0000 0.82933  0.89394  0.69284  Biso   1.000  N
  C129     1.0000 0.82213  0.91649  0.71305  Biso   1.000  C
  H129     1.0000 0.83400  0.92140  0.73070  Biso   1.000  H
  O129     1.0000 0.79123  0.96707  0.74551  Biso   1.000  O
  N130     1.0000 0.82933  0.39394  0.19284  Biso   1.000  N
  C130     1.0000 0.82213  0.41649  0.21305  Biso   1.000  C
  H130     1.0000 0.83400  0.42140  0.23070  Biso   1.000  H
  O130     1.0000 0.79123  0.46707  0.24551  Biso   1.000  O
  N131     1.0000 0.32933  0.89394  0.19284  Biso   1.000  N
  C131     1.0000 0.32213  0.91649  0.21305  Biso   1.000  C
  H131     1.0000 0.33400  0.92140  0.23070  Biso   1.000  H
  O131     1.0000 0.29123  0.96707  0.24551  Biso   1.000  O
  N132     1.0000 0.32933  0.39394  0.69284  Biso   1.000  N
  C132     1.0000 0.32213  0.41649  0.71305  Biso   1.000  C
  H132     1.0000 0.33400  0.42140  0.73070  Biso   1.000  H
  O132     1.0000 0.29123  0.46707  0.74551  Biso   1.000  O
  N133     1.0000 0.17067  0.89394  0.30716  Biso   1.000  N
  C133     1.0000 0.17787  0.91649  0.28695  Biso   1.000  C
  H133     1.0000 0.16600  0.92140  0.26930  Biso   1.000  H
  O133     1.0000 0.20877  0.96707  0.25449  Biso   1.000  O
  N134     1.0000 0.17067  0.39394  0.80716  Biso   1.000  N
  C134     1.0000 0.17787  0.41649  0.78695  Biso   1.000  C
  H134     1.0000 0.16600  0.42140  0.76930  Biso   1.000  H
  O134     1.0000 0.20877  0.46707  0.75449  Biso   1.000  O
  N135     1.0000 0.67067  0.89394  0.80716  Biso   1.000  N
  C135     1.0000 0.67787  0.91649  0.78695  Biso   1.000  C
  H135     1.0000 0.66600  0.92140  0.76930  Biso   1.000  H
  O135     1.0000 0.70877  0.96707  0.75449  Biso   1.000  O
  N136     1.0000 0.67067  0.39394  0.30716  Biso   1.000  N
  C136     1.0000 0.67787  0.41649  0.28695  Biso   1.000  C
  H136     1.0000 0.66600  0.42140  0.26930  Biso   1.000  H
  O136     1.0000 0.70877  0.46707  0.25449  Biso   1.000  O
  N137     1.0000 0.82933  0.10606  0.30716  Biso   1.000  N
  C137     1.0000 0.82213  0.08351  0.28695  Biso   1.000  C
  H137     1.0000 0.83400  0.07860  0.26930  Biso   1.000  H
  O137     1.0000 0.79123  0.03293  0.25449  Biso   1.000  O
  N138     1.0000 0.82933  0.60606  0.80716  Biso   1.000  N
  C138     1.0000 0.82213  0.58351  0.78695  Biso   1.000  C
  H138     1.0000 0.83400  0.57860  0.76930  Biso   1.000  H
  O138     1.0000 0.79123  0.53293  0.75449  Biso   1.000  O
  N139     1.0000 0.32933  0.10606  0.80716  Biso   1.000  N
  C139     1.0000 0.32213  0.08351  0.78695  Biso   1.000  C
  H139     1.0000 0.33400  0.07860  0.76930  Biso   1.000  H
  O139     1.0000 0.29123  0.03293  0.75449  Biso   1.000  O
  N140     1.0000 0.32933  0.60606  0.30716  Biso   1.000  N
  C140     1.0000 0.32213  0.58351  0.28695  Biso   1.000  C
  H140     1.0000 0.33400  0.57860  0.26930  Biso   1.000  H
  O140     1.0000 0.29123  0.53293  0.25449  Biso   1.000  O
  N141     1.0000 0.17067  0.10606  0.69284  Biso   1.000  N
  C141     1.0000 0.17787  0.08351  0.71305  Biso   1.000  C
  H141     1.0000 0.16600  0.07860  0.73070  Biso   1.000  H
  O141     1.0000 0.20877  0.03293  0.74551  Biso   1.000  O
  N142     1.0000 0.17067  0.60606  0.19284  Biso   1.000  N
  C142     1.0000 0.17787  0.58351  0.21305  Biso   1.000  C
  H142     1.0000 0.16600  0.57860  0.23070  Biso   1.000  H
  O142     1.0000 0.20877  0.53293  0.24551  Biso   1.000  O
  N143     1.0000 0.67067  0.10606  0.19284  Biso   1.000  N
  C143     1.0000 0.67787  0.08351  0.21305  Biso   1.000  C
  H143     1.0000 0.66600  0.07860  0.23070  Biso   1.000  H
  O143     1.0000 0.70877  0.03293  0.24551  Biso   1.000  O
  N144     1.0000 0.67067  0.60606  0.69284  Biso   1.000  N
  C144     1.0000 0.67787  0.58351  0.71305  Biso   1.000  C
  H144     1.0000 0.66600  0.57860  0.73070  Biso   1.000  H
  O144     1.0000 0.70877  0.53293  0.74551  Biso   1.000  O
  N145     1.0000 0.82933  0.69284  0.10606  Biso   1.000  N
  C145     1.0000 0.82213  0.71305  0.08351  Biso   1.000  C
  H145     1.0000 0.83400  0.73070  0.07860  Biso   1.000  H
  O145     1.0000 0.79123  0.74551  0.03293  Biso   1.000  O
  N146     1.0000 0.82933  0.19284  0.60606  Biso   1.000  N
  C146     1.0000 0.82213  0.21305  0.58351  Biso   1.000  C
  H146     1.0000 0.83400  0.23070  0.57860  Biso   1.000  H
  O146     1.0000 0.79123  0.24551  0.53293  Biso   1.000  O
  N147     1.0000 0.32933  0.69284  0.60606  Biso   1.000  N
  C147     1.0000 0.32213  0.71305  0.58351  Biso   1.000  C
  H147     1.0000 0.33400  0.73070  0.57860  Biso   1.000  H
  O147     1.0000 0.29123  0.74551  0.53293  Biso   1.000  O
  N148     1.0000 0.32933  0.19284  0.10606  Biso   1.000  N
  C148     1.0000 0.32213  0.21305  0.08351  Biso   1.000  C
  H148     1.0000 0.33400  0.23070  0.07860  Biso   1.000  H
  O148     1.0000 0.29123  0.24551  0.03293  Biso   1.000  O
  N149     1.0000 0.17067  0.30716  0.10606  Biso   1.000  N
  C149     1.0000 0.17787  0.28695  0.08351  Biso   1.000  C
  H149     1.0000 0.16600  0.26930  0.07860  Biso   1.000  H
  O149     1.0000 0.20877  0.25449  0.03293  Biso   1.000  O
  N150     1.0000 0.17067  0.80716  0.60606  Biso   1.000  N
  C150     1.0000 0.17787  0.78695  0.58351  Biso   1.000  C
  H150     1.0000 0.16600  0.76930  0.57860  Biso   1.000  H
  O150     1.0000 0.20877  0.75449  0.53293  Biso   1.000  O
  N151     1.0000 0.67067  0.30716  0.60606  Biso   1.000  N
  C151     1.0000 0.67787  0.28695  0.58351  Biso   1.000  C
  H151     1.0000 0.66600  0.26930  0.57860  Biso   1.000  H
  O151     1.0000 0.70877  0.25449  0.53293  Biso   1.000  O
  N152     1.0000 0.67067  0.80716  0.10606  Biso   1.000  N
  C152     1.0000 0.67787  0.78695  0.08351  Biso   1.000  C
  H152     1.0000 0.66600  0.76930  0.07860  Biso   1.000  H
  O152     1.0000 0.70877  0.75449  0.03293  Biso   1.000  O
  N153     1.0000 0.82933  0.30716  0.89394  Biso   1.000  N
  C153     1.0000 0.82213  0.28695  0.91649  Biso   1.000  C
  H153     1.0000 0.83400  0.26930  0.92140  Biso   1.000  H
  O153     1.0000 0.79123  0.25449  0.96707  Biso   1.000  O
  N154     1.0000 0.82933  0.80716  0.39394  Biso   1.000  N
  C154     1.0000 0.82213  0.78695  0.41649  Biso   1.000  C
  H154     1.0000 0.83400  0.76930  0.42140  Biso   1.000  H
  O154     1.0000 0.79123  0.75449  0.46707  Biso   1.000  O
  N155     1.0000 0.32933  0.30716  0.39394  Biso   1.000  N
  C155     1.0000 0.32213  0.28695  0.41649  Biso   1.000  C
  H155     1.0000 0.33400  0.26930  0.42140  Biso   1.000  H
  O155     1.0000 0.29123  0.25449  0.46707  Biso   1.000  O
  N156     1.0000 0.32933  0.80716  0.89394  Biso   1.000  N
  C156     1.0000 0.32213  0.78695  0.91649  Biso   1.000  C
  H156     1.0000 0.33400  0.76930  0.92140  Biso   1.000  H
  O156     1.0000 0.29123  0.75449  0.96707  Biso   1.000  O
  N157     1.0000 0.17067  0.69284  0.89394  Biso   1.000  N
  C157     1.0000 0.17787  0.71305  0.91649  Biso   1.000  C
  H157     1.0000 0.16600  0.73070  0.92140  Biso   1.000  H
  O157     1.0000 0.20877  0.74551  0.96707  Biso   1.000  O
  N158     1.0000 0.17067  0.19284  0.39394  Biso   1.000  N
  C158     1.0000 0.17787  0.21305  0.41649  Biso   1.000  C
  H158     1.0000 0.16600  0.23070  0.42140  Biso   1.000  H
  O158     1.0000 0.20877  0.24551  0.46707  Biso   1.000  O
  N159     1.0000 0.67067  0.69284  0.39394  Biso   1.000  N
  C159     1.0000 0.67787  0.71305  0.41649  Biso   1.000  C
  H159     1.0000 0.66600  0.73070  0.42140  Biso   1.000  H
  O159     1.0000 0.70877  0.74551  0.46707  Biso   1.000  O
  N160     1.0000 0.67067  0.19284  0.89394  Biso   1.000  N
  C160     1.0000 0.67787  0.21305  0.91649  Biso   1.000  C
  H160     1.0000 0.66600  0.23070  0.92140  Biso   1.000  H
  O160     1.0000 0.70877  0.24551  0.96707  Biso   1.000  O
  N161     1.0000 0.69284  0.89394  0.17067  Biso   1.000  N
  C161     1.0000 0.71305  0.91649  0.17787  Biso   1.000  C
  H161     1.0000 0.73070  0.92140  0.16600  Biso   1.000  H
  O161     1.0000 0.74551  0.96707  0.20877  Biso   1.000  O
  N162     1.0000 0.69284  0.39394  0.67067  Biso   1.000  N
  C162     1.0000 0.71305  0.41649  0.67787  Biso   1.000  C
  H162     1.0000 0.73070  0.42140  0.66600  Biso   1.000  H
  O162     1.0000 0.74551  0.46707  0.70877  Biso   1.000  O
  N163     1.0000 0.19284  0.89394  0.67067  Biso   1.000  N
  C163     1.0000 0.21305  0.91649  0.67787  Biso   1.000  C
  H163     1.0000 0.23070  0.92140  0.66600  Biso   1.000  H
  O163     1.0000 0.24551  0.96707  0.70877  Biso   1.000  O
  N164     1.0000 0.19284  0.39394  0.17067  Biso   1.000  N
  C164     1.0000 0.21305  0.41649  0.17787  Biso   1.000  C
  H164     1.0000 0.23070  0.42140  0.16600  Biso   1.000  H
  O164     1.0000 0.24551  0.46707  0.20877  Biso   1.000  O
  N165     1.0000 0.30716  0.89394  0.82933  Biso   1.000  N
  C165     1.0000 0.28695  0.91649  0.82213  Biso   1.000  C
  H165     1.0000 0.26930  0.92140  0.83400  Biso   1.000  H
  O165     1.0000 0.25449  0.96707  0.79123  Biso   1.000  O
  N166     1.0000 0.30716  0.39394  0.32933  Biso   1.000  N
  C166     1.0000 0.28695  0.41649  0.32213  Biso   1.000  C
  H166     1.0000 0.26930  0.42140  0.33400  Biso   1.000  H
  O166     1.0000 0.25449  0.46707  0.29123  Biso   1.000  O
  N167     1.0000 0.80716  0.89394  0.32933  Biso   1.000  N
  C167     1.0000 0.78695  0.91649  0.32213  Biso   1.000  C
  H167     1.0000 0.76930  0.92140  0.33400  Biso   1.000  H
  O167     1.0000 0.75449  0.96707  0.29123  Biso   1.000  O
  N168     1.0000 0.80716  0.39394  0.82933  Biso   1.000  N
  C168     1.0000 0.78695  0.41649  0.82213  Biso   1.000  C
  H168     1.0000 0.76930  0.42140  0.83400  Biso   1.000  H
  O168     1.0000 0.75449  0.46707  0.79123  Biso   1.000  O
  N169     1.0000 0.30716  0.10606  0.17067  Biso   1.000  N
  C169     1.0000 0.28695  0.08351  0.17787  Biso   1.000  C
  H169     1.0000 0.26930  0.07860  0.16600  Biso   1.000  H
  O169     1.0000 0.25449  0.03293  0.20877  Biso   1.000  O
  N170     1.0000 0.30716  0.60606  0.67067  Biso   1.000  N
  C170     1.0000 0.28695  0.58351  0.67787  Biso   1.000  C
  H170     1.0000 0.26930  0.57860  0.66600  Biso   1.000  H
  O170     1.0000 0.25449  0.53293  0.70877  Biso   1.000  O
  N171     1.0000 0.80716  0.10606  0.67067  Biso   1.000  N
  C171     1.0000 0.78695  0.08351  0.67787  Biso   1.000  C
  H171     1.0000 0.76930  0.07860  0.66600  Biso   1.000  H
  O171     1.0000 0.75449  0.03293  0.70877  Biso   1.000  O
  N172     1.0000 0.80716  0.60606  0.17067  Biso   1.000  N
  C172     1.0000 0.78695  0.58351  0.17787  Biso   1.000  C
  H172     1.0000 0.76930  0.57860  0.16600  Biso   1.000  H
  O172     1.0000 0.75449  0.53293  0.20877  Biso   1.000  O
  N173     1.0000 0.69284  0.10606  0.82933  Biso   1.000  N
  C173     1.0000 0.71305  0.08351  0.82213  Biso   1.000  C
  H173     1.0000 0.73070  0.07860  0.83400  Biso   1.000  H
  O173     1.0000 0.74551  0.03293  0.79123  Biso   1.000  O
  N174     1.0000 0.69284  0.60606  0.32933  Biso   1.000  N
  C174     1.0000 0.71305  0.58351  0.32213  Biso   1.000  C
  H174     1.0000 0.73070  0.57860  0.33400  Biso   1.000  H
  O174     1.0000 0.74551  0.53293  0.29123  Biso   1.000  O
  N175     1.0000 0.19284  0.10606  0.32933  Biso   1.000  N
  C175     1.0000 0.21305  0.08351  0.32213  Biso   1.000  C
  H175     1.0000 0.23070  0.07860  0.33400  Biso   1.000  H
  O175     1.0000 0.24551  0.03293  0.29123  Biso   1.000  O
  N176     1.0000 0.19284  0.60606  0.82933  Biso   1.000  N
  C176     1.0000 0.21305  0.58351  0.82213  Biso   1.000  C
  H176     1.0000 0.23070  0.57860  0.83400  Biso   1.000  H
  O176     1.0000 0.24551  0.53293  0.79123  Biso   1.000  O
  N177     1.0000 0.89394  0.82933  0.30716  Biso   1.000  N
  C177     1.0000 0.91649  0.82213  0.28695  Biso   1.000  C
  H177     1.0000 0.92140  0.83400  0.26930  Biso   1.000  H
  O177     1.0000 0.96707  0.79123  0.25449  Biso   1.000  O
  N178     1.0000 0.89394  0.32933  0.80716  Biso   1.000  N
  C178     1.0000 0.91649  0.32213  0.78695  Biso   1.000  C
  H178     1.0000 0.92140  0.33400  0.76930  Biso   1.000  H
  O178     1.0000 0.96707  0.29123  0.75449  Biso   1.000  O
  N179     1.0000 0.39394  0.82933  0.80716  Biso   1.000  N
  C179     1.0000 0.41649  0.82213  0.78695  Biso   1.000  C
  H179     1.0000 0.42140  0.83400  0.76930  Biso   1.000  H
  O179     1.0000 0.46707  0.79123  0.75449  Biso   1.000  O
  N180     1.0000 0.39394  0.32933  0.30716  Biso   1.000  N
  C180     1.0000 0.41649  0.32213  0.28695  Biso   1.000  C
  H180     1.0000 0.42140  0.33400  0.26930  Biso   1.000  H
  O180     1.0000 0.46707  0.29123  0.25449  Biso   1.000  O
  N181     1.0000 0.89394  0.17067  0.69284  Biso   1.000  N
  C181     1.0000 0.91649  0.17787  0.71305  Biso   1.000  C
  H181     1.0000 0.92140  0.16600  0.73070  Biso   1.000  H
  O181     1.0000 0.96707  0.20877  0.74551  Biso   1.000  O
  N182     1.0000 0.89394  0.67067  0.19284  Biso   1.000  N
  C182     1.0000 0.91649  0.67787  0.21305  Biso   1.000  C
  H182     1.0000 0.92140  0.66600  0.23070  Biso   1.000  H
  O182     1.0000 0.96707  0.70877  0.24551  Biso   1.000  O
  N183     1.0000 0.39394  0.17067  0.19284  Biso   1.000  N
  C183     1.0000 0.41649  0.17787  0.21305  Biso   1.000  C
  H183     1.0000 0.42140  0.16600  0.23070  Biso   1.000  H
  O183     1.0000 0.46707  0.20877  0.24551  Biso   1.000  O
  N184     1.0000 0.39394  0.67067  0.69284  Biso   1.000  N
  C184     1.0000 0.41649  0.67787  0.71305  Biso   1.000  C
  H184     1.0000 0.42140  0.66600  0.73070  Biso   1.000  H
  O184     1.0000 0.46707  0.70877  0.74551  Biso   1.000  O
  N185     1.0000 0.10606  0.82933  0.69284  Biso   1.000  N
  C185     1.0000 0.08351  0.82213  0.71305  Biso   1.000  C
  H185     1.0000 0.07860  0.83400  0.73070  Biso   1.000  H
  O185     1.0000 0.03293  0.79123  0.74551  Biso   1.000  O
  N186     1.0000 0.10606  0.32933  0.19284  Biso   1.000  N
  C186     1.0000 0.08351  0.32213  0.21305  Biso   1.000  C
  H186     1.0000 0.07860  0.33400  0.23070  Biso   1.000  H
  O186     1.0000 0.03293  0.29123  0.24551  Biso   1.000  O
  N187     1.0000 0.60606  0.82933  0.19284  Biso   1.000  N
  C187     1.0000 0.58351  0.82213  0.21305  Biso   1.000  C
  H187     1.0000 0.57860  0.83400  0.23070  Biso   1.000  H
  O187     1.0000 0.53293  0.79123  0.24551  Biso   1.000  O
  N188     1.0000 0.60606  0.32933  0.69284  Biso   1.000  N
  C188     1.0000 0.58351  0.32213  0.71305  Biso   1.000  C
  H188     1.0000 0.57860  0.33400  0.73070  Biso   1.000  H
  O188     1.0000 0.53293  0.29123  0.74551  Biso   1.000  O
  N189     1.0000 0.10606  0.17067  0.30716  Biso   1.000  N
  C189     1.0000 0.08351  0.17787  0.28695  Biso   1.000  C
  H189     1.0000 0.07860  0.16600  0.26930  Biso   1.000  H
  O189     1.0000 0.03293  0.20877  0.25449  Biso   1.000  O
  N190     1.0000 0.10606  0.67067  0.80716  Biso   1.000  N
  C190     1.0000 0.08351  0.67787  0.78695  Biso   1.000  C
  H190     1.0000 0.07860  0.66600  0.76930  Biso   1.000  H
  O190     1.0000 0.03293  0.70877  0.75449  Biso   1.000  O
  N191     1.0000 0.60606  0.17067  0.80716  Biso   1.000  N
  C191     1.0000 0.58351  0.17787  0.78695  Biso   1.000  C
  H191     1.0000 0.57860  0.16600  0.76930  Biso   1.000  H
  O191     1.0000 0.53293  0.20877  0.75449  Biso   1.000  O
  N192     1.0000 0.60606  0.67067  0.30716  Biso   1.000  N
  C192     1.0000 0.58351  0.67787  0.28695  Biso   1.000  C
  H192     1.0000 0.57860  0.66600  0.26930  Biso   1.000  H
  O192     1.0000 0.53293  0.70877  0.25449  Biso   1.000  O
  Cu1      1.0000 0.30697  0.13784  0.13784  Biso   1.000  Cu
  O193     1.0000 0.28500  0.10530  0.10530  Biso   1.000  O
  O194     1.0000 0.26710  0.11970  0.11970  Biso   1.000  O
  Cu2      1.0000 0.30697  0.63784  0.63784  Biso   1.000  Cu
  O195     1.0000 0.28500  0.60530  0.60530  Biso   1.000  O
  O196     1.0000 0.26710  0.61970  0.61970  Biso   1.000  O
  Cu3      1.0000 0.80697  0.13784  0.63784  Biso   1.000  Cu
  O197     1.0000 0.78500  0.10530  0.60530  Biso   1.000  O
  O198     1.0000 0.76710  0.11970  0.61970  Biso   1.000  O
  Cu4      1.0000 0.80697  0.63784  0.13784  Biso   1.000  Cu
  O199     1.0000 0.78500  0.60530  0.10530  Biso   1.000  O
  O200     1.0000 0.76710  0.61970  0.11970  Biso   1.000  O
  Cu5      1.0000 0.69303  0.86216  0.13784  Biso   1.000  Cu
  O201     1.0000 0.71500  0.89470  0.10530  Biso   1.000  O
  O202     1.0000 0.73290  0.88030  0.11970  Biso   1.000  O
  Cu6      1.0000 0.69303  0.36216  0.63784  Biso   1.000  Cu
  O203     1.0000 0.71500  0.39470  0.60530  Biso   1.000  O
  O204     1.0000 0.73290  0.38030  0.61970  Biso   1.000  O
  Cu7      1.0000 0.19303  0.86216  0.63784  Biso   1.000  Cu
  O205     1.0000 0.21500  0.89470  0.60530  Biso   1.000  O
  O206     1.0000 0.23290  0.88030  0.61970  Biso   1.000  O
  Cu8      1.0000 0.19303  0.36216  0.13784  Biso   1.000  Cu
  O207     1.0000 0.21500  0.39470  0.10530  Biso   1.000  O
  O208     1.0000 0.23290  0.38030  0.11970  Biso   1.000  O
  Cu9      1.0000 0.69303  0.13784  0.86216  Biso   1.000  Cu
  O209     1.0000 0.71500  0.10530  0.89470  Biso   1.000  O
  O210     1.0000 0.73290  0.11970  0.88030  Biso   1.000  O
  Cu10     1.0000 0.69303  0.63784  0.36216  Biso   1.000  Cu
  O211     1.0000 0.71500  0.60530  0.39470  Biso   1.000  O
  O212     1.0000 0.73290  0.61970  0.38030  Biso   1.000  O
  Cu11     1.0000 0.19303  0.13784  0.36216  Biso   1.000  Cu
  O213     1.0000 0.21500  0.10530  0.39470  Biso   1.000  O
  O214     1.0000 0.23290  0.11970  0.38030  Biso   1.000  O
  Cu12     1.0000 0.19303  0.63784  0.86216  Biso   1.000  Cu
  O215     1.0000 0.21500  0.60530  0.89470  Biso   1.000  O
  O216     1.0000 0.23290  0.61970  0.88030  Biso   1.000  O
  Cu13     1.0000 0.30697  0.86216  0.86216  Biso   1.000  Cu
  O217     1.0000 0.28500  0.89470  0.89470  Biso   1.000  O
  O218     1.0000 0.26710  0.88030  0.88030  Biso   1.000  O
  Cu14     1.0000 0.30697  0.36216  0.36216  Biso   1.000  Cu
  O219     1.0000 0.28500  0.39470  0.39470  Biso   1.000  O
  O220     1.0000 0.26710  0.38030  0.38030  Biso   1.000  O
  Cu15     1.0000 0.80697  0.86216  0.36216  Biso   1.000  Cu
  O221     1.0000 0.78500  0.89470  0.39470  Biso   1.000  O
  O222     1.0000 0.76710  0.88030  0.38030  Biso   1.000  O
  Cu16     1.0000 0.80697  0.36216  0.86216  Biso   1.000  Cu
  O223     1.0000 0.78500  0.39470  0.89470  Biso   1.000  O
  O224     1.0000 0.76710  0.38030  0.88030  Biso   1.000  O
  Cu17     1.0000 0.13784  0.30697  0.13784  Biso   1.000  Cu
  O225     1.0000 0.10530  0.28500  0.10530  Biso   1.000  O
  O226     1.0000 0.11970  0.26710  0.11970  Biso   1.000  O
  Cu18     1.0000 0.13784  0.80697  0.63784  Biso   1.000  Cu
  O227     1.0000 0.10530  0.78500  0.60530  Biso   1.000  O
  O228     1.0000 0.11970  0.76710  0.61970  Biso   1.000  O
  Cu19     1.0000 0.63784  0.30697  0.63784  Biso   1.000  Cu
  O229     1.0000 0.60530  0.28500  0.60530  Biso   1.000  O
  O230     1.0000 0.61970  0.26710  0.61970  Biso   1.000  O
  Cu20     1.0000 0.63784  0.80697  0.13784  Biso   1.000  Cu
  O231     1.0000 0.60530  0.78500  0.10530  Biso   1.000  O
  O232     1.0000 0.61970  0.76710  0.11970  Biso   1.000  O
  Cu21     1.0000 0.13784  0.69303  0.86216  Biso   1.000  Cu
  O233     1.0000 0.10530  0.71500  0.89470  Biso   1.000  O
  O234     1.0000 0.11970  0.73290  0.88030  Biso   1.000  O
  Cu22     1.0000 0.13784  0.19303  0.36216  Biso   1.000  Cu
  O235     1.0000 0.10530  0.21500  0.39470  Biso   1.000  O
  O236     1.0000 0.11970  0.23290  0.38030  Biso   1.000  O
  Cu23     1.0000 0.63784  0.69303  0.36216  Biso   1.000  Cu
  O237     1.0000 0.60530  0.71500  0.39470  Biso   1.000  O
  O238     1.0000 0.61970  0.73290  0.38030  Biso   1.000  O
  Cu24     1.0000 0.63784  0.19303  0.86216  Biso   1.000  Cu
  O239     1.0000 0.60530  0.21500  0.89470  Biso   1.000  O
  O240     1.0000 0.61970  0.23290  0.88030  Biso   1.000  O
  Cu25     1.0000 0.86216  0.69303  0.13784  Biso   1.000  Cu
  O241     1.0000 0.89470  0.71500  0.10530  Biso   1.000  O
  O242     1.0000 0.88030  0.73290  0.11970  Biso   1.000  O
  Cu26     1.0000 0.86216  0.19303  0.63784  Biso   1.000  Cu
  O243     1.0000 0.89470  0.21500  0.60530  Biso   1.000  O
  O244     1.0000 0.88030  0.23290  0.61970  Biso   1.000  O
  Cu27     1.0000 0.36216  0.69303  0.63784  Biso   1.000  Cu
  O245     1.0000 0.39470  0.71500  0.60530  Biso   1.000  O
  O246     1.0000 0.38030  0.73290  0.61970  Biso   1.000  O
  Cu28     1.0000 0.36216  0.19303  0.13784  Biso   1.000  Cu
  O247     1.0000 0.39470  0.21500  0.10530  Biso   1.000  O
  O248     1.0000 0.38030  0.23290  0.11970  Biso   1.000  O
  Cu29     1.0000 0.86216  0.30697  0.86216  Biso   1.000  Cu
  O249     1.0000 0.89470  0.28500  0.89470  Biso   1.000  O
  O250     1.0000 0.88030  0.26710  0.88030  Biso   1.000  O
  Cu30     1.0000 0.86216  0.80697  0.36216  Biso   1.000  Cu
  O251     1.0000 0.89470  0.78500  0.39470  Biso   1.000  O
  O252     1.0000 0.88030  0.76710  0.38030  Biso   1.000  O
  Cu31     1.0000 0.36216  0.30697  0.36216  Biso   1.000  Cu
  O253     1.0000 0.39470  0.28500  0.39470  Biso   1.000  O
  O254     1.0000 0.38030  0.26710  0.38030  Biso   1.000  O
  Cu32     1.0000 0.36216  0.80697  0.86216  Biso   1.000  Cu
  O255     1.0000 0.39470  0.78500  0.89470  Biso   1.000  O
  O256     1.0000 0.38030  0.76710  0.88030  Biso   1.000  O
  Cu33     1.0000 0.13784  0.13784  0.30697  Biso   1.000  Cu
  O257     1.0000 0.10530  0.10530  0.28500  Biso   1.000  O
  O258     1.0000 0.11970  0.11970  0.26710  Biso   1.000  O
  Cu34     1.0000 0.13784  0.63784  0.80697  Biso   1.000  Cu
  O259     1.0000 0.10530  0.60530  0.78500  Biso   1.000  O
  O260     1.0000 0.11970  0.61970  0.76710  Biso   1.000  O
  Cu35     1.0000 0.63784  0.13784  0.80697  Biso   1.000  Cu
  O261     1.0000 0.60530  0.10530  0.78500  Biso   1.000  O
  O262     1.0000 0.61970  0.11970  0.76710  Biso   1.000  O
  Cu36     1.0000 0.63784  0.63784  0.30697  Biso   1.000  Cu
  O263     1.0000 0.60530  0.60530  0.28500  Biso   1.000  O
  O264     1.0000 0.61970  0.61970  0.26710  Biso   1.000  O
  Cu37     1.0000 0.86216  0.13784  0.69303  Biso   1.000  Cu
  O265     1.0000 0.89470  0.10530  0.71500  Biso   1.000  O
  O266     1.0000 0.88030  0.11970  0.73290  Biso   1.000  O
  Cu38     1.0000 0.86216  0.63784  0.19303  Biso   1.000  Cu
  O267     1.0000 0.89470  0.60530  0.21500  Biso   1.000  O
  O268     1.0000 0.88030  0.61970  0.23290  Biso   1.000  O
  Cu39     1.0000 0.36216  0.13784  0.19303  Biso   1.000  Cu
  O269     1.0000 0.39470  0.10530  0.21500  Biso   1.000  O
  O270     1.0000 0.38030  0.11970  0.23290  Biso   1.000  O
  Cu40     1.0000 0.36216  0.63784  0.69303  Biso   1.000  Cu
  O271     1.0000 0.39470  0.60530  0.71500  Biso   1.000  O
  O272     1.0000 0.38030  0.61970  0.73290  Biso   1.000  O
  Cu41     1.0000 0.13784  0.86216  0.69303  Biso   1.000  Cu
  O273     1.0000 0.10530  0.89470  0.71500  Biso   1.000  O
  O274     1.0000 0.11970  0.88030  0.73290  Biso   1.000  O
  Cu42     1.0000 0.13784  0.36216  0.19303  Biso   1.000  Cu
  O275     1.0000 0.10530  0.39470  0.21500  Biso   1.000  O
  O276     1.0000 0.11970  0.38030  0.23290  Biso   1.000  O
  Cu43     1.0000 0.63784  0.86216  0.19303  Biso   1.000  Cu
  O277     1.0000 0.60530  0.89470  0.21500  Biso   1.000  O
  O278     1.0000 0.61970  0.88030  0.23290  Biso   1.000  O
  Cu44     1.0000 0.63784  0.36216  0.69303  Biso   1.000  Cu
  O279     1.0000 0.60530  0.39470  0.71500  Biso   1.000  O
  O280     1.0000 0.61970  0.38030  0.73290  Biso   1.000  O
  Cu45     1.0000 0.86216  0.86216  0.30697  Biso   1.000  Cu
  O281     1.0000 0.89470  0.89470  0.28500  Biso   1.000  O
  O282     1.0000 0.88030  0.88030  0.26710  Biso   1.000  O
  Cu46     1.0000 0.86216  0.36216  0.80697  Biso   1.000  Cu
  O283     1.0000 0.89470  0.39470  0.78500  Biso   1.000  O
  O284     1.0000 0.88030  0.38030  0.76710  Biso   1.000  O
  Cu47     1.0000 0.36216  0.86216  0.80697  Biso   1.000  Cu
  O285     1.0000 0.39470  0.89470  0.78500  Biso   1.000  O
  O286     1.0000 0.38030  0.88030  0.76710  Biso   1.000  O
  Cu48     1.0000 0.36216  0.36216  0.30697  Biso   1.000  Cu
  O287     1.0000 0.39470  0.39470  0.28500  Biso   1.000  O
  O288     1.0000 0.38030  0.38030  0.26710  Biso   1.000  O
  Cu49     1.0000 0.13784  0.30697  0.86216  Biso   1.000  Cu
  O289     1.0000 0.10530  0.28500  0.89470  Biso   1.000  O
  O290     1.0000 0.11970  0.26710  0.88030  Biso   1.000  O
  Cu50     1.0000 0.13784  0.80697  0.36216  Biso   1.000  Cu
  O291     1.0000 0.10530  0.78500  0.39470  Biso   1.000  O
  O292     1.0000 0.11970  0.76710  0.38030  Biso   1.000  O
  Cu51     1.0000 0.63784  0.30697  0.36216  Biso   1.000  Cu
  O293     1.0000 0.60530  0.28500  0.39470  Biso   1.000  O
  O294     1.0000 0.61970  0.26710  0.38030  Biso   1.000  O
  Cu52     1.0000 0.63784  0.80697  0.86216  Biso   1.000  Cu
  O295     1.0000 0.60530  0.78500  0.89470  Biso   1.000  O
  O296     1.0000 0.61970  0.76710  0.88030  Biso   1.000  O
  Cu53     1.0000 0.86216  0.69303  0.86216  Biso   1.000  Cu
  O297     1.0000 0.89470  0.71500  0.89470  Biso   1.000  O
  O298     1.0000 0.88030  0.73290  0.88030  Biso   1.000  O
  Cu54     1.0000 0.86216  0.19303  0.36216  Biso   1.000  Cu
  O299     1.0000 0.89470  0.21500  0.39470  Biso   1.000  O
  O300     1.0000 0.88030  0.23290  0.38030  Biso   1.000  O
  Cu55     1.0000 0.36216  0.69303  0.36216  Biso   1.000  Cu
  O301     1.0000 0.39470  0.71500  0.39470  Biso   1.000  O
  O302     1.0000 0.38030  0.73290  0.38030  Biso   1.000  O
  Cu56     1.0000 0.36216  0.19303  0.86216  Biso   1.000  Cu
  O303     1.0000 0.39470  0.21500  0.89470  Biso   1.000  O
  O304     1.0000 0.38030  0.23290  0.88030  Biso   1.000  O
  Cu57     1.0000 0.13784  0.69303  0.13784  Biso   1.000  Cu
  O305     1.0000 0.10530  0.71500  0.10530  Biso   1.000  O
  O306     1.0000 0.11970  0.73290  0.11970  Biso   1.000  O
  Cu58     1.0000 0.13784  0.19303  0.63784  Biso   1.000  Cu
  O307     1.0000 0.10530  0.21500  0.60530  Biso   1.000  O
  O308     1.0000 0.11970  0.23290  0.61970  Biso   1.000  O
  Cu59     1.0000 0.63784  0.69303  0.63784  Biso   1.000  Cu
  O309     1.0000 0.60530  0.71500  0.60530  Biso   1.000  O
  O310     1.0000 0.61970  0.73290  0.61970  Biso   1.000  O
  Cu60     1.0000 0.63784  0.19303  0.13784  Biso   1.000  Cu
  O311     1.0000 0.60530  0.21500  0.10530  Biso   1.000  O
  O312     1.0000 0.61970  0.23290  0.11970  Biso   1.000  O
  Cu61     1.0000 0.86216  0.30697  0.13784  Biso   1.000  Cu
  O313     1.0000 0.89470  0.28500  0.10530  Biso   1.000  O
  O314     1.0000 0.88030  0.26710  0.11970  Biso   1.000  O
  Cu62     1.0000 0.86216  0.80697  0.63784  Biso   1.000  Cu
  O315     1.0000 0.89470  0.78500  0.60530  Biso   1.000  O
  O316     1.0000 0.88030  0.76710  0.61970  Biso   1.000  O
  Cu63     1.0000 0.36216  0.30697  0.63784  Biso   1.000  Cu
  O317     1.0000 0.39470  0.28500  0.60530  Biso   1.000  O
  O318     1.0000 0.38030  0.26710  0.61970  Biso   1.000  O
  Cu64     1.0000 0.36216  0.80697  0.13784  Biso   1.000  Cu
  O319     1.0000 0.39470  0.78500  0.10530  Biso   1.000  O
  O320     1.0000 0.38030  0.76710  0.11970  Biso   1.000  O
  Cu65     1.0000 0.30697  0.13784  0.86216  Biso   1.000  Cu
  O321     1.0000 0.28500  0.10530  0.89470  Biso   1.000  O
  O322     1.0000 0.26710  0.11970  0.88030  Biso   1.000  O
  Cu66     1.0000 0.30697  0.63784  0.36216  Biso   1.000  Cu
  O323     1.0000 0.28500  0.60530  0.39470  Biso   1.000  O
  O324     1.0000 0.26710  0.61970  0.38030  Biso   1.000  O
  Cu67     1.0000 0.80697  0.13784  0.36216  Biso   1.000  Cu
  O325     1.0000 0.78500  0.10530  0.39470  Biso   1.000  O
  O326     1.0000 0.76710  0.11970  0.38030  Biso   1.000  O
  Cu68     1.0000 0.80697  0.63784  0.86216  Biso   1.000  Cu
  O327     1.0000 0.78500  0.60530  0.89470  Biso   1.000  O
  O328     1.0000 0.76710  0.61970  0.88030  Biso   1.000  O
  Cu69     1.0000 0.69303  0.13784  0.13784  Biso   1.000  Cu
  O329     1.0000 0.71500  0.10530  0.10530  Biso   1.000  O
  O330     1.0000 0.73290  0.11970  0.11970  Biso   1.000  O
  Cu70     1.0000 0.69303  0.63784  0.63784  Biso   1.000  Cu
  O331     1.0000 0.71500  0.60530  0.60530  Biso   1.000  O
  O332     1.0000 0.73290  0.61970  0.61970  Biso   1.000  O
  Cu71     1.0000 0.19303  0.13784  0.63784  Biso   1.000  Cu
  O333     1.0000 0.21500  0.10530  0.60530  Biso   1.000  O
  O334     1.0000 0.23290  0.11970  0.61970  Biso   1.000  O
  Cu72     1.0000 0.19303  0.63784  0.13784  Biso   1.000  Cu
  O335     1.0000 0.21500  0.60530  0.10530  Biso   1.000  O
  O336     1.0000 0.23290  0.61970  0.11970  Biso   1.000  O
  Cu73     1.0000 0.69303  0.86216  0.86216  Biso   1.000  Cu
  O337     1.0000 0.71500  0.89470  0.89470  Biso   1.000  O
  O338     1.0000 0.73290  0.88030  0.88030  Biso   1.000  O
  Cu74     1.0000 0.69303  0.36216  0.36216  Biso   1.000  Cu
  O339     1.0000 0.71500  0.39470  0.39470  Biso   1.000  O
  O340     1.0000 0.73290  0.38030  0.38030  Biso   1.000  O
  Cu75     1.0000 0.19303  0.86216  0.36216  Biso   1.000  Cu
  O341     1.0000 0.21500  0.89470  0.39470  Biso   1.000  O
  O342     1.0000 0.23290  0.88030  0.38030  Biso   1.000  O
  Cu76     1.0000 0.19303  0.36216  0.86216  Biso   1.000  Cu
  O343     1.0000 0.21500  0.39470  0.89470  Biso   1.000  O
  O344     1.0000 0.23290  0.38030  0.88030  Biso   1.000  O
  Cu77     1.0000 0.30697  0.86216  0.13784  Biso   1.000  Cu
  O345     1.0000 0.28500  0.89470  0.10530  Biso   1.000  O
  O346     1.0000 0.26710  0.88030  0.11970  Biso   1.000  O
  Cu78     1.0000 0.30697  0.36216  0.63784  Biso   1.000  Cu
  O347     1.0000 0.28500  0.39470  0.60530  Biso   1.000  O
  O348     1.0000 0.26710  0.38030  0.61970  Biso   1.000  O
  Cu79     1.0000 0.80697  0.86216  0.63784  Biso   1.000  Cu
  O349     1.0000 0.78500  0.89470  0.60530  Biso   1.000  O
  O350     1.0000 0.76710  0.88030  0.61970  Biso   1.000  O
  Cu80     1.0000 0.80697  0.36216  0.13784  Biso   1.000  Cu
  O351     1.0000 0.78500  0.39470  0.10530  Biso   1.000  O
  O352     1.0000 0.76710  0.38030  0.11970  Biso   1.000  O
  Cu81     1.0000 0.13784  0.13784  0.69303  Biso   1.000  Cu
  O353     1.0000 0.10530  0.10530  0.71500  Biso   1.000  O
  O354     1.0000 0.11970  0.11970  0.73290  Biso   1.000  O
  Cu82     1.0000 0.13784  0.63784  0.19303  Biso   1.000  Cu
  O355     1.0000 0.10530  0.60530  0.21500  Biso   1.000  O
  O356     1.0000 0.11970  0.61970  0.23290  Biso   1.000  O
  Cu83     1.0000 0.63784  0.13784  0.19303  Biso   1.000  Cu
  O357     1.0000 0.60530  0.10530  0.21500  Biso   1.000  O
  O358     1.0000 0.61970  0.11970  0.23290  Biso   1.000  O
  Cu84     1.0000 0.63784  0.63784  0.69303  Biso   1.000  Cu
  O359     1.0000 0.60530  0.60530  0.71500  Biso   1.000  O
  O360     1.0000 0.61970  0.61970  0.73290  Biso   1.000  O
  Cu85     1.0000 0.13784  0.86216  0.30697  Biso   1.000  Cu
  O361     1.0000 0.10530  0.89470  0.28500  Biso   1.000  O
  O362     1.0000 0.11970  0.88030  0.26710  Biso   1.000  O
  Cu86     1.0000 0.13784  0.36216  0.80697  Biso   1.000  Cu
  O363     1.0000 0.10530  0.39470  0.78500  Biso   1.000  O
  O364     1.0000 0.11970  0.38030  0.76710  Biso   1.000  O
  Cu87     1.0000 0.63784  0.86216  0.80697  Biso   1.000  Cu
  O365     1.0000 0.60530  0.89470  0.78500  Biso   1.000  O
  O366     1.0000 0.61970  0.88030  0.76710  Biso   1.000  O
  Cu88     1.0000 0.63784  0.36216  0.30697  Biso   1.000  Cu
  O367     1.0000 0.60530  0.39470  0.28500  Biso   1.000  O
  O368     1.0000 0.61970  0.38030  0.26710  Biso   1.000  O
  Cu89     1.0000 0.86216  0.13784  0.30697  Biso   1.000  Cu
  O369     1.0000 0.89470  0.10530  0.28500  Biso   1.000  O
  O370     1.0000 0.88030  0.11970  0.26710  Biso   1.000  O
  Cu90     1.0000 0.86216  0.63784  0.80697  Biso   1.000  Cu
  O371     1.0000 0.89470  0.60530  0.78500  Biso   1.000  O
  O372     1.0000 0.88030  0.61970  0.76710  Biso   1.000  O
  Cu91     1.0000 0.36216  0.13784  0.80697  Biso   1.000  Cu
  O373     1.0000 0.39470  0.10530  0.78500  Biso   1.000  O
  O374     1.0000 0.38030  0.11970  0.76710  Biso   1.000  O
  Cu92     1.0000 0.36216  0.63784  0.30697  Biso   1.000  Cu
  O375     1.0000 0.39470  0.60530  0.28500  Biso   1.000  O
  O376     1.0000 0.38030  0.61970  0.26710  Biso   1.000  O
  Cu93     1.0000 0.86216  0.86216  0.69303  Biso   1.000  Cu
  O377     1.0000 0.89470  0.89470  0.71500  Biso   1.000  O
  O378     1.0000 0.88030  0.88030  0.73290  Biso   1.000  O
  Cu94     1.0000 0.86216  0.36216  0.19303  Biso   1.000  Cu
  O379     1.0000 0.89470  0.39470  0.21500  Biso   1.000  O
  O380     1.0000 0.88030  0.38030  0.23290  Biso   1.000  O
  Cu95     1.0000 0.36216  0.86216  0.19303  Biso   1.000  Cu
  O381     1.0000 0.39470  0.89470  0.21500  Biso   1.000  O
  O382     1.0000 0.38030  0.88030  0.23290  Biso   1.000  O
  Cu96     1.0000 0.36216  0.36216  0.69303  Biso   1.000  Cu
  O383     1.0000 0.39470  0.39470  0.71500  Biso   1.000  O
  O384     1.0000 0.38030  0.38030  0.73290  Biso   1.000  O
  O385     1.0000 0.33780  0.16220  0.16220  Biso   1.000  O
  O386     1.0000 0.33780  0.66220  0.66220  Biso   1.000  O
  O387     1.0000 0.66220  0.83780  0.16220  Biso   1.000  O
  O388     1.0000 0.66220  0.33780  0.66220  Biso   1.000  O
  O389     1.0000 0.16220  0.33780  0.16220  Biso   1.000  O
  O390     1.0000 0.66220  0.16220  0.83780  Biso   1.000  O
  O391     1.0000 0.66220  0.66220  0.33780  Biso   1.000  O
  O392     1.0000 0.16220  0.16220  0.33780  Biso   1.000  O
  O393     1.0000 0.33780  0.83780  0.83780  Biso   1.000  O
  O394     1.0000 0.33780  0.33780  0.33780  Biso   1.000  O
  O395     1.0000 0.16220  0.66220  0.83780  Biso   1.000  O
  O396     1.0000 0.83780  0.66220  0.16220  Biso   1.000  O
  O397     1.0000 0.83780  0.33780  0.83780  Biso   1.000  O
  O398     1.0000 0.83780  0.16220  0.66220  Biso   1.000  O
  O399     1.0000 0.16220  0.83780  0.66220  Biso   1.000  O
  O400     1.0000 0.83780  0.83780  0.33780  Biso   1.000  O
  O401     1.0000 0.16220  0.33780  0.83780  Biso   1.000  O
  O402     1.0000 0.83780  0.66220  0.83780  Biso   1.000  O
  O403     1.0000 0.83780  0.16220  0.33780  Biso   1.000  O
  O404     1.0000 0.33780  0.16220  0.83780  Biso   1.000  O
  O405     1.0000 0.16220  0.66220  0.16220  Biso   1.000  O
  O406     1.0000 0.83780  0.33780  0.16220  Biso   1.000  O
  O407     1.0000 0.33780  0.33780  0.66220  Biso   1.000  O
  O408     1.0000 0.33780  0.66220  0.33780  Biso   1.000  O
  O409     1.0000 0.66220  0.16220  0.16220  Biso   1.000  O
  O410     1.0000 0.66220  0.66220  0.66220  Biso   1.000  O
  O411     1.0000 0.66220  0.83780  0.83780  Biso   1.000  O
  O412     1.0000 0.66220  0.33780  0.33780  Biso   1.000  O
  O413     1.0000 0.16220  0.83780  0.33780  Biso   1.000  O
  O414     1.0000 0.33780  0.83780  0.16220  Biso   1.000  O
  O415     1.0000 0.16220  0.16220  0.66220  Biso   1.000  O
  O416     1.0000 0.83780  0.83780  0.66220  Biso   1.000  O
  C193     1.0000 0.29529  0.20471  0.06840  Biso   1.000  C
  C194     1.0000 0.27944  0.22056  0.04300  Biso   1.000  C
  C195     1.0000 0.29529  0.70471  0.56840  Biso   1.000  C
  C196     1.0000 0.27944  0.72056  0.54300  Biso   1.000  C
  C197     1.0000 0.70471  0.79529  0.06840  Biso   1.000  C
  C198     1.0000 0.72056  0.77944  0.04300  Biso   1.000  C
  C199     1.0000 0.70471  0.29529  0.56840  Biso   1.000  C
  C200     1.0000 0.72056  0.27944  0.54300  Biso   1.000  C
  C201     1.0000 0.20471  0.29529  0.06840  Biso   1.000  C
  C202     1.0000 0.22056  0.27944  0.04300  Biso   1.000  C
  C203     1.0000 0.70471  0.20471  0.93160  Biso   1.000  C
  C204     1.0000 0.72056  0.22056  0.95700  Biso   1.000  C
  C205     1.0000 0.70471  0.70471  0.43160  Biso   1.000  C
  C206     1.0000 0.72056  0.72056  0.45700  Biso   1.000  C
  C207     1.0000 0.20471  0.20471  0.43160  Biso   1.000  C
  C208     1.0000 0.22056  0.22056  0.45700  Biso   1.000  C
  C209     1.0000 0.29529  0.79529  0.93160  Biso   1.000  C
  C210     1.0000 0.27944  0.77944  0.95700  Biso   1.000  C
  C211     1.0000 0.29529  0.29529  0.43160  Biso   1.000  C
  C212     1.0000 0.27944  0.27944  0.45700  Biso   1.000  C
  C213     1.0000 0.06840  0.29529  0.20471  Biso   1.000  C
  C214     1.0000 0.04300  0.27944  0.22056  Biso   1.000  C
  C215     1.0000 0.56840  0.29529  0.70471  Biso   1.000  C
  C216     1.0000 0.54300  0.27944  0.72056  Biso   1.000  C
  C217     1.0000 0.06840  0.70471  0.79529  Biso   1.000  C
  C218     1.0000 0.04300  0.72056  0.77944  Biso   1.000  C
  C219     1.0000 0.06840  0.20471  0.29529  Biso   1.000  C
  C220     1.0000 0.04300  0.22056  0.27944  Biso   1.000  C
  C221     1.0000 0.56840  0.70471  0.29529  Biso   1.000  C
  C222     1.0000 0.54300  0.72056  0.27944  Biso   1.000  C
  C223     1.0000 0.93160  0.70471  0.20471  Biso   1.000  C
  C224     1.0000 0.95700  0.72056  0.22056  Biso   1.000  C
  C225     1.0000 0.43160  0.70471  0.70471  Biso   1.000  C
  C226     1.0000 0.45700  0.72056  0.72056  Biso   1.000  C
  C227     1.0000 0.43160  0.20471  0.20471  Biso   1.000  C
  C228     1.0000 0.45700  0.22056  0.22056  Biso   1.000  C
  C229     1.0000 0.93160  0.29529  0.79529  Biso   1.000  C
  C230     1.0000 0.95700  0.27944  0.77944  Biso   1.000  C
  C231     1.0000 0.43160  0.29529  0.29529  Biso   1.000  C
  C232     1.0000 0.45700  0.27944  0.27944  Biso   1.000  C
  C233     1.0000 0.20471  0.06840  0.29529  Biso   1.000  C
  C234     1.0000 0.22056  0.04300  0.27944  Biso   1.000  C
  C235     1.0000 0.20471  0.56840  0.79529  Biso   1.000  C
  C236     1.0000 0.22056  0.54300  0.77944  Biso   1.000  C
  C237     1.0000 0.79529  0.06840  0.70471  Biso   1.000  C
  C238     1.0000 0.77944  0.04300  0.72056  Biso   1.000  C
  C239     1.0000 0.79529  0.56840  0.20471  Biso   1.000  C
  C240     1.0000 0.77944  0.54300  0.22056  Biso   1.000  C
  C241     1.0000 0.29529  0.06840  0.20471  Biso   1.000  C
  C242     1.0000 0.27944  0.04300  0.22056  Biso   1.000  C
  C243     1.0000 0.20471  0.93160  0.70471  Biso   1.000  C
  C244     1.0000 0.22056  0.95700  0.72056  Biso   1.000  C
  C245     1.0000 0.20471  0.43160  0.20471  Biso   1.000  C
  C246     1.0000 0.22056  0.45700  0.22056  Biso   1.000  C
  C247     1.0000 0.79529  0.93160  0.29529  Biso   1.000  C
  C248     1.0000 0.77944  0.95700  0.27944  Biso   1.000  C
  C249     1.0000 0.79529  0.43160  0.79529  Biso   1.000  C
  C250     1.0000 0.77944  0.45700  0.77944  Biso   1.000  C
  C251     1.0000 0.29529  0.43160  0.29529  Biso   1.000  C
  C252     1.0000 0.27944  0.45700  0.27944  Biso   1.000  C
  C253     1.0000 0.20471  0.29529  0.93160  Biso   1.000  C
  C254     1.0000 0.22056  0.27944  0.95700  Biso   1.000  C
  C255     1.0000 0.20471  0.79529  0.43160  Biso   1.000  C
  C256     1.0000 0.22056  0.77944  0.45700  Biso   1.000  C
  C257     1.0000 0.79529  0.70471  0.93160  Biso   1.000  C
  C258     1.0000 0.77944  0.72056  0.95700  Biso   1.000  C
  C259     1.0000 0.79529  0.20471  0.43160  Biso   1.000  C
  C260     1.0000 0.77944  0.22056  0.45700  Biso   1.000  C
  C261     1.0000 0.29529  0.20471  0.93160  Biso   1.000  C
  C262     1.0000 0.27944  0.22056  0.95700  Biso   1.000  C
  C263     1.0000 0.20471  0.70471  0.06840  Biso   1.000  C
  C264     1.0000 0.22056  0.72056  0.04300  Biso   1.000  C
  C265     1.0000 0.20471  0.20471  0.56840  Biso   1.000  C
  C266     1.0000 0.22056  0.22056  0.54300  Biso   1.000  C
  C267     1.0000 0.79529  0.29529  0.06840  Biso   1.000  C
  C268     1.0000 0.77944  0.27944  0.04300  Biso   1.000  C
  C269     1.0000 0.79529  0.79529  0.56840  Biso   1.000  C
  C270     1.0000 0.77944  0.77944  0.54300  Biso   1.000  C
  C271     1.0000 0.29529  0.29529  0.56840  Biso   1.000  C
  C272     1.0000 0.27944  0.27944  0.54300  Biso   1.000  C
  C273     1.0000 0.29529  0.06840  0.79529  Biso   1.000  C
  C274     1.0000 0.27944  0.04300  0.77944  Biso   1.000  C
  C275     1.0000 0.29529  0.56840  0.29529  Biso   1.000  C
  C276     1.0000 0.27944  0.54300  0.27944  Biso   1.000  C
  C277     1.0000 0.70471  0.06840  0.20471  Biso   1.000  C
  C278     1.0000 0.72056  0.04300  0.22056  Biso   1.000  C
  C279     1.0000 0.70471  0.56840  0.70471  Biso   1.000  C
  C280     1.0000 0.72056  0.54300  0.72056  Biso   1.000  C
  C281     1.0000 0.20471  0.56840  0.20471  Biso   1.000  C
  C282     1.0000 0.22056  0.54300  0.22056  Biso   1.000  C
  C283     1.0000 0.70471  0.93160  0.79529  Biso   1.000  C
  C284     1.0000 0.72056  0.95700  0.77944  Biso   1.000  C
  C285     1.0000 0.70471  0.43160  0.29529  Biso   1.000  C
  C286     1.0000 0.72056  0.45700  0.27944  Biso   1.000  C
  C287     1.0000 0.20471  0.93160  0.29529  Biso   1.000  C
  C288     1.0000 0.22056  0.95700  0.27944  Biso   1.000  C
  C289     1.0000 0.29529  0.93160  0.20471  Biso   1.000  C
  C290     1.0000 0.27944  0.95700  0.22056  Biso   1.000  C
  C291     1.0000 0.29529  0.43160  0.70471  Biso   1.000  C
  C292     1.0000 0.27944  0.45700  0.72056  Biso   1.000  C
  C293     1.0000 0.06840  0.20471  0.70471  Biso   1.000  C
  C294     1.0000 0.04300  0.22056  0.72056  Biso   1.000  C
  C295     1.0000 0.56840  0.20471  0.20471  Biso   1.000  C
  C296     1.0000 0.54300  0.22056  0.22056  Biso   1.000  C
  C297     1.0000 0.06840  0.79529  0.29529  Biso   1.000  C
  C298     1.0000 0.04300  0.77944  0.27944  Biso   1.000  C
  C299     1.0000 0.56840  0.79529  0.79529  Biso   1.000  C
  C300     1.0000 0.54300  0.77944  0.77944  Biso   1.000  C
  C301     1.0000 0.56840  0.29529  0.29529  Biso   1.000  C
  C302     1.0000 0.54300  0.27944  0.27944  Biso   1.000  C
  C303     1.0000 0.93160  0.20471  0.29529  Biso   1.000  C
  C304     1.0000 0.95700  0.22056  0.27944  Biso   1.000  C
  C305     1.0000 0.43160  0.20471  0.79529  Biso   1.000  C
  C306     1.0000 0.45700  0.22056  0.77944  Biso   1.000  C
  C307     1.0000 0.93160  0.79529  0.70471  Biso   1.000  C
  C308     1.0000 0.95700  0.77944  0.72056  Biso   1.000  C
  C309     1.0000 0.93160  0.29529  0.20471  Biso   1.000  C
  C310     1.0000 0.95700  0.27944  0.22056  Biso   1.000  C
  C311     1.0000 0.43160  0.79529  0.20471  Biso   1.000  C
  C312     1.0000 0.45700  0.77944  0.22056  Biso   1.000  C
  C313     1.0000 0.70471  0.79529  0.93160  Biso   1.000  C
  C314     1.0000 0.72056  0.77944  0.95700  Biso   1.000  C
  C315     1.0000 0.70471  0.29529  0.43160  Biso   1.000  C
  C316     1.0000 0.72056  0.27944  0.45700  Biso   1.000  C
  C317     1.0000 0.29529  0.70471  0.43160  Biso   1.000  C
  C318     1.0000 0.27944  0.72056  0.45700  Biso   1.000  C
  C319     1.0000 0.29529  0.79529  0.06840  Biso   1.000  C
  C320     1.0000 0.27944  0.77944  0.04300  Biso   1.000  C
  C321     1.0000 0.70471  0.20471  0.06840  Biso   1.000  C
  C322     1.0000 0.72056  0.22056  0.04300  Biso   1.000  C
  C323     1.0000 0.70471  0.70471  0.56840  Biso   1.000  C
  C324     1.0000 0.72056  0.72056  0.54300  Biso   1.000  C
  C325     1.0000 0.93160  0.70471  0.79529  Biso   1.000  C
  C326     1.0000 0.95700  0.72056  0.77944  Biso   1.000  C
  C327     1.0000 0.43160  0.70471  0.29529  Biso   1.000  C
  C328     1.0000 0.45700  0.72056  0.27944  Biso   1.000  C
  C329     1.0000 0.43160  0.29529  0.70471  Biso   1.000  C
  C330     1.0000 0.45700  0.27944  0.72056  Biso   1.000  C
  C331     1.0000 0.06840  0.29529  0.79529  Biso   1.000  C
  C332     1.0000 0.04300  0.27944  0.77944  Biso   1.000  C
  C333     1.0000 0.06840  0.70471  0.20471  Biso   1.000  C
  C334     1.0000 0.04300  0.72056  0.22056  Biso   1.000  C
  C335     1.0000 0.56840  0.70471  0.70471  Biso   1.000  C
  C336     1.0000 0.54300  0.72056  0.72056  Biso   1.000  C
  C337     1.0000 0.79529  0.93160  0.70471  Biso   1.000  C
  C338     1.0000 0.77944  0.95700  0.72056  Biso   1.000  C
  C339     1.0000 0.79529  0.43160  0.20471  Biso   1.000  C
  C340     1.0000 0.77944  0.45700  0.22056  Biso   1.000  C
  C341     1.0000 0.20471  0.43160  0.79529  Biso   1.000  C
  C342     1.0000 0.22056  0.45700  0.77944  Biso   1.000  C
  C343     1.0000 0.79529  0.06840  0.29529  Biso   1.000  C
  C344     1.0000 0.77944  0.04300  0.27944  Biso   1.000  C
  C345     1.0000 0.79529  0.56840  0.79529  Biso   1.000  C
  C346     1.0000 0.77944  0.54300  0.77944  Biso   1.000  C
  C347     1.0000 0.20471  0.06840  0.70471  Biso   1.000  C
  C348     1.0000 0.22056  0.04300  0.72056  Biso   1.000  C
  C349     1.0000 0.79529  0.70471  0.06840  Biso   1.000  C
  C350     1.0000 0.77944  0.72056  0.04300  Biso   1.000  C
  C351     1.0000 0.79529  0.20471  0.56840  Biso   1.000  C
  C352     1.0000 0.77944  0.22056  0.54300  Biso   1.000  C
  C353     1.0000 0.20471  0.79529  0.56840  Biso   1.000  C
  C354     1.0000 0.22056  0.77944  0.54300  Biso   1.000  C
  C355     1.0000 0.79529  0.29529  0.93160  Biso   1.000  C
  C356     1.0000 0.77944  0.27944  0.95700  Biso   1.000  C
  C357     1.0000 0.79529  0.79529  0.43160  Biso   1.000  C
  C358     1.0000 0.77944  0.77944  0.45700  Biso   1.000  C
  C359     1.0000 0.20471  0.70471  0.93160  Biso   1.000  C
  C360     1.0000 0.22056  0.72056  0.95700  Biso   1.000  C
  C361     1.0000 0.70471  0.93160  0.20471  Biso   1.000  C
  C362     1.0000 0.72056  0.95700  0.22056  Biso   1.000  C
  C363     1.0000 0.70471  0.43160  0.70471  Biso   1.000  C
  C364     1.0000 0.72056  0.45700  0.72056  Biso   1.000  C
  C365     1.0000 0.29529  0.93160  0.79529  Biso   1.000  C
  C366     1.0000 0.27944  0.95700  0.77944  Biso   1.000  C
  C367     1.0000 0.29529  0.56840  0.70471  Biso   1.000  C
  C368     1.0000 0.27944  0.54300  0.72056  Biso   1.000  C
  C369     1.0000 0.70471  0.06840  0.79529  Biso   1.000  C
  C370     1.0000 0.72056  0.04300  0.77944  Biso   1.000  C
  C371     1.0000 0.70471  0.56840  0.29529  Biso   1.000  C
  C372     1.0000 0.72056  0.54300  0.27944  Biso   1.000  C
  C373     1.0000 0.93160  0.79529  0.29529  Biso   1.000  C
  C374     1.0000 0.95700  0.77944  0.27944  Biso   1.000  C
  C375     1.0000 0.43160  0.79529  0.79529  Biso   1.000  C
  C376     1.0000 0.45700  0.77944  0.77944  Biso   1.000  C
  C377     1.0000 0.93160  0.20471  0.70471  Biso   1.000  C
  C378     1.0000 0.95700  0.22056  0.72056  Biso   1.000  C
  C379     1.0000 0.06840  0.79529  0.70471  Biso   1.000  C
  C380     1.0000 0.04300  0.77944  0.72056  Biso   1.000  C
  C381     1.0000 0.56840  0.79529  0.20471  Biso   1.000  C
  C382     1.0000 0.54300  0.77944  0.22056  Biso   1.000  C
  C383     1.0000 0.56840  0.20471  0.79529  Biso   1.000  C
  C384     1.0000 0.54300  0.22056  0.77944  Biso   1.000  C
  Cu97     1.0000 0.22831  0.22831  0.00000  Biso   1.000  Cu
  Cu98     1.0000 0.22831  0.72831  0.50000  Biso   1.000  Cu
  Cu99     1.0000 0.72831  0.22831  0.50000  Biso   1.000  Cu
  Cu100    1.0000 0.72831  0.72831  0.00000  Biso   1.000  Cu
  Cu101    1.0000 0.77169  0.77169  0.00000  Biso   1.000  Cu
  Cu102    1.0000 0.77169  0.27169  0.50000  Biso   1.000  Cu
  Cu103    1.0000 0.27169  0.77169  0.50000  Biso   1.000  Cu
  Cu104    1.0000 0.27169  0.27169  0.00000  Biso   1.000  Cu
  Cu105    1.0000 0.77169  0.22831  0.00000  Biso   1.000  Cu
  Cu106    1.0000 0.77169  0.72831  0.50000  Biso   1.000  Cu
  Cu107    1.0000 0.27169  0.22831  0.50000  Biso   1.000  Cu
  Cu108    1.0000 0.27169  0.72831  0.00000  Biso   1.000  Cu
  Cu109    1.0000 0.22831  0.77169  0.00000  Biso   1.000  Cu
  Cu110    1.0000 0.22831  0.27169  0.50000  Biso   1.000  Cu
  Cu111    1.0000 0.72831  0.77169  0.50000  Biso   1.000  Cu
  Cu112    1.0000 0.72831  0.27169  0.00000  Biso   1.000  Cu
  Cu113    1.0000 0.00000  0.22831  0.22831  Biso   1.000  Cu
  Cu114    1.0000 0.00000  0.72831  0.72831  Biso   1.000  Cu
  Cu115    1.0000 0.50000  0.22831  0.72831  Biso   1.000  Cu
  Cu116    1.0000 0.50000  0.72831  0.22831  Biso   1.000  Cu
  Cu117    1.0000 0.00000  0.77169  0.77169  Biso   1.000  Cu
  Cu118    1.0000 0.00000  0.27169  0.27169  Biso   1.000  Cu
  Cu119    1.0000 0.50000  0.77169  0.27169  Biso   1.000  Cu
  Cu120    1.0000 0.50000  0.27169  0.77169  Biso   1.000  Cu
  Cu121    1.0000 0.00000  0.77169  0.22831  Biso   1.000  Cu
  Cu122    1.0000 0.00000  0.27169  0.72831  Biso   1.000  Cu
  Cu123    1.0000 0.50000  0.77169  0.72831  Biso   1.000  Cu
  Cu124    1.0000 0.50000  0.27169  0.22831  Biso   1.000  Cu
  Cu125    1.0000 0.00000  0.22831  0.77169  Biso   1.000  Cu
  Cu126    1.0000 0.00000  0.72831  0.27169  Biso   1.000  Cu
  Cu127    1.0000 0.50000  0.22831  0.27169  Biso   1.000  Cu
  Cu128    1.0000 0.50000  0.72831  0.77169  Biso   1.000  Cu
  Cu129    1.0000 0.22831  0.00000  0.22831  Biso   1.000  Cu
  Cu130    1.0000 0.22831  0.50000  0.72831  Biso   1.000  Cu
  Cu131    1.0000 0.72831  0.00000  0.72831  Biso   1.000  Cu
  Cu132    1.0000 0.72831  0.50000  0.22831  Biso   1.000  Cu
  Cu133    1.0000 0.77169  0.00000  0.77169  Biso   1.000  Cu
  Cu134    1.0000 0.77169  0.50000  0.27169  Biso   1.000  Cu
  Cu135    1.0000 0.27169  0.00000  0.27169  Biso   1.000  Cu
  Cu136    1.0000 0.27169  0.50000  0.77169  Biso   1.000  Cu
  Cu137    1.0000 0.22831  0.00000  0.77169  Biso   1.000  Cu
  Cu138    1.0000 0.22831  0.50000  0.27169  Biso   1.000  Cu
  Cu139    1.0000 0.72831  0.00000  0.27169  Biso   1.000  Cu
  Cu140    1.0000 0.72831  0.50000  0.77169  Biso   1.000  Cu
  Cu141    1.0000 0.77169  0.00000  0.22831  Biso   1.000  Cu
  Cu142    1.0000 0.77169  0.50000  0.72831  Biso   1.000  Cu
  Cu143    1.0000 0.27169  0.00000  0.72831  Biso   1.000  Cu
  Cu144    1.0000 0.27169  0.50000  0.22831  Biso   1.000  Cu
