data_image0
_cell_length_a       24.502
_cell_length_b       24.502
_cell_length_c       18.45
_cell_angle_alpha    90
_cell_angle_beta     90
_cell_angle_gamma    120

_symmetry_space_group_name_H-M    "P 1"
_symmetry_int_tables_number       1

loop_
  _symmetry_equiv_pos_as_xyz
  'x, y, z'

loop_
  _atom_site_label
  _atom_site_occupancy
  _atom_site_fract_x
  _atom_site_fract_y
  _atom_site_fract_z
  _atom_site_thermal_displace_type
  _atom_site_B_iso_or_equiv
  _atom_site_type_symbol
  Co1      1.0000 0.62950  0.70736  0.49767  Biso   1.000  Co
  S1       1.0000 0.58194  0.76658  0.82387  Biso   1.000  S
  S2       1.0000 0.57659  0.84894  0.69967  Biso   1.000  S
  O1       1.0000 0.58251  0.74101  0.56072  Biso   1.000  O
  O2       1.0000 0.62565  0.75634  0.67224  Biso   1.000  O
  N1       1.0000 0.59028  0.87425  0.83966  Biso   1.000  N
  C1       1.0000 0.58754  0.75559  0.62720  Biso   1.000  C
  N2       1.0000 0.59709  0.85570  0.90786  Biso   1.000  N
  C2       1.0000 0.58238  0.83270  0.78980  Biso   1.000  C
  C3       1.0000 0.59250  0.80020  0.90800  Biso   1.000  C
  H1       1.0000 0.59480  0.78060  0.95020  Biso   1.000  H
  C4       1.0000 0.54000  0.77330  0.65500  Biso   1.000  C
  H2       1.0000 0.51160  0.74120  0.68870  Biso   1.000  H
  H3       1.0000 0.51510  0.77400  0.61450  Biso   1.000  H
  N3       1.0000 0.67920  0.59120  0.56310  Biso   1.000  N
  N4       1.0000 0.68830  0.63880  0.43420  Biso   1.000  N
  N5       1.0000 0.71850  0.61600  0.44850  Biso   1.000  N
  Co2      1.0000 0.29617  0.04069  0.83100  Biso   1.000  Co
  S3       1.0000 0.24861  0.09991  0.15720  Biso   1.000  S
  S4       1.0000 0.24326  0.18227  0.03300  Biso   1.000  S
  O3       1.0000 0.24918  0.07434  0.89405  Biso   1.000  O
  O4       1.0000 0.29232  0.08967  0.00557  Biso   1.000  O
  N6       1.0000 0.25695  0.20758  0.17299  Biso   1.000  N
  C5       1.0000 0.25421  0.08892  0.96053  Biso   1.000  C
  N7       1.0000 0.26376  0.18903  0.24119  Biso   1.000  N
  C6       1.0000 0.24905  0.16603  0.12313  Biso   1.000  C
  C7       1.0000 0.25917  0.13353  0.24133  Biso   1.000  C
  H4       1.0000 0.26147  0.11393  0.28353  Biso   1.000  H
  C8       1.0000 0.20667  0.10663  0.98833  Biso   1.000  C
  H5       1.0000 0.17827  0.07453  0.02203  Biso   1.000  H
  H6       1.0000 0.18177  0.10733  0.94783  Biso   1.000  H
  N8       1.0000 0.34587  0.92453  0.89643  Biso   1.000  N
  N9       1.0000 0.35497  0.97213  0.76753  Biso   1.000  N
  N10      1.0000 0.38517  0.94933  0.78183  Biso   1.000  N
  Co3      1.0000 0.96283  0.37403  0.16434  Biso   1.000  Co
  S5       1.0000 0.91527  0.43325  0.49054  Biso   1.000  S
  S6       1.0000 0.90992  0.51561  0.36634  Biso   1.000  S
  O5       1.0000 0.91584  0.40768  0.22739  Biso   1.000  O
  O6       1.0000 0.95898  0.42301  0.33891  Biso   1.000  O
  N11      1.0000 0.92361  0.54092  0.50633  Biso   1.000  N
  C9       1.0000 0.92087  0.42226  0.29387  Biso   1.000  C
  N12      1.0000 0.93042  0.52237  0.57453  Biso   1.000  N
  C10      1.0000 0.91571  0.49937  0.45647  Biso   1.000  C
  C11      1.0000 0.92583  0.46687  0.57467  Biso   1.000  C
  H7       1.0000 0.92813  0.44727  0.61687  Biso   1.000  H
  C12      1.0000 0.87333  0.43997  0.32167  Biso   1.000  C
  H8       1.0000 0.84493  0.40787  0.35537  Biso   1.000  H
  H9       1.0000 0.84843  0.44067  0.28117  Biso   1.000  H
  N13      1.0000 0.01253  0.25787  0.22977  Biso   1.000  N
  N14      1.0000 0.02163  0.30547  0.10087  Biso   1.000  N
  N15      1.0000 0.05183  0.28267  0.11517  Biso   1.000  N
  Co4      1.0000 0.29264  0.92214  0.49767  Biso   1.000  Co
  S7       1.0000 0.23342  0.81536  0.82387  Biso   1.000  S
  S8       1.0000 0.15106  0.72765  0.69967  Biso   1.000  S
  O7       1.0000 0.25899  0.84150  0.56072  Biso   1.000  O
  O8       1.0000 0.24366  0.86931  0.67224  Biso   1.000  O
  N16      1.0000 0.12575  0.71603  0.83966  Biso   1.000  N
  C13      1.0000 0.24441  0.83195  0.62720  Biso   1.000  C
  N17      1.0000 0.14430  0.74139  0.90786  Biso   1.000  N
  C14      1.0000 0.16730  0.74968  0.78980  Biso   1.000  C
  C15      1.0000 0.19980  0.79230  0.90800  Biso   1.000  C
  H10      1.0000 0.21940  0.81420  0.95020  Biso   1.000  H
  C16      1.0000 0.22670  0.76670  0.65500  Biso   1.000  C
  H11      1.0000 0.25880  0.77040  0.68870  Biso   1.000  H
  H12      1.0000 0.22600  0.74110  0.61450  Biso   1.000  H
  N18      1.0000 0.40880  0.08800  0.56310  Biso   1.000  N
  N19      1.0000 0.36120  0.04950  0.43420  Biso   1.000  N
  N20      1.0000 0.38400  0.10250  0.44850  Biso   1.000  N
  Co5      1.0000 0.95931  0.25547  0.83100  Biso   1.000  Co
  S9       1.0000 0.90009  0.14869  0.15720  Biso   1.000  S
  S10      1.0000 0.81773  0.06098  0.03300  Biso   1.000  S
  O9       1.0000 0.92566  0.17483  0.89405  Biso   1.000  O
  O10      1.0000 0.91033  0.20264  0.00557  Biso   1.000  O
  N21      1.0000 0.79242  0.04936  0.17299  Biso   1.000  N
  C17      1.0000 0.91108  0.16528  0.96053  Biso   1.000  C
  N22      1.0000 0.81097  0.07472  0.24119  Biso   1.000  N
  C18      1.0000 0.83397  0.08301  0.12313  Biso   1.000  C
  C19      1.0000 0.86647  0.12563  0.24133  Biso   1.000  C
  H13      1.0000 0.88607  0.14753  0.28353  Biso   1.000  H
  C20      1.0000 0.89337  0.10003  0.98833  Biso   1.000  C
  H14      1.0000 0.92547  0.10373  0.02203  Biso   1.000  H
  H15      1.0000 0.89267  0.07443  0.94783  Biso   1.000  H
  N23      1.0000 0.07547  0.42133  0.89643  Biso   1.000  N
  N24      1.0000 0.02787  0.38283  0.76753  Biso   1.000  N
  N25      1.0000 0.05067  0.43583  0.78183  Biso   1.000  N
  Co6      1.0000 0.62597  0.58881  0.16434  Biso   1.000  Co
  S11      1.0000 0.56675  0.48203  0.49054  Biso   1.000  S
  S12      1.0000 0.48439  0.39432  0.36634  Biso   1.000  S
  O11      1.0000 0.59232  0.50817  0.22739  Biso   1.000  O
  O12      1.0000 0.57699  0.53598  0.33891  Biso   1.000  O
  N26      1.0000 0.45908  0.38270  0.50633  Biso   1.000  N
  C21      1.0000 0.57774  0.49862  0.29387  Biso   1.000  C
  N27      1.0000 0.47763  0.40806  0.57453  Biso   1.000  N
  C22      1.0000 0.50063  0.41635  0.45647  Biso   1.000  C
  C23      1.0000 0.53313  0.45897  0.57467  Biso   1.000  C
  H16      1.0000 0.55273  0.48087  0.61687  Biso   1.000  H
  C24      1.0000 0.56003  0.43337  0.32167  Biso   1.000  C
  H17      1.0000 0.59213  0.43707  0.35537  Biso   1.000  H
  H18      1.0000 0.55933  0.40777  0.28117  Biso   1.000  H
  N28      1.0000 0.74213  0.75467  0.22977  Biso   1.000  N
  N29      1.0000 0.69453  0.71617  0.10087  Biso   1.000  N
  N30      1.0000 0.71733  0.76917  0.11517  Biso   1.000  N
  Co7      1.0000 0.07786  0.37050  0.49767  Biso   1.000  Co
  S13      1.0000 0.18464  0.41806  0.82387  Biso   1.000  S
  S14      1.0000 0.27235  0.42341  0.69967  Biso   1.000  S
  O13      1.0000 0.15850  0.41749  0.56072  Biso   1.000  O
  O14      1.0000 0.13069  0.37435  0.67224  Biso   1.000  O
  N31      1.0000 0.28397  0.40972  0.83966  Biso   1.000  N
  C25      1.0000 0.16805  0.41246  0.62720  Biso   1.000  C
  N32      1.0000 0.25861  0.40291  0.90786  Biso   1.000  N
  C26      1.0000 0.25032  0.41762  0.78980  Biso   1.000  C
  C27      1.0000 0.20770  0.40750  0.90800  Biso   1.000  C
  H19      1.0000 0.18580  0.40520  0.95020  Biso   1.000  H
  C28      1.0000 0.23330  0.46000  0.65500  Biso   1.000  C
  H20      1.0000 0.22960  0.48840  0.68870  Biso   1.000  H
  H21      1.0000 0.25890  0.48490  0.61450  Biso   1.000  H
  N33      1.0000 0.91200  0.32080  0.56310  Biso   1.000  N
  N34      1.0000 0.95050  0.31170  0.43420  Biso   1.000  N
  N35      1.0000 0.89750  0.28150  0.44850  Biso   1.000  N
  Co8      1.0000 0.74453  0.70383  0.83100  Biso   1.000  Co
  S15      1.0000 0.85131  0.75139  0.15720  Biso   1.000  S
  S16      1.0000 0.93902  0.75674  0.03300  Biso   1.000  S
  O15      1.0000 0.82517  0.75082  0.89405  Biso   1.000  O
  O16      1.0000 0.79736  0.70768  0.00557  Biso   1.000  O
  N36      1.0000 0.95064  0.74305  0.17299  Biso   1.000  N
  C29      1.0000 0.83472  0.74579  0.96053  Biso   1.000  C
  N37      1.0000 0.92528  0.73624  0.24119  Biso   1.000  N
  C30      1.0000 0.91699  0.75095  0.12313  Biso   1.000  C
  C31      1.0000 0.87437  0.74083  0.24133  Biso   1.000  C
  H22      1.0000 0.85247  0.73853  0.28353  Biso   1.000  H
  C32      1.0000 0.89997  0.79333  0.98833  Biso   1.000  C
  H23      1.0000 0.89627  0.82173  0.02203  Biso   1.000  H
  H24      1.0000 0.92557  0.81823  0.94783  Biso   1.000  H
  N38      1.0000 0.57867  0.65413  0.89643  Biso   1.000  N
  N39      1.0000 0.61717  0.64503  0.76753  Biso   1.000  N
  N40      1.0000 0.56417  0.61483  0.78183  Biso   1.000  N
  Co9      1.0000 0.41119  0.03717  0.16434  Biso   1.000  Co
  S17      1.0000 0.51797  0.08473  0.49054  Biso   1.000  S
  S18      1.0000 0.60568  0.09008  0.36634  Biso   1.000  S
  O17      1.0000 0.49183  0.08416  0.22739  Biso   1.000  O
  O18      1.0000 0.46402  0.04102  0.33891  Biso   1.000  O
  N41      1.0000 0.61730  0.07639  0.50633  Biso   1.000  N
  C33      1.0000 0.50138  0.07913  0.29387  Biso   1.000  C
  N42      1.0000 0.59194  0.06958  0.57453  Biso   1.000  N
  C34      1.0000 0.58365  0.08429  0.45647  Biso   1.000  C
  C35      1.0000 0.54103  0.07417  0.57467  Biso   1.000  C
  H25      1.0000 0.51913  0.07187  0.61687  Biso   1.000  H
  C36      1.0000 0.56663  0.12667  0.32167  Biso   1.000  C
  H26      1.0000 0.56293  0.15507  0.35537  Biso   1.000  H
  H27      1.0000 0.59223  0.15157  0.28117  Biso   1.000  H
  N43      1.0000 0.24533  0.98747  0.22977  Biso   1.000  N
  N44      1.0000 0.28383  0.97837  0.10087  Biso   1.000  N
  N45      1.0000 0.23083  0.94817  0.11517  Biso   1.000  N
  Co10     1.0000 0.70736  0.62950  0.00233  Biso   1.000  Co
  S19      1.0000 0.76658  0.58194  0.67613  Biso   1.000  S
  S20      1.0000 0.84894  0.57659  0.80033  Biso   1.000  S
  O19      1.0000 0.74101  0.58251  0.93928  Biso   1.000  O
  O20      1.0000 0.75634  0.62565  0.82776  Biso   1.000  O
  N46      1.0000 0.87425  0.59028  0.66034  Biso   1.000  N
  C37      1.0000 0.75559  0.58754  0.87280  Biso   1.000  C
  N47      1.0000 0.85570  0.59709  0.59214  Biso   1.000  N
  C38      1.0000 0.83270  0.58238  0.71020  Biso   1.000  C
  C39      1.0000 0.80020  0.59250  0.59200  Biso   1.000  C
  H28      1.0000 0.78060  0.59480  0.54980  Biso   1.000  H
  C40      1.0000 0.77330  0.54000  0.84500  Biso   1.000  C
  H29      1.0000 0.74120  0.51160  0.81130  Biso   1.000  H
  H30      1.0000 0.77400  0.51510  0.88550  Biso   1.000  H
  N48      1.0000 0.59120  0.67920  0.93690  Biso   1.000  N
  N49      1.0000 0.63880  0.68830  0.06580  Biso   1.000  N
  N50      1.0000 0.61600  0.71850  0.05150  Biso   1.000  N
  Co11     1.0000 0.37403  0.96283  0.33566  Biso   1.000  Co
  S21      1.0000 0.43325  0.91527  0.00946  Biso   1.000  S
  S22      1.0000 0.51561  0.90992  0.13366  Biso   1.000  S
  O21      1.0000 0.40768  0.91584  0.27261  Biso   1.000  O
  O22      1.0000 0.42301  0.95898  0.16109  Biso   1.000  O
  N51      1.0000 0.54092  0.92361  0.99367  Biso   1.000  N
  C41      1.0000 0.42226  0.92087  0.20613  Biso   1.000  C
  N52      1.0000 0.52237  0.93042  0.92547  Biso   1.000  N
  C42      1.0000 0.49937  0.91571  0.04353  Biso   1.000  C
  C43      1.0000 0.46687  0.92583  0.92533  Biso   1.000  C
  H31      1.0000 0.44727  0.92813  0.88313  Biso   1.000  H
  C44      1.0000 0.43997  0.87333  0.17833  Biso   1.000  C
  H32      1.0000 0.40787  0.84493  0.14463  Biso   1.000  H
  H33      1.0000 0.44067  0.84843  0.21883  Biso   1.000  H
  N53      1.0000 0.25787  0.01253  0.27023  Biso   1.000  N
  N54      1.0000 0.30547  0.02163  0.39913  Biso   1.000  N
  N55      1.0000 0.28267  0.05183  0.38483  Biso   1.000  N
  Co12     1.0000 0.04069  0.29617  0.66900  Biso   1.000  Co
  S23      1.0000 0.09991  0.24861  0.34280  Biso   1.000  S
  S24      1.0000 0.18227  0.24326  0.46700  Biso   1.000  S
  O23      1.0000 0.07434  0.24918  0.60595  Biso   1.000  O
  O24      1.0000 0.08967  0.29232  0.49443  Biso   1.000  O
  N56      1.0000 0.20758  0.25695  0.32701  Biso   1.000  N
  C45      1.0000 0.08892  0.25421  0.53947  Biso   1.000  C
  N57      1.0000 0.18903  0.26376  0.25881  Biso   1.000  N
  C46      1.0000 0.16603  0.24905  0.37687  Biso   1.000  C
  C47      1.0000 0.13353  0.25917  0.25867  Biso   1.000  C
  H34      1.0000 0.11393  0.26147  0.21647  Biso   1.000  H
  C48      1.0000 0.10663  0.20667  0.51167  Biso   1.000  C
  H35      1.0000 0.07453  0.17827  0.47797  Biso   1.000  H
  H36      1.0000 0.10733  0.18177  0.55217  Biso   1.000  H
  N58      1.0000 0.92453  0.34587  0.60357  Biso   1.000  N
  N59      1.0000 0.97213  0.35497  0.73247  Biso   1.000  N
  N60      1.0000 0.94933  0.38517  0.71817  Biso   1.000  N
  Co13     1.0000 0.92214  0.29264  0.00233  Biso   1.000  Co
  S25      1.0000 0.81536  0.23342  0.67613  Biso   1.000  S
  S26      1.0000 0.72765  0.15106  0.80033  Biso   1.000  S
  O25      1.0000 0.84150  0.25899  0.93928  Biso   1.000  O
  O26      1.0000 0.86931  0.24366  0.82776  Biso   1.000  O
  N61      1.0000 0.71603  0.12575  0.66034  Biso   1.000  N
  C49      1.0000 0.83195  0.24441  0.87280  Biso   1.000  C
  N62      1.0000 0.74139  0.14430  0.59214  Biso   1.000  N
  C50      1.0000 0.74968  0.16730  0.71020  Biso   1.000  C
  C51      1.0000 0.79230  0.19980  0.59200  Biso   1.000  C
  H37      1.0000 0.81420  0.21940  0.54980  Biso   1.000  H
  C52      1.0000 0.76670  0.22670  0.84500  Biso   1.000  C
  H38      1.0000 0.77040  0.25880  0.81130  Biso   1.000  H
  H39      1.0000 0.74110  0.22600  0.88550  Biso   1.000  H
  N63      1.0000 0.08800  0.40880  0.93690  Biso   1.000  N
  N64      1.0000 0.04950  0.36120  0.06580  Biso   1.000  N
  N65      1.0000 0.10250  0.38400  0.05150  Biso   1.000  N
  Co14     1.0000 0.58881  0.62597  0.33566  Biso   1.000  Co
  S27      1.0000 0.48203  0.56675  0.00946  Biso   1.000  S
  S28      1.0000 0.39432  0.48439  0.13366  Biso   1.000  S
  O27      1.0000 0.50817  0.59232  0.27261  Biso   1.000  O
  O28      1.0000 0.53598  0.57699  0.16109  Biso   1.000  O
  N66      1.0000 0.38270  0.45908  0.99367  Biso   1.000  N
  C53      1.0000 0.49862  0.57774  0.20613  Biso   1.000  C
  N67      1.0000 0.40806  0.47763  0.92547  Biso   1.000  N
  C54      1.0000 0.41635  0.50063  0.04353  Biso   1.000  C
  C55      1.0000 0.45897  0.53313  0.92533  Biso   1.000  C
  H40      1.0000 0.48087  0.55273  0.88313  Biso   1.000  H
  C56      1.0000 0.43337  0.56003  0.17833  Biso   1.000  C
  H41      1.0000 0.43707  0.59213  0.14463  Biso   1.000  H
  H42      1.0000 0.40777  0.55933  0.21883  Biso   1.000  H
  N68      1.0000 0.75467  0.74213  0.27023  Biso   1.000  N
  N69      1.0000 0.71617  0.69453  0.39913  Biso   1.000  N
  N70      1.0000 0.76917  0.71733  0.38483  Biso   1.000  N
  Co15     1.0000 0.25547  0.95931  0.66900  Biso   1.000  Co
  S29      1.0000 0.14869  0.90009  0.34280  Biso   1.000  S
  S30      1.0000 0.06098  0.81773  0.46700  Biso   1.000  S
  O29      1.0000 0.17483  0.92566  0.60595  Biso   1.000  O
  O30      1.0000 0.20264  0.91033  0.49443  Biso   1.000  O
  N71      1.0000 0.04936  0.79242  0.32701  Biso   1.000  N
  C57      1.0000 0.16528  0.91108  0.53947  Biso   1.000  C
  N72      1.0000 0.07472  0.81097  0.25881  Biso   1.000  N
  C58      1.0000 0.08301  0.83397  0.37687  Biso   1.000  C
  C59      1.0000 0.12563  0.86647  0.25867  Biso   1.000  C
  H43      1.0000 0.14753  0.88607  0.21647  Biso   1.000  H
  C60      1.0000 0.10003  0.89337  0.51167  Biso   1.000  C
  H44      1.0000 0.10373  0.92547  0.47797  Biso   1.000  H
  H45      1.0000 0.07443  0.89267  0.55217  Biso   1.000  H
  N73      1.0000 0.42133  0.07547  0.60357  Biso   1.000  N
  N74      1.0000 0.38283  0.02787  0.73247  Biso   1.000  N
  N75      1.0000 0.43583  0.05067  0.71817  Biso   1.000  N
  Co16     1.0000 0.37050  0.07786  0.00233  Biso   1.000  Co
  S31      1.0000 0.41806  0.18464  0.67613  Biso   1.000  S
  S32      1.0000 0.42341  0.27235  0.80033  Biso   1.000  S
  O31      1.0000 0.41749  0.15850  0.93928  Biso   1.000  O
  O32      1.0000 0.37435  0.13069  0.82776  Biso   1.000  O
  N76      1.0000 0.40972  0.28397  0.66034  Biso   1.000  N
  C61      1.0000 0.41246  0.16805  0.87280  Biso   1.000  C
  N77      1.0000 0.40291  0.25861  0.59214  Biso   1.000  N
  C62      1.0000 0.41762  0.25032  0.71020  Biso   1.000  C
  C63      1.0000 0.40750  0.20770  0.59200  Biso   1.000  C
  H46      1.0000 0.40520  0.18580  0.54980  Biso   1.000  H
  C64      1.0000 0.46000  0.23330  0.84500  Biso   1.000  C
  H47      1.0000 0.48840  0.22960  0.81130  Biso   1.000  H
  H48      1.0000 0.48490  0.25890  0.88550  Biso   1.000  H
  N78      1.0000 0.32080  0.91200  0.93690  Biso   1.000  N
  N79      1.0000 0.31170  0.95050  0.06580  Biso   1.000  N
  N80      1.0000 0.28150  0.89750  0.05150  Biso   1.000  N
  Co17     1.0000 0.03717  0.41119  0.33566  Biso   1.000  Co
  S33      1.0000 0.08473  0.51797  0.00946  Biso   1.000  S
  S34      1.0000 0.09008  0.60568  0.13366  Biso   1.000  S
  O33      1.0000 0.08416  0.49183  0.27261  Biso   1.000  O
  O34      1.0000 0.04102  0.46402  0.16109  Biso   1.000  O
  N81      1.0000 0.07639  0.61730  0.99367  Biso   1.000  N
  C65      1.0000 0.07913  0.50138  0.20613  Biso   1.000  C
  N82      1.0000 0.06958  0.59194  0.92547  Biso   1.000  N
  C66      1.0000 0.08429  0.58365  0.04353  Biso   1.000  C
  C67      1.0000 0.07417  0.54103  0.92533  Biso   1.000  C
  H49      1.0000 0.07187  0.51913  0.88313  Biso   1.000  H
  C68      1.0000 0.12667  0.56663  0.17833  Biso   1.000  C
  H50      1.0000 0.15507  0.56293  0.14463  Biso   1.000  H
  H51      1.0000 0.15157  0.59223  0.21883  Biso   1.000  H
  N83      1.0000 0.98747  0.24533  0.27023  Biso   1.000  N
  N84      1.0000 0.97837  0.28383  0.39913  Biso   1.000  N
  N85      1.0000 0.94817  0.23083  0.38483  Biso   1.000  N
  Co18     1.0000 0.70383  0.74453  0.66900  Biso   1.000  Co
  S35      1.0000 0.75139  0.85131  0.34280  Biso   1.000  S
  S36      1.0000 0.75674  0.93902  0.46700  Biso   1.000  S
  O35      1.0000 0.75082  0.82517  0.60595  Biso   1.000  O
  O36      1.0000 0.70768  0.79736  0.49443  Biso   1.000  O
  N86      1.0000 0.74305  0.95064  0.32701  Biso   1.000  N
  C69      1.0000 0.74579  0.83472  0.53947  Biso   1.000  C
  N87      1.0000 0.73624  0.92528  0.25881  Biso   1.000  N
  C70      1.0000 0.75095  0.91699  0.37687  Biso   1.000  C
  C71      1.0000 0.74083  0.87437  0.25867  Biso   1.000  C
  H52      1.0000 0.73853  0.85247  0.21647  Biso   1.000  H
  C72      1.0000 0.79333  0.89997  0.51167  Biso   1.000  C
  H53      1.0000 0.82173  0.89627  0.47797  Biso   1.000  H
  H54      1.0000 0.81823  0.92557  0.55217  Biso   1.000  H
  N88      1.0000 0.65413  0.57867  0.60357  Biso   1.000  N
  N89      1.0000 0.64503  0.61717  0.73247  Biso   1.000  N
  N90      1.0000 0.61483  0.56417  0.71817  Biso   1.000  N
  Co19     1.0000 0.37050  0.29264  0.50233  Biso   1.000  Co
  S37      1.0000 0.41806  0.23342  0.17613  Biso   1.000  S
  S38      1.0000 0.42341  0.15106  0.30033  Biso   1.000  S
  O37      1.0000 0.41749  0.25899  0.43928  Biso   1.000  O
  O38      1.0000 0.37435  0.24366  0.32776  Biso   1.000  O
  N91      1.0000 0.40972  0.12575  0.16034  Biso   1.000  N
  C73      1.0000 0.41246  0.24441  0.37280  Biso   1.000  C
  N92      1.0000 0.40291  0.14430  0.09214  Biso   1.000  N
  C74      1.0000 0.41762  0.16730  0.21020  Biso   1.000  C
  C75      1.0000 0.40750  0.19980  0.09200  Biso   1.000  C
  H55      1.0000 0.40520  0.21940  0.04980  Biso   1.000  H
  C76      1.0000 0.46000  0.22670  0.34500  Biso   1.000  C
  H56      1.0000 0.48840  0.25880  0.31130  Biso   1.000  H
  H57      1.0000 0.48490  0.22600  0.38550  Biso   1.000  H
  N93      1.0000 0.32080  0.40880  0.43690  Biso   1.000  N
  N94      1.0000 0.31170  0.36120  0.56580  Biso   1.000  N
  N95      1.0000 0.28150  0.38400  0.55150  Biso   1.000  N
  Co20     1.0000 0.03717  0.62597  0.83566  Biso   1.000  Co
  S39      1.0000 0.08473  0.56675  0.50946  Biso   1.000  S
  S40      1.0000 0.09008  0.48439  0.63366  Biso   1.000  S
  O39      1.0000 0.08416  0.59232  0.77261  Biso   1.000  O
  O40      1.0000 0.04102  0.57699  0.66109  Biso   1.000  O
  N96      1.0000 0.07639  0.45908  0.49367  Biso   1.000  N
  C77      1.0000 0.07913  0.57774  0.70613  Biso   1.000  C
  N97      1.0000 0.06958  0.47763  0.42547  Biso   1.000  N
  C78      1.0000 0.08429  0.50063  0.54353  Biso   1.000  C
  C79      1.0000 0.07417  0.53313  0.42533  Biso   1.000  C
  H58      1.0000 0.07187  0.55273  0.38313  Biso   1.000  H
  C80      1.0000 0.12667  0.56003  0.67833  Biso   1.000  C
  H59      1.0000 0.15507  0.59213  0.64463  Biso   1.000  H
  H60      1.0000 0.15157  0.55933  0.71883  Biso   1.000  H
  N98      1.0000 0.98747  0.74213  0.77023  Biso   1.000  N
  N99      1.0000 0.97837  0.69453  0.89913  Biso   1.000  N
  N100     1.0000 0.94817  0.71733  0.88483  Biso   1.000  N
  Co21     1.0000 0.70383  0.95931  0.16900  Biso   1.000  Co
  S41      1.0000 0.75139  0.90009  0.84280  Biso   1.000  S
  S42      1.0000 0.75674  0.81773  0.96700  Biso   1.000  S
  O41      1.0000 0.75082  0.92566  0.10595  Biso   1.000  O
  O42      1.0000 0.70768  0.91033  0.99443  Biso   1.000  O
  N101     1.0000 0.74305  0.79242  0.82701  Biso   1.000  N
  C81      1.0000 0.74579  0.91108  0.03947  Biso   1.000  C
  N102     1.0000 0.73624  0.81097  0.75881  Biso   1.000  N
  C82      1.0000 0.75095  0.83397  0.87687  Biso   1.000  C
  C83      1.0000 0.74083  0.86647  0.75867  Biso   1.000  C
  H61      1.0000 0.73853  0.88607  0.71647  Biso   1.000  H
  C84      1.0000 0.79333  0.89337  0.01167  Biso   1.000  C
  H62      1.0000 0.82173  0.92547  0.97797  Biso   1.000  H
  H63      1.0000 0.81823  0.89267  0.05217  Biso   1.000  H
  N103     1.0000 0.65413  0.07547  0.10357  Biso   1.000  N
  N104     1.0000 0.64503  0.02787  0.23247  Biso   1.000  N
  N105     1.0000 0.61483  0.05067  0.21817  Biso   1.000  N
  Co22     1.0000 0.70736  0.07786  0.50233  Biso   1.000  Co
  S43      1.0000 0.76658  0.18464  0.17613  Biso   1.000  S
  S44      1.0000 0.84894  0.27235  0.30033  Biso   1.000  S
  O43      1.0000 0.74101  0.15850  0.43928  Biso   1.000  O
  O44      1.0000 0.75634  0.13069  0.32776  Biso   1.000  O
  N106     1.0000 0.87425  0.28397  0.16034  Biso   1.000  N
  C85      1.0000 0.75559  0.16805  0.37280  Biso   1.000  C
  N107     1.0000 0.85570  0.25861  0.09214  Biso   1.000  N
  C86      1.0000 0.83270  0.25032  0.21020  Biso   1.000  C
  C87      1.0000 0.80020  0.20770  0.09200  Biso   1.000  C
  H64      1.0000 0.78060  0.18580  0.04980  Biso   1.000  H
  C88      1.0000 0.77330  0.23330  0.34500  Biso   1.000  C
  H65      1.0000 0.74120  0.22960  0.31130  Biso   1.000  H
  H66      1.0000 0.77400  0.25890  0.38550  Biso   1.000  H
  N108     1.0000 0.59120  0.91200  0.43690  Biso   1.000  N
  N109     1.0000 0.63880  0.95050  0.56580  Biso   1.000  N
  N110     1.0000 0.61600  0.89750  0.55150  Biso   1.000  N
  Co23     1.0000 0.37403  0.41119  0.83566  Biso   1.000  Co
  S45      1.0000 0.43325  0.51797  0.50946  Biso   1.000  S
  S46      1.0000 0.51561  0.60568  0.63366  Biso   1.000  S
  O45      1.0000 0.40768  0.49183  0.77261  Biso   1.000  O
  O46      1.0000 0.42301  0.46402  0.66109  Biso   1.000  O
  N111     1.0000 0.54092  0.61730  0.49367  Biso   1.000  N
  C89      1.0000 0.42226  0.50138  0.70613  Biso   1.000  C
  N112     1.0000 0.52237  0.59194  0.42547  Biso   1.000  N
  C90      1.0000 0.49937  0.58365  0.54353  Biso   1.000  C
  C91      1.0000 0.46687  0.54103  0.42533  Biso   1.000  C
  H67      1.0000 0.44727  0.51913  0.38313  Biso   1.000  H
  C92      1.0000 0.43997  0.56663  0.67833  Biso   1.000  C
  H68      1.0000 0.40787  0.56293  0.64463  Biso   1.000  H
  H69      1.0000 0.44067  0.59223  0.71883  Biso   1.000  H
  N113     1.0000 0.25787  0.24533  0.77023  Biso   1.000  N
  N114     1.0000 0.30547  0.28383  0.89913  Biso   1.000  N
  N115     1.0000 0.28267  0.23083  0.88483  Biso   1.000  N
  Co24     1.0000 0.04069  0.74453  0.16900  Biso   1.000  Co
  S47      1.0000 0.09991  0.85131  0.84280  Biso   1.000  S
  S48      1.0000 0.18227  0.93902  0.96700  Biso   1.000  S
  O47      1.0000 0.07434  0.82517  0.10595  Biso   1.000  O
  O48      1.0000 0.08967  0.79736  0.99443  Biso   1.000  O
  N116     1.0000 0.20758  0.95064  0.82701  Biso   1.000  N
  C93      1.0000 0.08892  0.83472  0.03947  Biso   1.000  C
  N117     1.0000 0.18903  0.92528  0.75881  Biso   1.000  N
  C94      1.0000 0.16603  0.91699  0.87687  Biso   1.000  C
  C95      1.0000 0.13353  0.87437  0.75867  Biso   1.000  C
  H70      1.0000 0.11393  0.85247  0.71647  Biso   1.000  H
  C96      1.0000 0.10663  0.89997  0.01167  Biso   1.000  C
  H71      1.0000 0.07453  0.89627  0.97797  Biso   1.000  H
  H72      1.0000 0.10733  0.92557  0.05217  Biso   1.000  H
  N118     1.0000 0.92453  0.57867  0.10357  Biso   1.000  N
  N119     1.0000 0.97213  0.61717  0.23247  Biso   1.000  N
  N120     1.0000 0.94933  0.56417  0.21817  Biso   1.000  N
  Co25     1.0000 0.92214  0.62950  0.50233  Biso   1.000  Co
  S49      1.0000 0.81536  0.58194  0.17613  Biso   1.000  S
  S50      1.0000 0.72765  0.57659  0.30033  Biso   1.000  S
  O49      1.0000 0.84150  0.58251  0.43928  Biso   1.000  O
  O50      1.0000 0.86931  0.62565  0.32776  Biso   1.000  O
  N121     1.0000 0.71603  0.59028  0.16034  Biso   1.000  N
  C97      1.0000 0.83195  0.58754  0.37280  Biso   1.000  C
  N122     1.0000 0.74139  0.59709  0.09214  Biso   1.000  N
  C98      1.0000 0.74968  0.58238  0.21020  Biso   1.000  C
  C99      1.0000 0.79230  0.59250  0.09200  Biso   1.000  C
  H73      1.0000 0.81420  0.59480  0.04980  Biso   1.000  H
  C100     1.0000 0.76670  0.54000  0.34500  Biso   1.000  C
  H74      1.0000 0.77040  0.51160  0.31130  Biso   1.000  H
  H75      1.0000 0.74110  0.51510  0.38550  Biso   1.000  H
  N123     1.0000 0.08800  0.67920  0.43690  Biso   1.000  N
  N124     1.0000 0.04950  0.68830  0.56580  Biso   1.000  N
  N125     1.0000 0.10250  0.71850  0.55150  Biso   1.000  N
  Co26     1.0000 0.58881  0.96283  0.83566  Biso   1.000  Co
  S51      1.0000 0.48203  0.91527  0.50946  Biso   1.000  S
  S52      1.0000 0.39432  0.90992  0.63366  Biso   1.000  S
  O51      1.0000 0.50817  0.91584  0.77261  Biso   1.000  O
  O52      1.0000 0.53598  0.95898  0.66109  Biso   1.000  O
  N126     1.0000 0.38270  0.92361  0.49367  Biso   1.000  N
  C101     1.0000 0.49862  0.92087  0.70613  Biso   1.000  C
  N127     1.0000 0.40806  0.93042  0.42547  Biso   1.000  N
  C102     1.0000 0.41635  0.91571  0.54353  Biso   1.000  C
  C103     1.0000 0.45897  0.92583  0.42533  Biso   1.000  C
  H76      1.0000 0.48087  0.92813  0.38313  Biso   1.000  H
  C104     1.0000 0.43337  0.87333  0.67833  Biso   1.000  C
  H77      1.0000 0.43707  0.84493  0.64463  Biso   1.000  H
  H78      1.0000 0.40777  0.84843  0.71883  Biso   1.000  H
  N128     1.0000 0.75467  0.01253  0.77023  Biso   1.000  N
  N129     1.0000 0.71617  0.02163  0.89913  Biso   1.000  N
  N130     1.0000 0.76917  0.05183  0.88483  Biso   1.000  N
  Co27     1.0000 0.25547  0.29617  0.16900  Biso   1.000  Co
  S53      1.0000 0.14869  0.24861  0.84280  Biso   1.000  S
  S54      1.0000 0.06098  0.24326  0.96700  Biso   1.000  S
  O53      1.0000 0.17483  0.24918  0.10595  Biso   1.000  O
  O54      1.0000 0.20264  0.29232  0.99443  Biso   1.000  O
  N131     1.0000 0.04936  0.25695  0.82701  Biso   1.000  N
  C105     1.0000 0.16528  0.25421  0.03947  Biso   1.000  C
  N132     1.0000 0.07472  0.26376  0.75881  Biso   1.000  N
  C106     1.0000 0.08301  0.24905  0.87687  Biso   1.000  C
  C107     1.0000 0.12563  0.25917  0.75867  Biso   1.000  C
  H79      1.0000 0.14753  0.26147  0.71647  Biso   1.000  H
  C108     1.0000 0.10003  0.20667  0.01167  Biso   1.000  C
  H80      1.0000 0.10373  0.17827  0.97797  Biso   1.000  H
  H81      1.0000 0.07443  0.18177  0.05217  Biso   1.000  H
  N133     1.0000 0.42133  0.34587  0.10357  Biso   1.000  N
  N134     1.0000 0.38283  0.35497  0.23247  Biso   1.000  N
  N135     1.0000 0.43583  0.38517  0.21817  Biso   1.000  N
  Co28     1.0000 0.29264  0.37050  0.99767  Biso   1.000  Co
  S55      1.0000 0.23342  0.41806  0.32387  Biso   1.000  S
  S56      1.0000 0.15106  0.42341  0.19967  Biso   1.000  S
  O55      1.0000 0.25899  0.41749  0.06072  Biso   1.000  O
  O56      1.0000 0.24366  0.37435  0.17224  Biso   1.000  O
  N136     1.0000 0.12575  0.40972  0.33966  Biso   1.000  N
  C109     1.0000 0.24441  0.41246  0.12720  Biso   1.000  C
  N137     1.0000 0.14430  0.40291  0.40786  Biso   1.000  N
  C110     1.0000 0.16730  0.41762  0.28980  Biso   1.000  C
  C111     1.0000 0.19980  0.40750  0.40800  Biso   1.000  C
  H82      1.0000 0.21940  0.40520  0.45020  Biso   1.000  H
  C112     1.0000 0.22670  0.46000  0.15500  Biso   1.000  C
  H83      1.0000 0.25880  0.48840  0.18870  Biso   1.000  H
  H84      1.0000 0.22600  0.48490  0.11450  Biso   1.000  H
  N138     1.0000 0.40880  0.32080  0.06310  Biso   1.000  N
  N139     1.0000 0.36120  0.31170  0.93420  Biso   1.000  N
  N140     1.0000 0.38400  0.28150  0.94850  Biso   1.000  N
  Co29     1.0000 0.95931  0.70383  0.33100  Biso   1.000  Co
  S57      1.0000 0.90009  0.75139  0.65720  Biso   1.000  S
  S58      1.0000 0.81773  0.75674  0.53300  Biso   1.000  S
  O57      1.0000 0.92566  0.75082  0.39405  Biso   1.000  O
  O58      1.0000 0.91033  0.70768  0.50557  Biso   1.000  O
  N141     1.0000 0.79242  0.74305  0.67299  Biso   1.000  N
  C113     1.0000 0.91108  0.74579  0.46053  Biso   1.000  C
  N142     1.0000 0.81097  0.73624  0.74119  Biso   1.000  N
  C114     1.0000 0.83397  0.75095  0.62313  Biso   1.000  C
  C115     1.0000 0.86647  0.74083  0.74133  Biso   1.000  C
  H85      1.0000 0.88607  0.73853  0.78353  Biso   1.000  H
  C116     1.0000 0.89337  0.79333  0.48833  Biso   1.000  C
  H86      1.0000 0.92547  0.82173  0.52203  Biso   1.000  H
  H87      1.0000 0.89267  0.81823  0.44783  Biso   1.000  H
  N143     1.0000 0.07547  0.65413  0.39643  Biso   1.000  N
  N144     1.0000 0.02787  0.64503  0.26753  Biso   1.000  N
  N145     1.0000 0.05067  0.61483  0.28183  Biso   1.000  N
  Co30     1.0000 0.62597  0.03717  0.66434  Biso   1.000  Co
  S59      1.0000 0.56675  0.08473  0.99054  Biso   1.000  S
  S60      1.0000 0.48439  0.09008  0.86634  Biso   1.000  S
  O59      1.0000 0.59232  0.08416  0.72739  Biso   1.000  O
  O60      1.0000 0.57699  0.04102  0.83891  Biso   1.000  O
  N146     1.0000 0.45908  0.07639  0.00633  Biso   1.000  N
  C117     1.0000 0.57774  0.07913  0.79387  Biso   1.000  C
  N147     1.0000 0.47763  0.06958  0.07453  Biso   1.000  N
  C118     1.0000 0.50063  0.08429  0.95647  Biso   1.000  C
  C119     1.0000 0.53313  0.07417  0.07467  Biso   1.000  C
  H88      1.0000 0.55273  0.07187  0.11687  Biso   1.000  H
  C120     1.0000 0.56003  0.12667  0.82167  Biso   1.000  C
  H89      1.0000 0.59213  0.15507  0.85537  Biso   1.000  H
  H90      1.0000 0.55933  0.15157  0.78117  Biso   1.000  H
  N148     1.0000 0.74213  0.98747  0.72977  Biso   1.000  N
  N149     1.0000 0.69453  0.97837  0.60087  Biso   1.000  N
  N150     1.0000 0.71733  0.94817  0.61517  Biso   1.000  N
  Co31     1.0000 0.07786  0.70736  0.99767  Biso   1.000  Co
  S61      1.0000 0.18464  0.76658  0.32387  Biso   1.000  S
  S62      1.0000 0.27235  0.84894  0.19967  Biso   1.000  S
  O61      1.0000 0.15850  0.74101  0.06072  Biso   1.000  O
  O62      1.0000 0.13069  0.75634  0.17224  Biso   1.000  O
  N151     1.0000 0.28397  0.87425  0.33966  Biso   1.000  N
  C121     1.0000 0.16805  0.75559  0.12720  Biso   1.000  C
  N152     1.0000 0.25861  0.85570  0.40786  Biso   1.000  N
  C122     1.0000 0.25032  0.83270  0.28980  Biso   1.000  C
  C123     1.0000 0.20770  0.80020  0.40800  Biso   1.000  C
  H91      1.0000 0.18580  0.78060  0.45020  Biso   1.000  H
  C124     1.0000 0.23330  0.77330  0.15500  Biso   1.000  C
  H92      1.0000 0.22960  0.74120  0.18870  Biso   1.000  H
  H93      1.0000 0.25890  0.77400  0.11450  Biso   1.000  H
  N153     1.0000 0.91200  0.59120  0.06310  Biso   1.000  N
  N154     1.0000 0.95050  0.63880  0.93420  Biso   1.000  N
  N155     1.0000 0.89750  0.61600  0.94850  Biso   1.000  N
  Co32     1.0000 0.74453  0.04069  0.33100  Biso   1.000  Co
  S63      1.0000 0.85131  0.09991  0.65720  Biso   1.000  S
  S64      1.0000 0.93902  0.18227  0.53300  Biso   1.000  S
  O63      1.0000 0.82517  0.07434  0.39405  Biso   1.000  O
  O64      1.0000 0.79736  0.08967  0.50557  Biso   1.000  O
  N156     1.0000 0.95064  0.20758  0.67299  Biso   1.000  N
  C125     1.0000 0.83472  0.08892  0.46053  Biso   1.000  C
  N157     1.0000 0.92528  0.18903  0.74119  Biso   1.000  N
  C126     1.0000 0.91699  0.16603  0.62313  Biso   1.000  C
  C127     1.0000 0.87437  0.13353  0.74133  Biso   1.000  C
  H94      1.0000 0.85247  0.11393  0.78353  Biso   1.000  H
  C128     1.0000 0.89997  0.10663  0.48833  Biso   1.000  C
  H95      1.0000 0.89627  0.07453  0.52203  Biso   1.000  H
  H96      1.0000 0.92557  0.10733  0.44783  Biso   1.000  H
  N158     1.0000 0.57867  0.92453  0.39643  Biso   1.000  N
  N159     1.0000 0.61717  0.97213  0.26753  Biso   1.000  N
  N160     1.0000 0.56417  0.94933  0.28183  Biso   1.000  N
  Co33     1.0000 0.41119  0.37403  0.66434  Biso   1.000  Co
  S65      1.0000 0.51797  0.43325  0.99054  Biso   1.000  S
  S66      1.0000 0.60568  0.51561  0.86634  Biso   1.000  S
  O65      1.0000 0.49183  0.40768  0.72739  Biso   1.000  O
  O66      1.0000 0.46402  0.42301  0.83891  Biso   1.000  O
  N161     1.0000 0.61730  0.54092  0.00633  Biso   1.000  N
  C129     1.0000 0.50138  0.42226  0.79387  Biso   1.000  C
  N162     1.0000 0.59194  0.52237  0.07453  Biso   1.000  N
  C130     1.0000 0.58365  0.49937  0.95647  Biso   1.000  C
  C131     1.0000 0.54103  0.46687  0.07467  Biso   1.000  C
  H97      1.0000 0.51913  0.44727  0.11687  Biso   1.000  H
  C132     1.0000 0.56663  0.43997  0.82167  Biso   1.000  C
  H98      1.0000 0.56293  0.40787  0.85537  Biso   1.000  H
  H99      1.0000 0.59223  0.44067  0.78117  Biso   1.000  H
  N163     1.0000 0.24533  0.25787  0.72977  Biso   1.000  N
  N164     1.0000 0.28383  0.30547  0.60087  Biso   1.000  N
  N165     1.0000 0.23083  0.28267  0.61517  Biso   1.000  N
  Co34     1.0000 0.62950  0.92214  0.99767  Biso   1.000  Co
  S67      1.0000 0.58194  0.81536  0.32387  Biso   1.000  S
  S68      1.0000 0.57659  0.72765  0.19967  Biso   1.000  S
  O67      1.0000 0.58251  0.84150  0.06072  Biso   1.000  O
  O68      1.0000 0.62565  0.86931  0.17224  Biso   1.000  O
  N166     1.0000 0.59028  0.71603  0.33966  Biso   1.000  N
  C133     1.0000 0.58754  0.83195  0.12720  Biso   1.000  C
  N167     1.0000 0.59709  0.74139  0.40786  Biso   1.000  N
  C134     1.0000 0.58238  0.74968  0.28980  Biso   1.000  C
  C135     1.0000 0.59250  0.79230  0.40800  Biso   1.000  C
  H100     1.0000 0.59480  0.81420  0.45020  Biso   1.000  H
  C136     1.0000 0.54000  0.76670  0.15500  Biso   1.000  C
  H101     1.0000 0.51160  0.77040  0.18870  Biso   1.000  H
  H102     1.0000 0.51510  0.74110  0.11450  Biso   1.000  H
  N168     1.0000 0.67920  0.08800  0.06310  Biso   1.000  N
  N169     1.0000 0.68830  0.04950  0.93420  Biso   1.000  N
  N170     1.0000 0.71850  0.10250  0.94850  Biso   1.000  N
  Co35     1.0000 0.29617  0.25547  0.33100  Biso   1.000  Co
  S69      1.0000 0.24861  0.14869  0.65720  Biso   1.000  S
  S70      1.0000 0.24326  0.06098  0.53300  Biso   1.000  S
  O69      1.0000 0.24918  0.17483  0.39405  Biso   1.000  O
  O70      1.0000 0.29232  0.20264  0.50557  Biso   1.000  O
  N171     1.0000 0.25695  0.04936  0.67299  Biso   1.000  N
  C137     1.0000 0.25421  0.16528  0.46053  Biso   1.000  C
  N172     1.0000 0.26376  0.07472  0.74119  Biso   1.000  N
  C138     1.0000 0.24905  0.08301  0.62313  Biso   1.000  C
  C139     1.0000 0.25917  0.12563  0.74133  Biso   1.000  C
  H103     1.0000 0.26147  0.14753  0.78353  Biso   1.000  H
  C140     1.0000 0.20667  0.10003  0.48833  Biso   1.000  C
  H104     1.0000 0.17827  0.10373  0.52203  Biso   1.000  H
  H105     1.0000 0.18177  0.07443  0.44783  Biso   1.000  H
  N173     1.0000 0.34587  0.42133  0.39643  Biso   1.000  N
  N174     1.0000 0.35497  0.38283  0.26753  Biso   1.000  N
  N175     1.0000 0.38517  0.43583  0.28183  Biso   1.000  N
  Co36     1.0000 0.96283  0.58881  0.66434  Biso   1.000  Co
  S71      1.0000 0.91527  0.48203  0.99054  Biso   1.000  S
  S72      1.0000 0.90992  0.39432  0.86634  Biso   1.000  S
  O71      1.0000 0.91584  0.50817  0.72739  Biso   1.000  O
  O72      1.0000 0.95898  0.53598  0.83891  Biso   1.000  O
  N176     1.0000 0.92361  0.38270  0.00633  Biso   1.000  N
  C141     1.0000 0.92087  0.49862  0.79387  Biso   1.000  C
  N177     1.0000 0.93042  0.40806  0.07453  Biso   1.000  N
  C142     1.0000 0.91571  0.41635  0.95647  Biso   1.000  C
  C143     1.0000 0.92583  0.45897  0.07467  Biso   1.000  C
  H106     1.0000 0.92813  0.48087  0.11687  Biso   1.000  H
  C144     1.0000 0.87333  0.43337  0.82167  Biso   1.000  C
  H107     1.0000 0.84493  0.43707  0.85537  Biso   1.000  H
  H108     1.0000 0.84843  0.40777  0.78117  Biso   1.000  H
  N178     1.0000 0.01253  0.75467  0.72977  Biso   1.000  N
  N179     1.0000 0.02163  0.71617  0.60087  Biso   1.000  N
  N180     1.0000 0.05183  0.76917  0.61517  Biso   1.000  N
  N181     1.0000 0.66667  0.67988  0.58333  Biso   1.000  N
  N182     1.0000 0.66667  0.63168  0.58333  Biso   1.000  N
  N183     1.0000 0.32012  0.98678  0.58333  Biso   1.000  N
  N184     1.0000 0.36832  0.03498  0.58333  Biso   1.000  N
  N185     1.0000 0.01322  0.33333  0.58333  Biso   1.000  N
  N186     1.0000 0.96502  0.33333  0.58333  Biso   1.000  N
  N187     1.0000 0.67988  0.66667  0.91667  Biso   1.000  N
  N188     1.0000 0.63168  0.66667  0.91667  Biso   1.000  N
  N189     1.0000 0.34655  0.00000  0.25000  Biso   1.000  N
  N190     1.0000 0.29835  0.00000  0.25000  Biso   1.000  N
  N191     1.0000 0.98678  0.32012  0.91667  Biso   1.000  N
  N192     1.0000 0.03498  0.36832  0.91667  Biso   1.000  N
  N193     1.0000 0.65345  0.65345  0.25000  Biso   1.000  N
  N194     1.0000 0.70165  0.70165  0.25000  Biso   1.000  N
  N195     1.0000 0.33333  0.01322  0.91667  Biso   1.000  N
  N196     1.0000 0.33333  0.96502  0.91667  Biso   1.000  N
  N197     1.0000 0.00000  0.34655  0.25000  Biso   1.000  N
  N198     1.0000 0.00000  0.29835  0.25000  Biso   1.000  N
  N199     1.0000 0.33333  0.32012  0.41667  Biso   1.000  N
  N200     1.0000 0.33333  0.36832  0.41667  Biso   1.000  N
  N201     1.0000 0.00000  0.65345  0.75000  Biso   1.000  N
  N202     1.0000 0.00000  0.70165  0.75000  Biso   1.000  N
  N203     1.0000 0.67988  0.01322  0.41667  Biso   1.000  N
  N204     1.0000 0.63168  0.96502  0.41667  Biso   1.000  N
  N205     1.0000 0.34655  0.34655  0.75000  Biso   1.000  N
  N206     1.0000 0.29835  0.29835  0.75000  Biso   1.000  N
  N207     1.0000 0.98678  0.66667  0.41667  Biso   1.000  N
  N208     1.0000 0.03498  0.66667  0.41667  Biso   1.000  N
  N209     1.0000 0.65345  0.00000  0.75000  Biso   1.000  N
  N210     1.0000 0.70165  0.00000  0.75000  Biso   1.000  N
  N211     1.0000 0.32012  0.33333  0.08333  Biso   1.000  N
  N212     1.0000 0.36832  0.33333  0.08333  Biso   1.000  N
  N213     1.0000 0.01322  0.67988  0.08333  Biso   1.000  N
  N214     1.0000 0.96502  0.63168  0.08333  Biso   1.000  N
  N215     1.0000 0.66667  0.98678  0.08333  Biso   1.000  N
  N216     1.0000 0.66667  0.03498  0.08333  Biso   1.000  N
  N217     1.0000 0.65898  0.66667  0.41667  Biso   1.000  N
  N218     1.0000 0.32565  0.00000  0.75000  Biso   1.000  N
  N219     1.0000 0.33333  0.99232  0.41667  Biso   1.000  N
  N220     1.0000 0.00000  0.32565  0.75000  Biso   1.000  N
  N221     1.0000 0.00768  0.34102  0.41667  Biso   1.000  N
  N222     1.0000 0.67435  0.67435  0.75000  Biso   1.000  N
  N223     1.0000 0.66667  0.65898  0.08333  Biso   1.000  N
  N224     1.0000 0.99232  0.33333  0.08333  Biso   1.000  N
  N225     1.0000 0.34102  0.00768  0.08333  Biso   1.000  N
  N226     1.0000 0.34102  0.33333  0.58333  Biso   1.000  N
  N227     1.0000 0.66667  0.00768  0.58333  Biso   1.000  N
  N228     1.0000 0.99232  0.65898  0.58333  Biso   1.000  N
  N229     1.0000 0.33333  0.34102  0.91667  Biso   1.000  N
  N230     1.0000 0.00000  0.67435  0.25000  Biso   1.000  N
  N231     1.0000 0.00768  0.66667  0.91667  Biso   1.000  N
  N232     1.0000 0.67435  0.00000  0.25000  Biso   1.000  N
  N233     1.0000 0.65898  0.99232  0.91667  Biso   1.000  N
  N234     1.0000 0.32565  0.32565  0.25000  Biso   1.000  N
