data_image0
_cell_length_a       31.369
_cell_length_b       31.369
_cell_length_c       19.806
_cell_angle_alpha    90
_cell_angle_beta     90
_cell_angle_gamma    90

_symmetry_space_group_name_H-M    "P 1"
_symmetry_int_tables_number       1

loop_
  _symmetry_equiv_pos_as_xyz
  'x, y, z'

loop_
  _atom_site_label
  _atom_site_occupancy
  _atom_site_fract_x
  _atom_site_fract_y
  _atom_site_fract_z
  _atom_site_thermal_displace_type
  _atom_site_B_iso_or_equiv
  _atom_site_type_symbol
  C1       1.0000 0.68560  0.21500  0.58590  Biso   1.000  C
  C2       1.0000 0.72110  0.20820  0.63270  Biso   1.000  C
  C3       1.0000 0.75030  0.23950  0.64400  Biso   1.000  C
  H1       1.0000 0.74750  0.26620  0.62190  Biso   1.000  H
  C4       1.0000 0.78560  0.23240  0.68950  Biso   1.000  C
  C5       1.0000 0.78790  0.19250  0.72100  Biso   1.000  C
  H2       1.0000 0.81080  0.18680  0.75100  Biso   1.000  H
  C6       1.0000 0.75840  0.16180  0.71000  Biso   1.000  C
  C7       1.0000 0.72620  0.16930  0.66550  Biso   1.000  C
  H3       1.0000 0.70640  0.14710  0.65650  Biso   1.000  H
  C8       1.0000 0.81580  0.26470  0.69970  Biso   1.000  C
  C9       1.0000 0.84070  0.29450  0.70870  Biso   1.000  C
  C10      1.0000 0.86750  0.32980  0.71890  Biso   1.000  C
  C11      1.0000 0.88510  0.34010  0.78030  Biso   1.000  C
  H4       1.0000 0.87880  0.32270  0.81820  Biso   1.000  H
  C12      1.0000 0.91070  0.37340  0.78870  Biso   1.000  C
  H5       1.0000 0.92300  0.37860  0.83170  Biso   1.000  H
  C13      1.0000 0.91950  0.40080  0.73560  Biso   1.000  C
  C14      1.0000 0.94880  0.43690  0.74320  Biso   1.000  C
  C15      1.0000 0.89960  0.39050  0.67300  Biso   1.000  C
  H6       1.0000 0.90470  0.40880  0.63570  Biso   1.000  H
  C16      1.0000 0.87490  0.35790  0.66340  Biso   1.000  C
  H7       1.0000 0.86220  0.35290  0.62070  Biso   1.000  H
  C17      1.0000 0.75960  0.12120  0.74720  Biso   1.000  C
  C18      1.0000 0.75750  0.08680  0.77140  Biso   1.000  C
  C19      1.0000 0.75360  0.04780  0.80560  Biso   1.000  C
  C20      1.0000 0.71420  0.03510  0.81990  Biso   1.000  C
  H8       1.0000 0.69100  0.05220  0.80520  Biso   1.000  H
  C21      1.0000 0.70590  0.99880  0.85490  Biso   1.000  C
  H9       1.0000 0.67740  0.99140  0.86620  Biso   1.000  H
  C22      1.0000 0.74090  0.97160  0.87490  Biso   1.000  C
  C23      1.0000 0.73200  0.93220  0.91610  Biso   1.000  C
  C24      1.0000 0.77900  0.98620  0.86140  Biso   1.000  C
  H10      1.0000 0.80320  0.96980  0.87390  Biso   1.000  H
  C25      1.0000 0.78510  0.02510  0.82940  Biso   1.000  C
  H11      1.0000 0.81340  0.03560  0.82450  Biso   1.000  H
  O1       1.0000 0.67861  0.25333  0.56790  Biso   1.000  O
  O2       1.0000 0.66324  0.18348  0.56890  Biso   1.000  O
  O3       1.0000 0.96140  0.45320  0.68620  Biso   1.000  O
  O4       1.0000 0.96070  0.44940  0.79970  Biso   1.000  O
  O5       1.0000 0.69446  0.92397  0.93230  Biso   1.000  O
  O6       1.0000 0.76560  0.91020  0.93030  Biso   1.000  O
  O7       1.0000 0.61450  0.11210  0.51000  Biso   1.000  O
  C26      1.0000 0.31440  0.78500  0.58590  Biso   1.000  C
  C27      1.0000 0.27890  0.79180  0.63270  Biso   1.000  C
  C28      1.0000 0.24970  0.76050  0.64400  Biso   1.000  C
  H12      1.0000 0.25250  0.73380  0.62190  Biso   1.000  H
  C29      1.0000 0.21440  0.76760  0.68950  Biso   1.000  C
  C30      1.0000 0.21210  0.80750  0.72100  Biso   1.000  C
  H13      1.0000 0.18920  0.81320  0.75100  Biso   1.000  H
  C31      1.0000 0.24160  0.83820  0.71000  Biso   1.000  C
  C32      1.0000 0.27380  0.83070  0.66550  Biso   1.000  C
  H14      1.0000 0.29360  0.85290  0.65650  Biso   1.000  H
  C33      1.0000 0.18420  0.73530  0.69970  Biso   1.000  C
  C34      1.0000 0.15930  0.70550  0.70870  Biso   1.000  C
  C35      1.0000 0.13250  0.67020  0.71890  Biso   1.000  C
  C36      1.0000 0.11490  0.65990  0.78030  Biso   1.000  C
  H15      1.0000 0.12120  0.67730  0.81820  Biso   1.000  H
  C37      1.0000 0.08930  0.62660  0.78870  Biso   1.000  C
  H16      1.0000 0.07700  0.62140  0.83170  Biso   1.000  H
  C38      1.0000 0.08050  0.59920  0.73560  Biso   1.000  C
  C39      1.0000 0.05120  0.56310  0.74320  Biso   1.000  C
  C40      1.0000 0.10040  0.60950  0.67300  Biso   1.000  C
  H17      1.0000 0.09530  0.59120  0.63570  Biso   1.000  H
  C41      1.0000 0.12510  0.64210  0.66340  Biso   1.000  C
  H18      1.0000 0.13780  0.64710  0.62070  Biso   1.000  H
  C42      1.0000 0.24040  0.87880  0.74720  Biso   1.000  C
  C43      1.0000 0.24250  0.91320  0.77140  Biso   1.000  C
  C44      1.0000 0.24640  0.95220  0.80560  Biso   1.000  C
  C45      1.0000 0.28580  0.96490  0.81990  Biso   1.000  C
  H19      1.0000 0.30900  0.94780  0.80520  Biso   1.000  H
  C46      1.0000 0.29410  0.00120  0.85490  Biso   1.000  C
  H20      1.0000 0.32260  0.00860  0.86620  Biso   1.000  H
  C47      1.0000 0.25910  0.02840  0.87490  Biso   1.000  C
  C48      1.0000 0.26800  0.06780  0.91610  Biso   1.000  C
  C49      1.0000 0.22100  0.01380  0.86140  Biso   1.000  C
  H21      1.0000 0.19680  0.03020  0.87390  Biso   1.000  H
  C50      1.0000 0.21490  0.97490  0.82940  Biso   1.000  C
  H22      1.0000 0.18660  0.96440  0.82450  Biso   1.000  H
  O8       1.0000 0.32139  0.74667  0.56790  Biso   1.000  O
  O9       1.0000 0.33676  0.81652  0.56890  Biso   1.000  O
  O10      1.0000 0.03860  0.54680  0.68620  Biso   1.000  O
  O11      1.0000 0.03930  0.55060  0.79970  Biso   1.000  O
  O12      1.0000 0.30554  0.07603  0.93230  Biso   1.000  O
  O13      1.0000 0.23440  0.08980  0.93030  Biso   1.000  O
  O14      1.0000 0.38550  0.88790  0.51000  Biso   1.000  O
  C51      1.0000 0.28500  0.18560  0.08590  Biso   1.000  C
  C52      1.0000 0.29180  0.22110  0.13270  Biso   1.000  C
  C53      1.0000 0.26050  0.25030  0.14400  Biso   1.000  C
  H23      1.0000 0.23380  0.24750  0.12190  Biso   1.000  H
  C54      1.0000 0.26760  0.28560  0.18950  Biso   1.000  C
  C55      1.0000 0.30750  0.28790  0.22100  Biso   1.000  C
  H24      1.0000 0.31320  0.31080  0.25100  Biso   1.000  H
  C56      1.0000 0.33820  0.25840  0.21000  Biso   1.000  C
  C57      1.0000 0.33070  0.22620  0.16550  Biso   1.000  C
  H25      1.0000 0.35290  0.20640  0.15650  Biso   1.000  H
  C58      1.0000 0.23530  0.31580  0.19970  Biso   1.000  C
  C59      1.0000 0.20550  0.34070  0.20870  Biso   1.000  C
  C60      1.0000 0.17020  0.36750  0.21890  Biso   1.000  C
  C61      1.0000 0.15990  0.38510  0.28030  Biso   1.000  C
  H26      1.0000 0.17730  0.37880  0.31820  Biso   1.000  H
  C62      1.0000 0.12660  0.41070  0.28870  Biso   1.000  C
  H27      1.0000 0.12140  0.42300  0.33170  Biso   1.000  H
  C63      1.0000 0.09920  0.41950  0.23560  Biso   1.000  C
  C64      1.0000 0.06310  0.44880  0.24320  Biso   1.000  C
  C65      1.0000 0.10950  0.39960  0.17300  Biso   1.000  C
  H28      1.0000 0.09120  0.40470  0.13570  Biso   1.000  H
  C66      1.0000 0.14210  0.37490  0.16340  Biso   1.000  C
  H29      1.0000 0.14710  0.36220  0.12070  Biso   1.000  H
  C67      1.0000 0.37880  0.25960  0.24720  Biso   1.000  C
  C68      1.0000 0.41320  0.25750  0.27140  Biso   1.000  C
  C69      1.0000 0.45220  0.25360  0.30560  Biso   1.000  C
  C70      1.0000 0.46490  0.21420  0.31990  Biso   1.000  C
  H30      1.0000 0.44780  0.19100  0.30520  Biso   1.000  H
  C71      1.0000 0.50120  0.20590  0.35490  Biso   1.000  C
  H31      1.0000 0.50860  0.17740  0.36620  Biso   1.000  H
  C72      1.0000 0.52840  0.24090  0.37490  Biso   1.000  C
  C73      1.0000 0.56780  0.23200  0.41610  Biso   1.000  C
  C74      1.0000 0.51380  0.27900  0.36140  Biso   1.000  C
  H32      1.0000 0.53020  0.30320  0.37390  Biso   1.000  H
  C75      1.0000 0.47490  0.28510  0.32940  Biso   1.000  C
  H33      1.0000 0.46440  0.31340  0.32450  Biso   1.000  H
  O15      1.0000 0.24667  0.17861  0.06790  Biso   1.000  O
  O16      1.0000 0.31652  0.16324  0.06890  Biso   1.000  O
  O17      1.0000 0.04680  0.46140  0.18620  Biso   1.000  O
  O18      1.0000 0.05060  0.46070  0.29970  Biso   1.000  O
  O19      1.0000 0.57603  0.19446  0.43230  Biso   1.000  O
  O20      1.0000 0.58980  0.26560  0.43030  Biso   1.000  O
  O21      1.0000 0.38790  0.11450  0.01000  Biso   1.000  O
  C76      1.0000 0.71500  0.81440  0.08590  Biso   1.000  C
  C77      1.0000 0.70820  0.77890  0.13270  Biso   1.000  C
  C78      1.0000 0.73950  0.74970  0.14400  Biso   1.000  C
  H34      1.0000 0.76620  0.75250  0.12190  Biso   1.000  H
  C79      1.0000 0.73240  0.71440  0.18950  Biso   1.000  C
  C80      1.0000 0.69250  0.71210  0.22100  Biso   1.000  C
  H35      1.0000 0.68680  0.68920  0.25100  Biso   1.000  H
  C81      1.0000 0.66180  0.74160  0.21000  Biso   1.000  C
  C82      1.0000 0.66930  0.77380  0.16550  Biso   1.000  C
  H36      1.0000 0.64710  0.79360  0.15650  Biso   1.000  H
  C83      1.0000 0.76470  0.68420  0.19970  Biso   1.000  C
  C84      1.0000 0.79450  0.65930  0.20870  Biso   1.000  C
  C85      1.0000 0.82980  0.63250  0.21890  Biso   1.000  C
  C86      1.0000 0.84010  0.61490  0.28030  Biso   1.000  C
  H37      1.0000 0.82270  0.62120  0.31820  Biso   1.000  H
  C87      1.0000 0.87340  0.58930  0.28870  Biso   1.000  C
  H38      1.0000 0.87860  0.57700  0.33170  Biso   1.000  H
  C88      1.0000 0.90080  0.58050  0.23560  Biso   1.000  C
  C89      1.0000 0.93690  0.55120  0.24320  Biso   1.000  C
  C90      1.0000 0.89050  0.60040  0.17300  Biso   1.000  C
  H39      1.0000 0.90880  0.59530  0.13570  Biso   1.000  H
  C91      1.0000 0.85790  0.62510  0.16340  Biso   1.000  C
  H40      1.0000 0.85290  0.63780  0.12070  Biso   1.000  H
  C92      1.0000 0.62120  0.74040  0.24720  Biso   1.000  C
  C93      1.0000 0.58680  0.74250  0.27140  Biso   1.000  C
  C94      1.0000 0.54780  0.74640  0.30560  Biso   1.000  C
  C95      1.0000 0.53510  0.78580  0.31990  Biso   1.000  C
  H41      1.0000 0.55220  0.80900  0.30520  Biso   1.000  H
  C96      1.0000 0.49880  0.79410  0.35490  Biso   1.000  C
  H42      1.0000 0.49140  0.82260  0.36620  Biso   1.000  H
  C97      1.0000 0.47160  0.75910  0.37490  Biso   1.000  C
  C98      1.0000 0.43220  0.76800  0.41610  Biso   1.000  C
  C99      1.0000 0.48620  0.72100  0.36140  Biso   1.000  C
  H43      1.0000 0.46980  0.69680  0.37390  Biso   1.000  H
  C100     1.0000 0.52510  0.71490  0.32940  Biso   1.000  C
  H44      1.0000 0.53560  0.68660  0.32450  Biso   1.000  H
  O22      1.0000 0.75333  0.82139  0.06790  Biso   1.000  O
  O23      1.0000 0.68348  0.83676  0.06890  Biso   1.000  O
  O24      1.0000 0.95320  0.53860  0.18620  Biso   1.000  O
  O25      1.0000 0.94940  0.53930  0.29970  Biso   1.000  O
  O26      1.0000 0.42397  0.80554  0.43230  Biso   1.000  O
  O27      1.0000 0.41020  0.73440  0.43030  Biso   1.000  O
  O28      1.0000 0.61210  0.88550  0.01000  Biso   1.000  O
  C101     1.0000 0.31440  0.78500  0.41410  Biso   1.000  C
  C102     1.0000 0.27890  0.79180  0.36730  Biso   1.000  C
  C103     1.0000 0.24970  0.76050  0.35600  Biso   1.000  C
  H45      1.0000 0.25250  0.73380  0.37810  Biso   1.000  H
  C104     1.0000 0.21440  0.76760  0.31050  Biso   1.000  C
  C105     1.0000 0.21210  0.80750  0.27900  Biso   1.000  C
  H46      1.0000 0.18920  0.81320  0.24900  Biso   1.000  H
  C106     1.0000 0.24160  0.83820  0.29000  Biso   1.000  C
  C107     1.0000 0.27380  0.83070  0.33450  Biso   1.000  C
  H47      1.0000 0.29360  0.85290  0.34350  Biso   1.000  H
  C108     1.0000 0.18420  0.73530  0.30030  Biso   1.000  C
  C109     1.0000 0.15930  0.70550  0.29130  Biso   1.000  C
  C110     1.0000 0.13250  0.67020  0.28110  Biso   1.000  C
  C111     1.0000 0.11490  0.65990  0.21970  Biso   1.000  C
  H48      1.0000 0.12120  0.67730  0.18180  Biso   1.000  H
  C112     1.0000 0.08930  0.62660  0.21130  Biso   1.000  C
  H49      1.0000 0.07700  0.62140  0.16830  Biso   1.000  H
  C113     1.0000 0.08050  0.59920  0.26440  Biso   1.000  C
  C114     1.0000 0.05120  0.56310  0.25680  Biso   1.000  C
  C115     1.0000 0.10040  0.60950  0.32700  Biso   1.000  C
  H50      1.0000 0.09530  0.59120  0.36430  Biso   1.000  H
  C116     1.0000 0.12510  0.64210  0.33660  Biso   1.000  C
  H51      1.0000 0.13780  0.64710  0.37930  Biso   1.000  H
  C117     1.0000 0.24040  0.87880  0.25280  Biso   1.000  C
  C118     1.0000 0.24250  0.91320  0.22860  Biso   1.000  C
  C119     1.0000 0.24640  0.95220  0.19440  Biso   1.000  C
  C120     1.0000 0.28580  0.96490  0.18010  Biso   1.000  C
  H52      1.0000 0.30900  0.94780  0.19480  Biso   1.000  H
  C121     1.0000 0.29410  0.00120  0.14510  Biso   1.000  C
  H53      1.0000 0.32260  0.00860  0.13380  Biso   1.000  H
  C122     1.0000 0.25910  0.02840  0.12510  Biso   1.000  C
  C123     1.0000 0.26800  0.06780  0.08390  Biso   1.000  C
  C124     1.0000 0.22100  0.01380  0.13860  Biso   1.000  C
  H54      1.0000 0.19680  0.03020  0.12610  Biso   1.000  H
  C125     1.0000 0.21490  0.97490  0.17060  Biso   1.000  C
  H55      1.0000 0.18660  0.96440  0.17550  Biso   1.000  H
  O29      1.0000 0.32139  0.74667  0.43210  Biso   1.000  O
  O30      1.0000 0.33676  0.81652  0.43110  Biso   1.000  O
  O31      1.0000 0.03860  0.54680  0.31380  Biso   1.000  O
  O32      1.0000 0.03930  0.55060  0.20030  Biso   1.000  O
  O33      1.0000 0.30554  0.07603  0.06770  Biso   1.000  O
  O34      1.0000 0.23440  0.08980  0.06970  Biso   1.000  O
  O35      1.0000 0.38550  0.88790  0.49000  Biso   1.000  O
  C126     1.0000 0.68560  0.21500  0.41410  Biso   1.000  C
  C127     1.0000 0.72110  0.20820  0.36730  Biso   1.000  C
  C128     1.0000 0.75030  0.23950  0.35600  Biso   1.000  C
  H56      1.0000 0.74750  0.26620  0.37810  Biso   1.000  H
  C129     1.0000 0.78560  0.23240  0.31050  Biso   1.000  C
  C130     1.0000 0.78790  0.19250  0.27900  Biso   1.000  C
  H57      1.0000 0.81080  0.18680  0.24900  Biso   1.000  H
  C131     1.0000 0.75840  0.16180  0.29000  Biso   1.000  C
  C132     1.0000 0.72620  0.16930  0.33450  Biso   1.000  C
  H58      1.0000 0.70640  0.14710  0.34350  Biso   1.000  H
  C133     1.0000 0.81580  0.26470  0.30030  Biso   1.000  C
  C134     1.0000 0.84070  0.29450  0.29130  Biso   1.000  C
  C135     1.0000 0.86750  0.32980  0.28110  Biso   1.000  C
  C136     1.0000 0.88510  0.34010  0.21970  Biso   1.000  C
  H59      1.0000 0.87880  0.32270  0.18180  Biso   1.000  H
  C137     1.0000 0.91070  0.37340  0.21130  Biso   1.000  C
  H60      1.0000 0.92300  0.37860  0.16830  Biso   1.000  H
  C138     1.0000 0.91950  0.40080  0.26440  Biso   1.000  C
  C139     1.0000 0.94880  0.43690  0.25680  Biso   1.000  C
  C140     1.0000 0.89960  0.39050  0.32700  Biso   1.000  C
  H61      1.0000 0.90470  0.40880  0.36430  Biso   1.000  H
  C141     1.0000 0.87490  0.35790  0.33660  Biso   1.000  C
  H62      1.0000 0.86220  0.35290  0.37930  Biso   1.000  H
  C142     1.0000 0.75960  0.12120  0.25280  Biso   1.000  C
  C143     1.0000 0.75750  0.08680  0.22860  Biso   1.000  C
  C144     1.0000 0.75360  0.04780  0.19440  Biso   1.000  C
  C145     1.0000 0.71420  0.03510  0.18010  Biso   1.000  C
  H63      1.0000 0.69100  0.05220  0.19480  Biso   1.000  H
  C146     1.0000 0.70590  0.99880  0.14510  Biso   1.000  C
  H64      1.0000 0.67740  0.99140  0.13380  Biso   1.000  H
  C147     1.0000 0.74090  0.97160  0.12510  Biso   1.000  C
  C148     1.0000 0.73200  0.93220  0.08390  Biso   1.000  C
  C149     1.0000 0.77900  0.98620  0.13860  Biso   1.000  C
  H65      1.0000 0.80320  0.96980  0.12610  Biso   1.000  H
  C150     1.0000 0.78510  0.02510  0.17060  Biso   1.000  C
  H66      1.0000 0.81340  0.03560  0.17550  Biso   1.000  H
  O36      1.0000 0.67861  0.25333  0.43210  Biso   1.000  O
  O37      1.0000 0.66324  0.18348  0.43110  Biso   1.000  O
  O38      1.0000 0.96140  0.45320  0.31380  Biso   1.000  O
  O39      1.0000 0.96070  0.44940  0.20030  Biso   1.000  O
  O40      1.0000 0.69446  0.92397  0.06770  Biso   1.000  O
  O41      1.0000 0.76560  0.91020  0.06970  Biso   1.000  O
  O42      1.0000 0.61450  0.11210  0.49000  Biso   1.000  O
  C151     1.0000 0.71500  0.81440  0.91410  Biso   1.000  C
  C152     1.0000 0.70820  0.77890  0.86730  Biso   1.000  C
  C153     1.0000 0.73950  0.74970  0.85600  Biso   1.000  C
  H67      1.0000 0.76620  0.75250  0.87810  Biso   1.000  H
  C154     1.0000 0.73240  0.71440  0.81050  Biso   1.000  C
  C155     1.0000 0.69250  0.71210  0.77900  Biso   1.000  C
  H68      1.0000 0.68680  0.68920  0.74900  Biso   1.000  H
  C156     1.0000 0.66180  0.74160  0.79000  Biso   1.000  C
  C157     1.0000 0.66930  0.77380  0.83450  Biso   1.000  C
  H69      1.0000 0.64710  0.79360  0.84350  Biso   1.000  H
  C158     1.0000 0.76470  0.68420  0.80030  Biso   1.000  C
  C159     1.0000 0.79450  0.65930  0.79130  Biso   1.000  C
  C160     1.0000 0.82980  0.63250  0.78110  Biso   1.000  C
  C161     1.0000 0.84010  0.61490  0.71970  Biso   1.000  C
  H70      1.0000 0.82270  0.62120  0.68180  Biso   1.000  H
  C162     1.0000 0.87340  0.58930  0.71130  Biso   1.000  C
  H71      1.0000 0.87860  0.57700  0.66830  Biso   1.000  H
  C163     1.0000 0.90080  0.58050  0.76440  Biso   1.000  C
  C164     1.0000 0.93690  0.55120  0.75680  Biso   1.000  C
  C165     1.0000 0.89050  0.60040  0.82700  Biso   1.000  C
  H72      1.0000 0.90880  0.59530  0.86430  Biso   1.000  H
  C166     1.0000 0.85790  0.62510  0.83660  Biso   1.000  C
  H73      1.0000 0.85290  0.63780  0.87930  Biso   1.000  H
  C167     1.0000 0.62120  0.74040  0.75280  Biso   1.000  C
  C168     1.0000 0.58680  0.74250  0.72860  Biso   1.000  C
  C169     1.0000 0.54780  0.74640  0.69440  Biso   1.000  C
  C170     1.0000 0.53510  0.78580  0.68010  Biso   1.000  C
  H74      1.0000 0.55220  0.80900  0.69480  Biso   1.000  H
  C171     1.0000 0.49880  0.79410  0.64510  Biso   1.000  C
  H75      1.0000 0.49140  0.82260  0.63380  Biso   1.000  H
  C172     1.0000 0.47160  0.75910  0.62510  Biso   1.000  C
  C173     1.0000 0.43220  0.76800  0.58390  Biso   1.000  C
  C174     1.0000 0.48620  0.72100  0.63860  Biso   1.000  C
  H76      1.0000 0.46980  0.69680  0.62610  Biso   1.000  H
  C175     1.0000 0.52510  0.71490  0.67060  Biso   1.000  C
  H77      1.0000 0.53560  0.68660  0.67550  Biso   1.000  H
  O43      1.0000 0.75333  0.82139  0.93210  Biso   1.000  O
  O44      1.0000 0.68348  0.83676  0.93110  Biso   1.000  O
  O45      1.0000 0.95320  0.53860  0.81380  Biso   1.000  O
  O46      1.0000 0.94940  0.53930  0.70030  Biso   1.000  O
  O47      1.0000 0.42397  0.80554  0.56770  Biso   1.000  O
  O48      1.0000 0.41020  0.73440  0.56970  Biso   1.000  O
  O49      1.0000 0.61210  0.88550  0.99000  Biso   1.000  O
  C176     1.0000 0.28500  0.18560  0.91410  Biso   1.000  C
  C177     1.0000 0.29180  0.22110  0.86730  Biso   1.000  C
  C178     1.0000 0.26050  0.25030  0.85600  Biso   1.000  C
  H78      1.0000 0.23380  0.24750  0.87810  Biso   1.000  H
  C179     1.0000 0.26760  0.28560  0.81050  Biso   1.000  C
  C180     1.0000 0.30750  0.28790  0.77900  Biso   1.000  C
  H79      1.0000 0.31320  0.31080  0.74900  Biso   1.000  H
  C181     1.0000 0.33820  0.25840  0.79000  Biso   1.000  C
  C182     1.0000 0.33070  0.22620  0.83450  Biso   1.000  C
  H80      1.0000 0.35290  0.20640  0.84350  Biso   1.000  H
  C183     1.0000 0.23530  0.31580  0.80030  Biso   1.000  C
  C184     1.0000 0.20550  0.34070  0.79130  Biso   1.000  C
  C185     1.0000 0.17020  0.36750  0.78110  Biso   1.000  C
  C186     1.0000 0.15990  0.38510  0.71970  Biso   1.000  C
  H81      1.0000 0.17730  0.37880  0.68180  Biso   1.000  H
  C187     1.0000 0.12660  0.41070  0.71130  Biso   1.000  C
  H82      1.0000 0.12140  0.42300  0.66830  Biso   1.000  H
  C188     1.0000 0.09920  0.41950  0.76440  Biso   1.000  C
  C189     1.0000 0.06310  0.44880  0.75680  Biso   1.000  C
  C190     1.0000 0.10950  0.39960  0.82700  Biso   1.000  C
  H83      1.0000 0.09120  0.40470  0.86430  Biso   1.000  H
  C191     1.0000 0.14210  0.37490  0.83660  Biso   1.000  C
  H84      1.0000 0.14710  0.36220  0.87930  Biso   1.000  H
  C192     1.0000 0.37880  0.25960  0.75280  Biso   1.000  C
  C193     1.0000 0.41320  0.25750  0.72860  Biso   1.000  C
  C194     1.0000 0.45220  0.25360  0.69440  Biso   1.000  C
  C195     1.0000 0.46490  0.21420  0.68010  Biso   1.000  C
  H85      1.0000 0.44780  0.19100  0.69480  Biso   1.000  H
  C196     1.0000 0.50120  0.20590  0.64510  Biso   1.000  C
  H86      1.0000 0.50860  0.17740  0.63380  Biso   1.000  H
  C197     1.0000 0.52840  0.24090  0.62510  Biso   1.000  C
  C198     1.0000 0.56780  0.23200  0.58390  Biso   1.000  C
  C199     1.0000 0.51380  0.27900  0.63860  Biso   1.000  C
  H87      1.0000 0.53020  0.30320  0.62610  Biso   1.000  H
  C200     1.0000 0.47490  0.28510  0.67060  Biso   1.000  C
  H88      1.0000 0.46440  0.31340  0.67550  Biso   1.000  H
  O50      1.0000 0.24667  0.17861  0.93210  Biso   1.000  O
  O51      1.0000 0.31652  0.16324  0.93110  Biso   1.000  O
  O52      1.0000 0.04680  0.46140  0.81380  Biso   1.000  O
  O53      1.0000 0.05060  0.46070  0.70030  Biso   1.000  O
  O54      1.0000 0.57603  0.19446  0.56770  Biso   1.000  O
  O55      1.0000 0.58980  0.26560  0.56970  Biso   1.000  O
  O56      1.0000 0.38790  0.11450  0.99000  Biso   1.000  O
  Cu1      1.0000 0.61944  0.18258  0.50000  Biso   1.000  Cu
  Cu2      1.0000 0.63452  0.26616  0.50000  Biso   1.000  Cu
  Cu3      1.0000 0.38056  0.81742  0.50000  Biso   1.000  Cu
  Cu4      1.0000 0.36548  0.73384  0.50000  Biso   1.000  Cu
  Cu5      1.0000 0.31742  0.11944  0.00000  Biso   1.000  Cu
  Cu6      1.0000 0.23384  0.13452  0.00000  Biso   1.000  Cu
  Cu7      1.0000 0.68258  0.88056  0.00000  Biso   1.000  Cu
  Cu8      1.0000 0.76616  0.86548  0.00000  Biso   1.000  Cu
  Cu9      1.0000 0.00000  0.50000  0.68294  Biso   1.000  Cu
  Cu10     1.0000 0.00000  0.50000  0.18294  Biso   1.000  Cu
  Cu11     1.0000 0.00000  0.50000  0.31706  Biso   1.000  Cu
  Cu12     1.0000 0.00000  0.50000  0.81706  Biso   1.000  Cu
  C201     1.0000 0.18560  0.71500  0.08590  Biso   1.000  C
  C202     1.0000 0.22110  0.70820  0.13270  Biso   1.000  C
  C203     1.0000 0.25030  0.73950  0.14400  Biso   1.000  C
  H89      1.0000 0.24750  0.76620  0.12190  Biso   1.000  H
  C204     1.0000 0.28560  0.73240  0.18950  Biso   1.000  C
  C205     1.0000 0.28790  0.69250  0.22100  Biso   1.000  C
  H90      1.0000 0.31080  0.68680  0.25100  Biso   1.000  H
  C206     1.0000 0.25840  0.66180  0.21000  Biso   1.000  C
  C207     1.0000 0.22620  0.66930  0.16550  Biso   1.000  C
  H91      1.0000 0.20640  0.64710  0.15650  Biso   1.000  H
  C208     1.0000 0.31580  0.76470  0.19970  Biso   1.000  C
  C209     1.0000 0.34070  0.79450  0.20870  Biso   1.000  C
  C210     1.0000 0.36750  0.82980  0.21890  Biso   1.000  C
  C211     1.0000 0.38510  0.84010  0.28030  Biso   1.000  C
  H92      1.0000 0.37880  0.82270  0.31820  Biso   1.000  H
  C212     1.0000 0.41070  0.87340  0.28870  Biso   1.000  C
  H93      1.0000 0.42300  0.87860  0.33170  Biso   1.000  H
  C213     1.0000 0.41950  0.90080  0.23560  Biso   1.000  C
  C214     1.0000 0.44880  0.93690  0.24320  Biso   1.000  C
  C215     1.0000 0.39960  0.89050  0.17300  Biso   1.000  C
  H94      1.0000 0.40470  0.90880  0.13570  Biso   1.000  H
  C216     1.0000 0.37490  0.85790  0.16340  Biso   1.000  C
  H95      1.0000 0.36220  0.85290  0.12070  Biso   1.000  H
  C217     1.0000 0.25960  0.62120  0.24720  Biso   1.000  C
  C218     1.0000 0.25750  0.58680  0.27140  Biso   1.000  C
  C219     1.0000 0.25360  0.54780  0.30560  Biso   1.000  C
  C220     1.0000 0.21420  0.53510  0.31990  Biso   1.000  C
  H96      1.0000 0.19100  0.55220  0.30520  Biso   1.000  H
  C221     1.0000 0.20590  0.49880  0.35490  Biso   1.000  C
  H97      1.0000 0.17740  0.49140  0.36620  Biso   1.000  H
  C222     1.0000 0.24090  0.47160  0.37490  Biso   1.000  C
  C223     1.0000 0.23200  0.43220  0.41610  Biso   1.000  C
  C224     1.0000 0.27900  0.48620  0.36140  Biso   1.000  C
  H98      1.0000 0.30320  0.46980  0.37390  Biso   1.000  H
  C225     1.0000 0.28510  0.52510  0.32940  Biso   1.000  C
  H99      1.0000 0.31340  0.53560  0.32450  Biso   1.000  H
  O57      1.0000 0.17861  0.75333  0.06790  Biso   1.000  O
  O58      1.0000 0.16324  0.68348  0.06890  Biso   1.000  O
  O59      1.0000 0.46140  0.95320  0.18620  Biso   1.000  O
  O60      1.0000 0.46070  0.94940  0.29970  Biso   1.000  O
  O61      1.0000 0.19446  0.42397  0.43230  Biso   1.000  O
  O62      1.0000 0.26560  0.41020  0.43030  Biso   1.000  O
  O63      1.0000 0.11450  0.61210  0.01000  Biso   1.000  O
  C226     1.0000 0.81440  0.28500  0.08590  Biso   1.000  C
  C227     1.0000 0.77890  0.29180  0.13270  Biso   1.000  C
  C228     1.0000 0.74970  0.26050  0.14400  Biso   1.000  C
  H100     1.0000 0.75250  0.23380  0.12190  Biso   1.000  H
  C229     1.0000 0.71440  0.26760  0.18950  Biso   1.000  C
  C230     1.0000 0.71210  0.30750  0.22100  Biso   1.000  C
  H101     1.0000 0.68920  0.31320  0.25100  Biso   1.000  H
  C231     1.0000 0.74160  0.33820  0.21000  Biso   1.000  C
  C232     1.0000 0.77380  0.33070  0.16550  Biso   1.000  C
  H102     1.0000 0.79360  0.35290  0.15650  Biso   1.000  H
  C233     1.0000 0.68420  0.23530  0.19970  Biso   1.000  C
  C234     1.0000 0.65930  0.20550  0.20870  Biso   1.000  C
  C235     1.0000 0.63250  0.17020  0.21890  Biso   1.000  C
  C236     1.0000 0.61490  0.15990  0.28030  Biso   1.000  C
  H103     1.0000 0.62120  0.17730  0.31820  Biso   1.000  H
  C237     1.0000 0.58930  0.12660  0.28870  Biso   1.000  C
  H104     1.0000 0.57700  0.12140  0.33170  Biso   1.000  H
  C238     1.0000 0.58050  0.09920  0.23560  Biso   1.000  C
  C239     1.0000 0.55120  0.06310  0.24320  Biso   1.000  C
  C240     1.0000 0.60040  0.10950  0.17300  Biso   1.000  C
  H105     1.0000 0.59530  0.09120  0.13570  Biso   1.000  H
  C241     1.0000 0.62510  0.14210  0.16340  Biso   1.000  C
  H106     1.0000 0.63780  0.14710  0.12070  Biso   1.000  H
  C242     1.0000 0.74040  0.37880  0.24720  Biso   1.000  C
  C243     1.0000 0.74250  0.41320  0.27140  Biso   1.000  C
  C244     1.0000 0.74640  0.45220  0.30560  Biso   1.000  C
  C245     1.0000 0.78580  0.46490  0.31990  Biso   1.000  C
  H107     1.0000 0.80900  0.44780  0.30520  Biso   1.000  H
  C246     1.0000 0.79410  0.50120  0.35490  Biso   1.000  C
  H108     1.0000 0.82260  0.50860  0.36620  Biso   1.000  H
  C247     1.0000 0.75910  0.52840  0.37490  Biso   1.000  C
  C248     1.0000 0.76800  0.56780  0.41610  Biso   1.000  C
  C249     1.0000 0.72100  0.51380  0.36140  Biso   1.000  C
  H109     1.0000 0.69680  0.53020  0.37390  Biso   1.000  H
  C250     1.0000 0.71490  0.47490  0.32940  Biso   1.000  C
  H110     1.0000 0.68660  0.46440  0.32450  Biso   1.000  H
  O64      1.0000 0.82139  0.24667  0.06790  Biso   1.000  O
  O65      1.0000 0.83676  0.31652  0.06890  Biso   1.000  O
  O66      1.0000 0.53860  0.04680  0.18620  Biso   1.000  O
  O67      1.0000 0.53930  0.05060  0.29970  Biso   1.000  O
  O68      1.0000 0.80554  0.57603  0.43230  Biso   1.000  O
  O69      1.0000 0.73440  0.58980  0.43030  Biso   1.000  O
  O70      1.0000 0.88550  0.38790  0.01000  Biso   1.000  O
  C251     1.0000 0.78500  0.68560  0.58590  Biso   1.000  C
  C252     1.0000 0.79180  0.72110  0.63270  Biso   1.000  C
  C253     1.0000 0.76050  0.75030  0.64400  Biso   1.000  C
  H111     1.0000 0.73380  0.74750  0.62190  Biso   1.000  H
  C254     1.0000 0.76760  0.78560  0.68950  Biso   1.000  C
  C255     1.0000 0.80750  0.78790  0.72100  Biso   1.000  C
  H112     1.0000 0.81320  0.81080  0.75100  Biso   1.000  H
  C256     1.0000 0.83820  0.75840  0.71000  Biso   1.000  C
  C257     1.0000 0.83070  0.72620  0.66550  Biso   1.000  C
  H113     1.0000 0.85290  0.70640  0.65650  Biso   1.000  H
  C258     1.0000 0.73530  0.81580  0.69970  Biso   1.000  C
  C259     1.0000 0.70550  0.84070  0.70870  Biso   1.000  C
  C260     1.0000 0.67020  0.86750  0.71890  Biso   1.000  C
  C261     1.0000 0.65990  0.88510  0.78030  Biso   1.000  C
  H114     1.0000 0.67730  0.87880  0.81820  Biso   1.000  H
  C262     1.0000 0.62660  0.91070  0.78870  Biso   1.000  C
  H115     1.0000 0.62140  0.92300  0.83170  Biso   1.000  H
  C263     1.0000 0.59920  0.91950  0.73560  Biso   1.000  C
  C264     1.0000 0.56310  0.94880  0.74320  Biso   1.000  C
  C265     1.0000 0.60950  0.89960  0.67300  Biso   1.000  C
  H116     1.0000 0.59120  0.90470  0.63570  Biso   1.000  H
  C266     1.0000 0.64210  0.87490  0.66340  Biso   1.000  C
  H117     1.0000 0.64710  0.86220  0.62070  Biso   1.000  H
  C267     1.0000 0.87880  0.75960  0.74720  Biso   1.000  C
  C268     1.0000 0.91320  0.75750  0.77140  Biso   1.000  C
  C269     1.0000 0.95220  0.75360  0.80560  Biso   1.000  C
  C270     1.0000 0.96490  0.71420  0.81990  Biso   1.000  C
  H118     1.0000 0.94780  0.69100  0.80520  Biso   1.000  H
  C271     1.0000 0.00120  0.70590  0.85490  Biso   1.000  C
  H119     1.0000 0.00860  0.67740  0.86620  Biso   1.000  H
  C272     1.0000 0.02840  0.74090  0.87490  Biso   1.000  C
  C273     1.0000 0.06780  0.73200  0.91610  Biso   1.000  C
  C274     1.0000 0.01380  0.77900  0.86140  Biso   1.000  C
  H120     1.0000 0.03020  0.80320  0.87390  Biso   1.000  H
  C275     1.0000 0.97490  0.78510  0.82940  Biso   1.000  C
  H121     1.0000 0.96440  0.81340  0.82450  Biso   1.000  H
  O71      1.0000 0.74667  0.67861  0.56790  Biso   1.000  O
  O72      1.0000 0.81652  0.66324  0.56890  Biso   1.000  O
  O73      1.0000 0.54680  0.96140  0.68620  Biso   1.000  O
  O74      1.0000 0.55060  0.96070  0.79970  Biso   1.000  O
  O75      1.0000 0.07603  0.69446  0.93230  Biso   1.000  O
  O76      1.0000 0.08980  0.76560  0.93030  Biso   1.000  O
  O77      1.0000 0.88790  0.61450  0.51000  Biso   1.000  O
  C276     1.0000 0.21500  0.31440  0.58590  Biso   1.000  C
  C277     1.0000 0.20820  0.27890  0.63270  Biso   1.000  C
  C278     1.0000 0.23950  0.24970  0.64400  Biso   1.000  C
  H122     1.0000 0.26620  0.25250  0.62190  Biso   1.000  H
  C279     1.0000 0.23240  0.21440  0.68950  Biso   1.000  C
  C280     1.0000 0.19250  0.21210  0.72100  Biso   1.000  C
  H123     1.0000 0.18680  0.18920  0.75100  Biso   1.000  H
  C281     1.0000 0.16180  0.24160  0.71000  Biso   1.000  C
  C282     1.0000 0.16930  0.27380  0.66550  Biso   1.000  C
  H124     1.0000 0.14710  0.29360  0.65650  Biso   1.000  H
  C283     1.0000 0.26470  0.18420  0.69970  Biso   1.000  C
  C284     1.0000 0.29450  0.15930  0.70870  Biso   1.000  C
  C285     1.0000 0.32980  0.13250  0.71890  Biso   1.000  C
  C286     1.0000 0.34010  0.11490  0.78030  Biso   1.000  C
  H125     1.0000 0.32270  0.12120  0.81820  Biso   1.000  H
  C287     1.0000 0.37340  0.08930  0.78870  Biso   1.000  C
  H126     1.0000 0.37860  0.07700  0.83170  Biso   1.000  H
  C288     1.0000 0.40080  0.08050  0.73560  Biso   1.000  C
  C289     1.0000 0.43690  0.05120  0.74320  Biso   1.000  C
  C290     1.0000 0.39050  0.10040  0.67300  Biso   1.000  C
  H127     1.0000 0.40880  0.09530  0.63570  Biso   1.000  H
  C291     1.0000 0.35790  0.12510  0.66340  Biso   1.000  C
  H128     1.0000 0.35290  0.13780  0.62070  Biso   1.000  H
  C292     1.0000 0.12120  0.24040  0.74720  Biso   1.000  C
  C293     1.0000 0.08680  0.24250  0.77140  Biso   1.000  C
  C294     1.0000 0.04780  0.24640  0.80560  Biso   1.000  C
  C295     1.0000 0.03510  0.28580  0.81990  Biso   1.000  C
  H129     1.0000 0.05220  0.30900  0.80520  Biso   1.000  H
  C296     1.0000 0.99880  0.29410  0.85490  Biso   1.000  C
  H130     1.0000 0.99140  0.32260  0.86620  Biso   1.000  H
  C297     1.0000 0.97160  0.25910  0.87490  Biso   1.000  C
  C298     1.0000 0.93220  0.26800  0.91610  Biso   1.000  C
  C299     1.0000 0.98620  0.22100  0.86140  Biso   1.000  C
  H131     1.0000 0.96980  0.19680  0.87390  Biso   1.000  H
  C300     1.0000 0.02510  0.21490  0.82940  Biso   1.000  C
  H132     1.0000 0.03560  0.18660  0.82450  Biso   1.000  H
  O78      1.0000 0.25333  0.32139  0.56790  Biso   1.000  O
  O79      1.0000 0.18348  0.33676  0.56890  Biso   1.000  O
  O80      1.0000 0.45320  0.03860  0.68620  Biso   1.000  O
  O81      1.0000 0.44940  0.03930  0.79970  Biso   1.000  O
  O82      1.0000 0.92397  0.30554  0.93230  Biso   1.000  O
  O83      1.0000 0.91020  0.23440  0.93030  Biso   1.000  O
  O84      1.0000 0.11210  0.38550  0.51000  Biso   1.000  O
  C301     1.0000 0.81440  0.28500  0.91410  Biso   1.000  C
  C302     1.0000 0.77890  0.29180  0.86730  Biso   1.000  C
  C303     1.0000 0.74970  0.26050  0.85600  Biso   1.000  C
  H133     1.0000 0.75250  0.23380  0.87810  Biso   1.000  H
  C304     1.0000 0.71440  0.26760  0.81050  Biso   1.000  C
  C305     1.0000 0.71210  0.30750  0.77900  Biso   1.000  C
  H134     1.0000 0.68920  0.31320  0.74900  Biso   1.000  H
  C306     1.0000 0.74160  0.33820  0.79000  Biso   1.000  C
  C307     1.0000 0.77380  0.33070  0.83450  Biso   1.000  C
  H135     1.0000 0.79360  0.35290  0.84350  Biso   1.000  H
  C308     1.0000 0.68420  0.23530  0.80030  Biso   1.000  C
  C309     1.0000 0.65930  0.20550  0.79130  Biso   1.000  C
  C310     1.0000 0.63250  0.17020  0.78110  Biso   1.000  C
  C311     1.0000 0.61490  0.15990  0.71970  Biso   1.000  C
  H136     1.0000 0.62120  0.17730  0.68180  Biso   1.000  H
  C312     1.0000 0.58930  0.12660  0.71130  Biso   1.000  C
  H137     1.0000 0.57700  0.12140  0.66830  Biso   1.000  H
  C313     1.0000 0.58050  0.09920  0.76440  Biso   1.000  C
  C314     1.0000 0.55120  0.06310  0.75680  Biso   1.000  C
  C315     1.0000 0.60040  0.10950  0.82700  Biso   1.000  C
  H138     1.0000 0.59530  0.09120  0.86430  Biso   1.000  H
  C316     1.0000 0.62510  0.14210  0.83660  Biso   1.000  C
  H139     1.0000 0.63780  0.14710  0.87930  Biso   1.000  H
  C317     1.0000 0.74040  0.37880  0.75280  Biso   1.000  C
  C318     1.0000 0.74250  0.41320  0.72860  Biso   1.000  C
  C319     1.0000 0.74640  0.45220  0.69440  Biso   1.000  C
  C320     1.0000 0.78580  0.46490  0.68010  Biso   1.000  C
  H140     1.0000 0.80900  0.44780  0.69480  Biso   1.000  H
  C321     1.0000 0.79410  0.50120  0.64510  Biso   1.000  C
  H141     1.0000 0.82260  0.50860  0.63380  Biso   1.000  H
  C322     1.0000 0.75910  0.52840  0.62510  Biso   1.000  C
  C323     1.0000 0.76800  0.56780  0.58390  Biso   1.000  C
  C324     1.0000 0.72100  0.51380  0.63860  Biso   1.000  C
  H142     1.0000 0.69680  0.53020  0.62610  Biso   1.000  H
  C325     1.0000 0.71490  0.47490  0.67060  Biso   1.000  C
  H143     1.0000 0.68660  0.46440  0.67550  Biso   1.000  H
  O85      1.0000 0.82139  0.24667  0.93210  Biso   1.000  O
  O86      1.0000 0.83676  0.31652  0.93110  Biso   1.000  O
  O87      1.0000 0.53860  0.04680  0.81380  Biso   1.000  O
  O88      1.0000 0.53930  0.05060  0.70030  Biso   1.000  O
  O89      1.0000 0.80554  0.57603  0.56770  Biso   1.000  O
  O90      1.0000 0.73440  0.58980  0.56970  Biso   1.000  O
  O91      1.0000 0.88550  0.38790  0.99000  Biso   1.000  O
  C326     1.0000 0.18560  0.71500  0.91410  Biso   1.000  C
  C327     1.0000 0.22110  0.70820  0.86730  Biso   1.000  C
  C328     1.0000 0.25030  0.73950  0.85600  Biso   1.000  C
  H144     1.0000 0.24750  0.76620  0.87810  Biso   1.000  H
  C329     1.0000 0.28560  0.73240  0.81050  Biso   1.000  C
  C330     1.0000 0.28790  0.69250  0.77900  Biso   1.000  C
  H145     1.0000 0.31080  0.68680  0.74900  Biso   1.000  H
  C331     1.0000 0.25840  0.66180  0.79000  Biso   1.000  C
  C332     1.0000 0.22620  0.66930  0.83450  Biso   1.000  C
  H146     1.0000 0.20640  0.64710  0.84350  Biso   1.000  H
  C333     1.0000 0.31580  0.76470  0.80030  Biso   1.000  C
  C334     1.0000 0.34070  0.79450  0.79130  Biso   1.000  C
  C335     1.0000 0.36750  0.82980  0.78110  Biso   1.000  C
  C336     1.0000 0.38510  0.84010  0.71970  Biso   1.000  C
  H147     1.0000 0.37880  0.82270  0.68180  Biso   1.000  H
  C337     1.0000 0.41070  0.87340  0.71130  Biso   1.000  C
  H148     1.0000 0.42300  0.87860  0.66830  Biso   1.000  H
  C338     1.0000 0.41950  0.90080  0.76440  Biso   1.000  C
  C339     1.0000 0.44880  0.93690  0.75680  Biso   1.000  C
  C340     1.0000 0.39960  0.89050  0.82700  Biso   1.000  C
  H149     1.0000 0.40470  0.90880  0.86430  Biso   1.000  H
  C341     1.0000 0.37490  0.85790  0.83660  Biso   1.000  C
  H150     1.0000 0.36220  0.85290  0.87930  Biso   1.000  H
  C342     1.0000 0.25960  0.62120  0.75280  Biso   1.000  C
  C343     1.0000 0.25750  0.58680  0.72860  Biso   1.000  C
  C344     1.0000 0.25360  0.54780  0.69440  Biso   1.000  C
  C345     1.0000 0.21420  0.53510  0.68010  Biso   1.000  C
  H151     1.0000 0.19100  0.55220  0.69480  Biso   1.000  H
  C346     1.0000 0.20590  0.49880  0.64510  Biso   1.000  C
  H152     1.0000 0.17740  0.49140  0.63380  Biso   1.000  H
  C347     1.0000 0.24090  0.47160  0.62510  Biso   1.000  C
  C348     1.0000 0.23200  0.43220  0.58390  Biso   1.000  C
  C349     1.0000 0.27900  0.48620  0.63860  Biso   1.000  C
  H153     1.0000 0.30320  0.46980  0.62610  Biso   1.000  H
  C350     1.0000 0.28510  0.52510  0.67060  Biso   1.000  C
  H154     1.0000 0.31340  0.53560  0.67550  Biso   1.000  H
  O92      1.0000 0.17861  0.75333  0.93210  Biso   1.000  O
  O93      1.0000 0.16324  0.68348  0.93110  Biso   1.000  O
  O94      1.0000 0.46140  0.95320  0.81380  Biso   1.000  O
  O95      1.0000 0.46070  0.94940  0.70030  Biso   1.000  O
  O96      1.0000 0.19446  0.42397  0.56770  Biso   1.000  O
  O97      1.0000 0.26560  0.41020  0.56970  Biso   1.000  O
  O98      1.0000 0.11450  0.61210  0.99000  Biso   1.000  O
  C351     1.0000 0.21500  0.31440  0.41410  Biso   1.000  C
  C352     1.0000 0.20820  0.27890  0.36730  Biso   1.000  C
  C353     1.0000 0.23950  0.24970  0.35600  Biso   1.000  C
  H155     1.0000 0.26620  0.25250  0.37810  Biso   1.000  H
  C354     1.0000 0.23240  0.21440  0.31050  Biso   1.000  C
  C355     1.0000 0.19250  0.21210  0.27900  Biso   1.000  C
  H156     1.0000 0.18680  0.18920  0.24900  Biso   1.000  H
  C356     1.0000 0.16180  0.24160  0.29000  Biso   1.000  C
  C357     1.0000 0.16930  0.27380  0.33450  Biso   1.000  C
  H157     1.0000 0.14710  0.29360  0.34350  Biso   1.000  H
  C358     1.0000 0.26470  0.18420  0.30030  Biso   1.000  C
  C359     1.0000 0.29450  0.15930  0.29130  Biso   1.000  C
  C360     1.0000 0.32980  0.13250  0.28110  Biso   1.000  C
  C361     1.0000 0.34010  0.11490  0.21970  Biso   1.000  C
  H158     1.0000 0.32270  0.12120  0.18180  Biso   1.000  H
  C362     1.0000 0.37340  0.08930  0.21130  Biso   1.000  C
  H159     1.0000 0.37860  0.07700  0.16830  Biso   1.000  H
  C363     1.0000 0.40080  0.08050  0.26440  Biso   1.000  C
  C364     1.0000 0.43690  0.05120  0.25680  Biso   1.000  C
  C365     1.0000 0.39050  0.10040  0.32700  Biso   1.000  C
  H160     1.0000 0.40880  0.09530  0.36430  Biso   1.000  H
  C366     1.0000 0.35790  0.12510  0.33660  Biso   1.000  C
  H161     1.0000 0.35290  0.13780  0.37930  Biso   1.000  H
  C367     1.0000 0.12120  0.24040  0.25280  Biso   1.000  C
  C368     1.0000 0.08680  0.24250  0.22860  Biso   1.000  C
  C369     1.0000 0.04780  0.24640  0.19440  Biso   1.000  C
  C370     1.0000 0.03510  0.28580  0.18010  Biso   1.000  C
  H162     1.0000 0.05220  0.30900  0.19480  Biso   1.000  H
  C371     1.0000 0.99880  0.29410  0.14510  Biso   1.000  C
  H163     1.0000 0.99140  0.32260  0.13380  Biso   1.000  H
  C372     1.0000 0.97160  0.25910  0.12510  Biso   1.000  C
  C373     1.0000 0.93220  0.26800  0.08390  Biso   1.000  C
  C374     1.0000 0.98620  0.22100  0.13860  Biso   1.000  C
  H164     1.0000 0.96980  0.19680  0.12610  Biso   1.000  H
  C375     1.0000 0.02510  0.21490  0.17060  Biso   1.000  C
  H165     1.0000 0.03560  0.18660  0.17550  Biso   1.000  H
  O99      1.0000 0.25333  0.32139  0.43210  Biso   1.000  O
  O100     1.0000 0.18348  0.33676  0.43110  Biso   1.000  O
  O101     1.0000 0.45320  0.03860  0.31380  Biso   1.000  O
  O102     1.0000 0.44940  0.03930  0.20030  Biso   1.000  O
  O103     1.0000 0.92397  0.30554  0.06770  Biso   1.000  O
  O104     1.0000 0.91020  0.23440  0.06970  Biso   1.000  O
  O105     1.0000 0.11210  0.38550  0.49000  Biso   1.000  O
  C376     1.0000 0.78500  0.68560  0.41410  Biso   1.000  C
  C377     1.0000 0.79180  0.72110  0.36730  Biso   1.000  C
  C378     1.0000 0.76050  0.75030  0.35600  Biso   1.000  C
  H166     1.0000 0.73380  0.74750  0.37810  Biso   1.000  H
  C379     1.0000 0.76760  0.78560  0.31050  Biso   1.000  C
  C380     1.0000 0.80750  0.78790  0.27900  Biso   1.000  C
  H167     1.0000 0.81320  0.81080  0.24900  Biso   1.000  H
  C381     1.0000 0.83820  0.75840  0.29000  Biso   1.000  C
  C382     1.0000 0.83070  0.72620  0.33450  Biso   1.000  C
  H168     1.0000 0.85290  0.70640  0.34350  Biso   1.000  H
  C383     1.0000 0.73530  0.81580  0.30030  Biso   1.000  C
  C384     1.0000 0.70550  0.84070  0.29130  Biso   1.000  C
  C385     1.0000 0.67020  0.86750  0.28110  Biso   1.000  C
  C386     1.0000 0.65990  0.88510  0.21970  Biso   1.000  C
  H169     1.0000 0.67730  0.87880  0.18180  Biso   1.000  H
  C387     1.0000 0.62660  0.91070  0.21130  Biso   1.000  C
  H170     1.0000 0.62140  0.92300  0.16830  Biso   1.000  H
  C388     1.0000 0.59920  0.91950  0.26440  Biso   1.000  C
  C389     1.0000 0.56310  0.94880  0.25680  Biso   1.000  C
  C390     1.0000 0.60950  0.89960  0.32700  Biso   1.000  C
  H171     1.0000 0.59120  0.90470  0.36430  Biso   1.000  H
  C391     1.0000 0.64210  0.87490  0.33660  Biso   1.000  C
  H172     1.0000 0.64710  0.86220  0.37930  Biso   1.000  H
  C392     1.0000 0.87880  0.75960  0.25280  Biso   1.000  C
  C393     1.0000 0.91320  0.75750  0.22860  Biso   1.000  C
  C394     1.0000 0.95220  0.75360  0.19440  Biso   1.000  C
  C395     1.0000 0.96490  0.71420  0.18010  Biso   1.000  C
  H173     1.0000 0.94780  0.69100  0.19480  Biso   1.000  H
  C396     1.0000 0.00120  0.70590  0.14510  Biso   1.000  C
  H174     1.0000 0.00860  0.67740  0.13380  Biso   1.000  H
  C397     1.0000 0.02840  0.74090  0.12510  Biso   1.000  C
  C398     1.0000 0.06780  0.73200  0.08390  Biso   1.000  C
  C399     1.0000 0.01380  0.77900  0.13860  Biso   1.000  C
  H175     1.0000 0.03020  0.80320  0.12610  Biso   1.000  H
  C400     1.0000 0.97490  0.78510  0.17060  Biso   1.000  C
  H176     1.0000 0.96440  0.81340  0.17550  Biso   1.000  H
  O106     1.0000 0.74667  0.67861  0.43210  Biso   1.000  O
  O107     1.0000 0.81652  0.66324  0.43110  Biso   1.000  O
  O108     1.0000 0.54680  0.96140  0.31380  Biso   1.000  O
  O109     1.0000 0.55060  0.96070  0.20030  Biso   1.000  O
  O110     1.0000 0.07603  0.69446  0.06770  Biso   1.000  O
  O111     1.0000 0.08980  0.76560  0.06970  Biso   1.000  O
  O112     1.0000 0.88790  0.61450  0.49000  Biso   1.000  O
  Cu13     1.0000 0.11944  0.68258  0.00000  Biso   1.000  Cu
  Cu14     1.0000 0.13452  0.76616  0.00000  Biso   1.000  Cu
  Cu15     1.0000 0.88056  0.31742  0.00000  Biso   1.000  Cu
  Cu16     1.0000 0.86548  0.23384  0.00000  Biso   1.000  Cu
  Cu17     1.0000 0.81742  0.61944  0.50000  Biso   1.000  Cu
  Cu18     1.0000 0.73384  0.63452  0.50000  Biso   1.000  Cu
  Cu19     1.0000 0.18258  0.38056  0.50000  Biso   1.000  Cu
  Cu20     1.0000 0.26616  0.36548  0.50000  Biso   1.000  Cu
  Cu21     1.0000 0.50000  0.00000  0.18294  Biso   1.000  Cu
  Cu22     1.0000 0.50000  0.00000  0.68294  Biso   1.000  Cu
  Cu23     1.0000 0.50000  0.00000  0.81706  Biso   1.000  Cu
  Cu24     1.0000 0.50000  0.00000  0.31706  Biso   1.000  Cu
