data_image0
_cell_length_a       28.764
_cell_length_b       28.764
_cell_length_c       69.369
_cell_angle_alpha    90
_cell_angle_beta     90
_cell_angle_gamma    120

_symmetry_space_group_name_H-M    "P 1"
_symmetry_int_tables_number       1

loop_
  _symmetry_equiv_pos_as_xyz
  'x, y, z'

loop_
  _atom_site_label
  _atom_site_occupancy
  _atom_site_fract_x
  _atom_site_fract_y
  _atom_site_fract_z
  _atom_site_thermal_displace_type
  _atom_site_B_iso_or_equiv
  _atom_site_type_symbol
  N1       1.0000 0.32380  0.57040  0.55514  Biso   1.000  N
  N2       1.0000 0.24940  0.40260  0.51910  Biso   1.000  N
  N3       1.0000 0.17260  0.24730  0.47978  Biso   1.000  N
  N4       1.0000 0.08580  0.09460  0.43556  Biso   1.000  N
  C1       1.0000 0.28780  0.52670  0.54531  Biso   1.000  C
  C2       1.0000 0.29410  0.48650  0.53657  Biso   1.000  C
  H1       1.0000 0.32730  0.48680  0.53680  Biso   1.000  H
  C3       1.0000 0.24760  0.44490  0.52732  Biso   1.000  C
  C4       1.0000 0.20670  0.36440  0.51145  Biso   1.000  C
  C5       1.0000 0.21420  0.31870  0.50283  Biso   1.000  C
  C6       1.0000 0.21500  0.28400  0.52009  Biso   1.000  C
  H2       1.0000 0.24480  0.30670  0.52880  Biso   1.000  H
  H3       1.0000 0.21980  0.25480  0.51520  Biso   1.000  H
  H4       1.0000 0.18110  0.26900  0.52720  Biso   1.000  H
  C7       1.0000 0.26520  0.34200  0.49079  Biso   1.000  C
  H5       1.0000 0.29600  0.36640  0.49870  Biso   1.000  H
  H6       1.0000 0.26210  0.36170  0.47980  Biso   1.000  H
  H7       1.0000 0.27040  0.31280  0.48610  Biso   1.000  H
  C8       1.0000 0.16670  0.28150  0.49051  Biso   1.000  C
  C9       1.0000 0.13210  0.21200  0.46847  Biso   1.000  C
  C10      1.0000 0.13670  0.17370  0.45786  Biso   1.000  C
  H8       1.0000 0.16930  0.17280  0.45770  Biso   1.000  H
  C11      1.0000 0.09310  0.13720  0.44755  Biso   1.000  C
  C12      1.0000 0.21040  0.11980  0.38330  Biso   1.000  C
  H9       1.0000 0.23170  0.13280  0.39460  Biso   1.000  H
  C13      1.0000 0.23100  0.14040  0.36580  Biso   1.000  C
  C14      1.0000 0.19800  0.12520  0.34810  Biso   1.000  C
  C15      1.0000 0.14430  0.09160  0.34860  Biso   1.000  C
  H10      1.0000 0.12180  0.08700  0.33790  Biso   1.000  H
  N5       1.0000 0.28680  0.17250  0.36520  Biso   1.000  N
  N6       1.0000 0.22180  0.14360  0.33090  Biso   1.000  N
  N7       1.0000 0.44390  0.26100  0.32560  Biso   1.000  N
  N8       1.0000 0.37900  0.22650  0.29300  Biso   1.000  N
  C16      1.0000 0.37040  0.23190  0.34820  Biso   1.000  C
  C17      1.0000 0.37670  0.28680  0.35520  Biso   1.000  C
  H11      1.0000 0.41490  0.31380  0.35590  Biso   1.000  H
  H12      1.0000 0.36060  0.28200  0.36800  Biso   1.000  H
  H13      1.0000 0.35860  0.29850  0.34610  Biso   1.000  H
  C18      1.0000 0.39620  0.20970  0.36160  Biso   1.000  C
  H14      1.0000 0.43530  0.23160  0.36060  Biso   1.000  H
  H15      1.0000 0.38480  0.17260  0.35790  Biso   1.000  H
  H16      1.0000 0.38510  0.21050  0.37490  Biso   1.000  H
  C19      1.0000 0.27960  0.18500  0.33140  Biso   1.000  C
  C20      1.0000 0.27150  0.16040  0.29510  Biso   1.000  C
  H17      1.0000 0.27530  0.12890  0.29740  Biso   1.000  H
  H18      1.0000 0.28780  0.17660  0.28270  Biso   1.000  H
  H19      1.0000 0.23340  0.14960  0.29500  Biso   1.000  H
  C21      1.0000 0.29840  0.19930  0.31040  Biso   1.000  C
  C22      1.0000 0.51280  0.27470  0.27280  Biso   1.000  C
  C23      1.0000 0.54510  0.29560  0.28890  Biso   1.000  C
  C24      1.0000 0.52280  0.29280  0.30680  Biso   1.000  C
  H20      1.0000 0.54480  0.30690  0.31790  Biso   1.000  H
  C25      1.0000 0.46910  0.26980  0.30810  Biso   1.000  C
  C26      1.0000 0.43430  0.24850  0.29080  Biso   1.000  C
  C27      1.0000 0.36200  0.22900  0.31150  Biso   1.000  C
  C28      1.0000 0.39270  0.23920  0.32680  Biso   1.000  C
  C29      1.0000 0.45770  0.25180  0.27310  Biso   1.000  C
  H21      1.0000 0.43680  0.23900  0.26170  Biso   1.000  H
  C30      1.0000 0.30860  0.19400  0.34880  Biso   1.000  C
  C31      1.0000 0.28940  0.24720  0.30530  Biso   1.000  C
  H22      1.0000 0.31570  0.27940  0.31230  Biso   1.000  H
  H23      1.0000 0.25310  0.23820  0.30910  Biso   1.000  H
  H24      1.0000 0.29400  0.25390  0.29140  Biso   1.000  H
  N9       1.0000 0.99047  0.90373  0.88847  Biso   1.000  N
  N10      1.0000 0.91607  0.73593  0.85243  Biso   1.000  N
  N11      1.0000 0.83927  0.58063  0.81311  Biso   1.000  N
  N12      1.0000 0.75247  0.42793  0.76889  Biso   1.000  N
  C32      1.0000 0.95447  0.86003  0.87864  Biso   1.000  C
  C33      1.0000 0.96077  0.81983  0.86990  Biso   1.000  C
  H25      1.0000 0.99397  0.82013  0.87013  Biso   1.000  H
  C34      1.0000 0.91427  0.77823  0.86065  Biso   1.000  C
  C35      1.0000 0.87337  0.69773  0.84478  Biso   1.000  C
  C36      1.0000 0.88087  0.65203  0.83616  Biso   1.000  C
  C37      1.0000 0.88167  0.61733  0.85342  Biso   1.000  C
  H26      1.0000 0.91147  0.64003  0.86213  Biso   1.000  H
  H27      1.0000 0.88647  0.58813  0.84853  Biso   1.000  H
  H28      1.0000 0.84777  0.60233  0.86053  Biso   1.000  H
  C38      1.0000 0.93187  0.67533  0.82412  Biso   1.000  C
  H29      1.0000 0.96267  0.69973  0.83203  Biso   1.000  H
  H30      1.0000 0.92877  0.69503  0.81313  Biso   1.000  H
  H31      1.0000 0.93707  0.64613  0.81943  Biso   1.000  H
  C39      1.0000 0.83337  0.61483  0.82384  Biso   1.000  C
  C40      1.0000 0.79877  0.54533  0.80180  Biso   1.000  C
  C41      1.0000 0.80337  0.50703  0.79119  Biso   1.000  C
  H32      1.0000 0.83597  0.50613  0.79103  Biso   1.000  H
  C42      1.0000 0.75977  0.47053  0.78088  Biso   1.000  C
  C43      1.0000 0.87707  0.45313  0.71663  Biso   1.000  C
  H33      1.0000 0.89837  0.46613  0.72793  Biso   1.000  H
  C44      1.0000 0.89767  0.47373  0.69913  Biso   1.000  C
  C45      1.0000 0.86467  0.45853  0.68143  Biso   1.000  C
  C46      1.0000 0.81097  0.42493  0.68193  Biso   1.000  C
  H34      1.0000 0.78847  0.42033  0.67123  Biso   1.000  H
  N13      1.0000 0.95347  0.50583  0.69853  Biso   1.000  N
  N14      1.0000 0.88847  0.47693  0.66423  Biso   1.000  N
  N15      1.0000 0.11057  0.59433  0.65893  Biso   1.000  N
  N16      1.0000 0.04567  0.55983  0.62633  Biso   1.000  N
  C47      1.0000 0.03707  0.56523  0.68153  Biso   1.000  C
  C48      1.0000 0.04337  0.62013  0.68853  Biso   1.000  C
  H35      1.0000 0.08157  0.64713  0.68923  Biso   1.000  H
  H36      1.0000 0.02727  0.61533  0.70133  Biso   1.000  H
  H37      1.0000 0.02527  0.63183  0.67943  Biso   1.000  H
  C49      1.0000 0.06287  0.54303  0.69493  Biso   1.000  C
  H38      1.0000 0.10197  0.56493  0.69393  Biso   1.000  H
  H39      1.0000 0.05147  0.50593  0.69123  Biso   1.000  H
  H40      1.0000 0.05177  0.54383  0.70823  Biso   1.000  H
  C50      1.0000 0.94627  0.51833  0.66473  Biso   1.000  C
  C51      1.0000 0.93817  0.49373  0.62843  Biso   1.000  C
  H41      1.0000 0.94197  0.46223  0.63073  Biso   1.000  H
  H42      1.0000 0.95447  0.50993  0.61603  Biso   1.000  H
  H43      1.0000 0.90007  0.48293  0.62833  Biso   1.000  H
  C52      1.0000 0.96507  0.53263  0.64373  Biso   1.000  C
  C53      1.0000 0.17947  0.60803  0.60613  Biso   1.000  C
  C54      1.0000 0.21177  0.62893  0.62223  Biso   1.000  C
  C55      1.0000 0.18947  0.62613  0.64013  Biso   1.000  C
  H44      1.0000 0.21147  0.64023  0.65123  Biso   1.000  H
  C56      1.0000 0.13577  0.60313  0.64143  Biso   1.000  C
  C57      1.0000 0.10097  0.58183  0.62413  Biso   1.000  C
  C58      1.0000 0.02867  0.56233  0.64483  Biso   1.000  C
  C59      1.0000 0.05937  0.57253  0.66013  Biso   1.000  C
  C60      1.0000 0.12437  0.58513  0.60643  Biso   1.000  C
  H45      1.0000 0.10347  0.57233  0.59503  Biso   1.000  H
  C61      1.0000 0.97527  0.52733  0.68213  Biso   1.000  C
  C62      1.0000 0.95607  0.58053  0.63863  Biso   1.000  C
  H46      1.0000 0.98237  0.61273  0.64563  Biso   1.000  H
  H47      1.0000 0.91977  0.57153  0.64243  Biso   1.000  H
  H48      1.0000 0.96067  0.58723  0.62473  Biso   1.000  H
  N17      1.0000 0.65713  0.23707  0.22181  Biso   1.000  N
  N18      1.0000 0.58273  0.06927  0.18577  Biso   1.000  N
  N19      1.0000 0.50593  0.91397  0.14645  Biso   1.000  N
  N20      1.0000 0.41913  0.76127  0.10223  Biso   1.000  N
  C63      1.0000 0.62113  0.19337  0.21198  Biso   1.000  C
  C64      1.0000 0.62743  0.15317  0.20324  Biso   1.000  C
  H49      1.0000 0.66063  0.15347  0.20347  Biso   1.000  H
  C65      1.0000 0.58093  0.11157  0.19399  Biso   1.000  C
  C66      1.0000 0.54003  0.03107  0.17812  Biso   1.000  C
  C67      1.0000 0.54753  0.98537  0.16950  Biso   1.000  C
  C68      1.0000 0.54833  0.95067  0.18676  Biso   1.000  C
  H50      1.0000 0.57813  0.97337  0.19547  Biso   1.000  H
  H51      1.0000 0.55313  0.92147  0.18187  Biso   1.000  H
  H52      1.0000 0.51443  0.93567  0.19387  Biso   1.000  H
  C69      1.0000 0.59853  0.00867  0.15746  Biso   1.000  C
  H53      1.0000 0.62933  0.03307  0.16537  Biso   1.000  H
  H54      1.0000 0.59543  0.02837  0.14647  Biso   1.000  H
  H55      1.0000 0.60373  0.97947  0.15277  Biso   1.000  H
  C70      1.0000 0.50003  0.94817  0.15718  Biso   1.000  C
  C71      1.0000 0.46543  0.87867  0.13514  Biso   1.000  C
  C72      1.0000 0.47003  0.84037  0.12453  Biso   1.000  C
  H56      1.0000 0.50263  0.83947  0.12437  Biso   1.000  H
  C73      1.0000 0.42643  0.80387  0.11422  Biso   1.000  C
  C74      1.0000 0.54373  0.78647  0.04997  Biso   1.000  C
  H57      1.0000 0.56503  0.79947  0.06127  Biso   1.000  H
  C75      1.0000 0.56433  0.80707  0.03247  Biso   1.000  C
  C76      1.0000 0.53133  0.79187  0.01477  Biso   1.000  C
  C77      1.0000 0.47763  0.75827  0.01527  Biso   1.000  C
  H58      1.0000 0.45513  0.75367  0.00457  Biso   1.000  H
  N21      1.0000 0.62013  0.83917  0.03187  Biso   1.000  N
  N22      1.0000 0.55513  0.81027  0.99757  Biso   1.000  N
  N23      1.0000 0.77723  0.92767  0.99227  Biso   1.000  N
  N24      1.0000 0.71233  0.89317  0.95967  Biso   1.000  N
  C78      1.0000 0.70373  0.89857  0.01487  Biso   1.000  C
  C79      1.0000 0.71003  0.95347  0.02187  Biso   1.000  C
  H59      1.0000 0.74823  0.98047  0.02257  Biso   1.000  H
  H60      1.0000 0.69393  0.94867  0.03467  Biso   1.000  H
  H61      1.0000 0.69193  0.96517  0.01277  Biso   1.000  H
  C80      1.0000 0.72953  0.87637  0.02827  Biso   1.000  C
  H62      1.0000 0.76863  0.89827  0.02727  Biso   1.000  H
  H63      1.0000 0.71813  0.83927  0.02457  Biso   1.000  H
  H64      1.0000 0.71843  0.87717  0.04157  Biso   1.000  H
  C81      1.0000 0.61293  0.85167  0.99807  Biso   1.000  C
  C82      1.0000 0.60483  0.82707  0.96177  Biso   1.000  C
  H65      1.0000 0.60863  0.79557  0.96407  Biso   1.000  H
  H66      1.0000 0.62113  0.84327  0.94937  Biso   1.000  H
  H67      1.0000 0.56673  0.81627  0.96167  Biso   1.000  H
  C83      1.0000 0.63173  0.86597  0.97707  Biso   1.000  C
  C84      1.0000 0.84613  0.94137  0.93947  Biso   1.000  C
  C85      1.0000 0.87843  0.96227  0.95557  Biso   1.000  C
  C86      1.0000 0.85613  0.95947  0.97347  Biso   1.000  C
  H68      1.0000 0.87813  0.97357  0.98457  Biso   1.000  H
  C87      1.0000 0.80243  0.93647  0.97477  Biso   1.000  C
  C88      1.0000 0.76763  0.91517  0.95747  Biso   1.000  C
  C89      1.0000 0.69533  0.89567  0.97817  Biso   1.000  C
  C90      1.0000 0.72603  0.90587  0.99347  Biso   1.000  C
  C91      1.0000 0.79103  0.91847  0.93977  Biso   1.000  C
  H69      1.0000 0.77013  0.90567  0.92837  Biso   1.000  H
  C92      1.0000 0.64193  0.86067  0.01547  Biso   1.000  C
  C93      1.0000 0.62273  0.91387  0.97197  Biso   1.000  C
  H70      1.0000 0.64903  0.94607  0.97897  Biso   1.000  H
  H71      1.0000 0.58643  0.90487  0.97577  Biso   1.000  H
  H72      1.0000 0.62733  0.92057  0.95807  Biso   1.000  H
  N25      1.0000 0.42960  0.75340  0.55514  Biso   1.000  N
  N26      1.0000 0.59740  0.84680  0.51910  Biso   1.000  N
  N27      1.0000 0.75270  0.92530  0.47978  Biso   1.000  N
  N28      1.0000 0.90540  0.99120  0.43556  Biso   1.000  N
  C94      1.0000 0.47330  0.76110  0.54531  Biso   1.000  C
  C95      1.0000 0.51350  0.80760  0.53657  Biso   1.000  C
  H73      1.0000 0.51320  0.84050  0.53680  Biso   1.000  H
  C96      1.0000 0.55510  0.80270  0.52732  Biso   1.000  C
  C97      1.0000 0.63560  0.84230  0.51145  Biso   1.000  C
  C98      1.0000 0.68130  0.89550  0.50283  Biso   1.000  C
  C99      1.0000 0.71600  0.93100  0.52009  Biso   1.000  C
  H74      1.0000 0.69330  0.93810  0.52880  Biso   1.000  H
  H75      1.0000 0.74520  0.96500  0.51520  Biso   1.000  H
  H76      1.0000 0.73100  0.91210  0.52720  Biso   1.000  H
  C100     1.0000 0.65800  0.92320  0.49079  Biso   1.000  C
  H77      1.0000 0.63360  0.92960  0.49870  Biso   1.000  H
  H78      1.0000 0.63830  0.90040  0.47980  Biso   1.000  H
  H79      1.0000 0.68720  0.95760  0.48610  Biso   1.000  H
  C101     1.0000 0.71850  0.88520  0.49051  Biso   1.000  C
  C102     1.0000 0.78800  0.92010  0.46847  Biso   1.000  C
  C103     1.0000 0.82630  0.96300  0.45786  Biso   1.000  C
  H80      1.0000 0.82720  0.99650  0.45770  Biso   1.000  H
  C104     1.0000 0.86280  0.95590  0.44755  Biso   1.000  C
  C105     1.0000 0.88020  0.09060  0.38330  Biso   1.000  C
  H81      1.0000 0.86720  0.09890  0.39460  Biso   1.000  H
  C106     1.0000 0.85960  0.09060  0.36580  Biso   1.000  C
  C107     1.0000 0.87480  0.07280  0.34810  Biso   1.000  C
  C108     1.0000 0.90840  0.05270  0.34860  Biso   1.000  C
  H82      1.0000 0.91300  0.03480  0.33790  Biso   1.000  H
  N29      1.0000 0.82750  0.11430  0.36520  Biso   1.000  N
  N30      1.0000 0.85640  0.07820  0.33090  Biso   1.000  N
  N31      1.0000 0.73900  0.18290  0.32560  Biso   1.000  N
  N32      1.0000 0.77350  0.15250  0.29300  Biso   1.000  N
  C109     1.0000 0.76810  0.13850  0.34820  Biso   1.000  C
  C110     1.0000 0.71320  0.08990  0.35520  Biso   1.000  C
  H83      1.0000 0.68620  0.10110  0.35590  Biso   1.000  H
  H84      1.0000 0.71800  0.07860  0.36800  Biso   1.000  H
  H85      1.0000 0.70150  0.06010  0.34610  Biso   1.000  H
  C111     1.0000 0.79030  0.18650  0.36160  Biso   1.000  C
  H86      1.0000 0.76840  0.20370  0.36060  Biso   1.000  H
  H87      1.0000 0.82740  0.21220  0.35790  Biso   1.000  H
  H88      1.0000 0.78950  0.17460  0.37490  Biso   1.000  H
  C112     1.0000 0.81500  0.09460  0.33140  Biso   1.000  C
  C113     1.0000 0.83960  0.11110  0.29510  Biso   1.000  C
  H89      1.0000 0.87110  0.14640  0.29740  Biso   1.000  H
  H90      1.0000 0.82340  0.11120  0.28270  Biso   1.000  H
  H91      1.0000 0.85040  0.08380  0.29500  Biso   1.000  H
  C114     1.0000 0.80070  0.09910  0.31040  Biso   1.000  C
  C115     1.0000 0.72530  0.23810  0.27280  Biso   1.000  C
  C116     1.0000 0.70440  0.24950  0.28890  Biso   1.000  C
  C117     1.0000 0.70720  0.23000  0.30680  Biso   1.000  C
  H92      1.0000 0.69310  0.23790  0.31790  Biso   1.000  H
  C118     1.0000 0.73020  0.19930  0.30810  Biso   1.000  C
  C119     1.0000 0.75150  0.18580  0.29080  Biso   1.000  C
  C120     1.0000 0.77100  0.13300  0.31150  Biso   1.000  C
  C121     1.0000 0.76080  0.15350  0.32680  Biso   1.000  C
  C122     1.0000 0.74820  0.20590  0.27310  Biso   1.000  C
  H93      1.0000 0.76100  0.19780  0.26170  Biso   1.000  H
  C123     1.0000 0.80600  0.11460  0.34880  Biso   1.000  C
  C124     1.0000 0.75280  0.04220  0.30530  Biso   1.000  C
  H94      1.0000 0.72060  0.03630  0.31230  Biso   1.000  H
  H95      1.0000 0.76180  0.01490  0.30910  Biso   1.000  H
  H96      1.0000 0.74610  0.04010  0.29140  Biso   1.000  H
  N33      1.0000 0.09627  0.08673  0.88847  Biso   1.000  N
  N34      1.0000 0.26407  0.18013  0.85243  Biso   1.000  N
  N35      1.0000 0.41937  0.25863  0.81311  Biso   1.000  N
  N36      1.0000 0.57207  0.32453  0.76889  Biso   1.000  N
  C125     1.0000 0.13997  0.09443  0.87864  Biso   1.000  C
  C126     1.0000 0.18017  0.14093  0.86990  Biso   1.000  C
  H97      1.0000 0.17987  0.17383  0.87013  Biso   1.000  H
  C127     1.0000 0.22177  0.13603  0.86065  Biso   1.000  C
  C128     1.0000 0.30227  0.17563  0.84478  Biso   1.000  C
  C129     1.0000 0.34797  0.22883  0.83616  Biso   1.000  C
  C130     1.0000 0.38267  0.26433  0.85342  Biso   1.000  C
  H98      1.0000 0.35997  0.27143  0.86213  Biso   1.000  H
  H99      1.0000 0.41187  0.29833  0.84853  Biso   1.000  H
  H100     1.0000 0.39767  0.24543  0.86053  Biso   1.000  H
  C131     1.0000 0.32467  0.25653  0.82412  Biso   1.000  C
  H101     1.0000 0.30027  0.26293  0.83203  Biso   1.000  H
  H102     1.0000 0.30497  0.23373  0.81313  Biso   1.000  H
  H103     1.0000 0.35387  0.29093  0.81943  Biso   1.000  H
  C132     1.0000 0.38517  0.21853  0.82384  Biso   1.000  C
  C133     1.0000 0.45467  0.25343  0.80180  Biso   1.000  C
  C134     1.0000 0.49297  0.29633  0.79119  Biso   1.000  C
  H104     1.0000 0.49387  0.32983  0.79103  Biso   1.000  H
  C135     1.0000 0.52947  0.28923  0.78088  Biso   1.000  C
  C136     1.0000 0.54687  0.42393  0.71663  Biso   1.000  C
  H105     1.0000 0.53387  0.43223  0.72793  Biso   1.000  H
  C137     1.0000 0.52627  0.42393  0.69913  Biso   1.000  C
  C138     1.0000 0.54147  0.40613  0.68143  Biso   1.000  C
  C139     1.0000 0.57507  0.38603  0.68193  Biso   1.000  C
  H106     1.0000 0.57967  0.36813  0.67123  Biso   1.000  H
  N37      1.0000 0.49417  0.44763  0.69853  Biso   1.000  N
  N38      1.0000 0.52307  0.41153  0.66423  Biso   1.000  N
  N39      1.0000 0.40567  0.51623  0.65893  Biso   1.000  N
  N40      1.0000 0.44017  0.48583  0.62633  Biso   1.000  N
  C140     1.0000 0.43477  0.47183  0.68153  Biso   1.000  C
  C141     1.0000 0.37987  0.42323  0.68853  Biso   1.000  C
  H107     1.0000 0.35287  0.43443  0.68923  Biso   1.000  H
  H108     1.0000 0.38467  0.41193  0.70133  Biso   1.000  H
  H109     1.0000 0.36817  0.39343  0.67943  Biso   1.000  H
  C142     1.0000 0.45697  0.51983  0.69493  Biso   1.000  C
  H110     1.0000 0.43507  0.53703  0.69393  Biso   1.000  H
  H111     1.0000 0.49407  0.54553  0.69123  Biso   1.000  H
  H112     1.0000 0.45617  0.50793  0.70823  Biso   1.000  H
  C143     1.0000 0.48167  0.42793  0.66473  Biso   1.000  C
  C144     1.0000 0.50627  0.44443  0.62843  Biso   1.000  C
  H113     1.0000 0.53777  0.47973  0.63073  Biso   1.000  H
  H114     1.0000 0.49007  0.44453  0.61603  Biso   1.000  H
  H115     1.0000 0.51707  0.41713  0.62833  Biso   1.000  H
  C145     1.0000 0.46737  0.43243  0.64373  Biso   1.000  C
  C146     1.0000 0.39197  0.57143  0.60613  Biso   1.000  C
  C147     1.0000 0.37107  0.58283  0.62223  Biso   1.000  C
  C148     1.0000 0.37387  0.56333  0.64013  Biso   1.000  C
  H116     1.0000 0.35977  0.57123  0.65123  Biso   1.000  H
  C149     1.0000 0.39687  0.53263  0.64143  Biso   1.000  C
  C150     1.0000 0.41817  0.51913  0.62413  Biso   1.000  C
  C151     1.0000 0.43767  0.46633  0.64483  Biso   1.000  C
  C152     1.0000 0.42747  0.48683  0.66013  Biso   1.000  C
  C153     1.0000 0.41487  0.53923  0.60643  Biso   1.000  C
  H117     1.0000 0.42767  0.53113  0.59503  Biso   1.000  H
  C154     1.0000 0.47267  0.44793  0.68213  Biso   1.000  C
  C155     1.0000 0.41947  0.37553  0.63863  Biso   1.000  C
  H118     1.0000 0.38727  0.36963  0.64563  Biso   1.000  H
  H119     1.0000 0.42847  0.34823  0.64243  Biso   1.000  H
  H120     1.0000 0.41277  0.37343  0.62473  Biso   1.000  H
  N41      1.0000 0.76293  0.42007  0.22181  Biso   1.000  N
  N42      1.0000 0.93073  0.51347  0.18577  Biso   1.000  N
  N43      1.0000 0.08603  0.59197  0.14645  Biso   1.000  N
  N44      1.0000 0.23873  0.65787  0.10223  Biso   1.000  N
  C156     1.0000 0.80663  0.42777  0.21198  Biso   1.000  C
  C157     1.0000 0.84683  0.47427  0.20324  Biso   1.000  C
  H121     1.0000 0.84653  0.50717  0.20347  Biso   1.000  H
  C158     1.0000 0.88843  0.46937  0.19399  Biso   1.000  C
  C159     1.0000 0.96893  0.50897  0.17812  Biso   1.000  C
  C160     1.0000 0.01463  0.56217  0.16950  Biso   1.000  C
  C161     1.0000 0.04933  0.59767  0.18676  Biso   1.000  C
  H122     1.0000 0.02663  0.60477  0.19547  Biso   1.000  H
  H123     1.0000 0.07853  0.63167  0.18187  Biso   1.000  H
  H124     1.0000 0.06433  0.57877  0.19387  Biso   1.000  H
  C162     1.0000 0.99133  0.58987  0.15746  Biso   1.000  C
  H125     1.0000 0.96693  0.59627  0.16537  Biso   1.000  H
  H126     1.0000 0.97163  0.56707  0.14647  Biso   1.000  H
  H127     1.0000 0.02053  0.62427  0.15277  Biso   1.000  H
  C163     1.0000 0.05183  0.55187  0.15718  Biso   1.000  C
  C164     1.0000 0.12133  0.58677  0.13514  Biso   1.000  C
  C165     1.0000 0.15963  0.62967  0.12453  Biso   1.000  C
  H128     1.0000 0.16053  0.66317  0.12437  Biso   1.000  H
  C166     1.0000 0.19613  0.62257  0.11422  Biso   1.000  C
  C167     1.0000 0.21353  0.75727  0.04997  Biso   1.000  C
  H129     1.0000 0.20053  0.76557  0.06127  Biso   1.000  H
  C168     1.0000 0.19293  0.75727  0.03247  Biso   1.000  C
  C169     1.0000 0.20813  0.73947  0.01477  Biso   1.000  C
  C170     1.0000 0.24173  0.71937  0.01527  Biso   1.000  C
  H130     1.0000 0.24633  0.70147  0.00457  Biso   1.000  H
  N45      1.0000 0.16083  0.78097  0.03187  Biso   1.000  N
  N46      1.0000 0.18973  0.74487  0.99757  Biso   1.000  N
  N47      1.0000 0.07233  0.84957  0.99227  Biso   1.000  N
  N48      1.0000 0.10683  0.81917  0.95967  Biso   1.000  N
  C171     1.0000 0.10143  0.80517  0.01487  Biso   1.000  C
  C172     1.0000 0.04653  0.75657  0.02187  Biso   1.000  C
  H131     1.0000 0.01953  0.76777  0.02257  Biso   1.000  H
  H132     1.0000 0.05133  0.74527  0.03467  Biso   1.000  H
  H133     1.0000 0.03483  0.72677  0.01277  Biso   1.000  H
  C173     1.0000 0.12363  0.85317  0.02827  Biso   1.000  C
  H134     1.0000 0.10173  0.87037  0.02727  Biso   1.000  H
  H135     1.0000 0.16073  0.87887  0.02457  Biso   1.000  H
  H136     1.0000 0.12283  0.84127  0.04157  Biso   1.000  H
  C174     1.0000 0.14833  0.76127  0.99807  Biso   1.000  C
  C175     1.0000 0.17293  0.77777  0.96177  Biso   1.000  C
  H137     1.0000 0.20443  0.81307  0.96407  Biso   1.000  H
  H138     1.0000 0.15673  0.77787  0.94937  Biso   1.000  H
  H139     1.0000 0.18373  0.75047  0.96167  Biso   1.000  H
  C176     1.0000 0.13403  0.76577  0.97707  Biso   1.000  C
  C177     1.0000 0.05863  0.90477  0.93947  Biso   1.000  C
  C178     1.0000 0.03773  0.91617  0.95557  Biso   1.000  C
  C179     1.0000 0.04053  0.89667  0.97347  Biso   1.000  C
  H140     1.0000 0.02643  0.90457  0.98457  Biso   1.000  H
  C180     1.0000 0.06353  0.86597  0.97477  Biso   1.000  C
  C181     1.0000 0.08483  0.85247  0.95747  Biso   1.000  C
  C182     1.0000 0.10433  0.79967  0.97817  Biso   1.000  C
  C183     1.0000 0.09413  0.82017  0.99347  Biso   1.000  C
  C184     1.0000 0.08153  0.87257  0.93977  Biso   1.000  C
  H141     1.0000 0.09433  0.86447  0.92837  Biso   1.000  H
  C185     1.0000 0.13933  0.78127  0.01547  Biso   1.000  C
  C186     1.0000 0.08613  0.70887  0.97197  Biso   1.000  C
  H142     1.0000 0.05393  0.70297  0.97897  Biso   1.000  H
  H143     1.0000 0.09513  0.68157  0.97577  Biso   1.000  H
  H144     1.0000 0.07943  0.70677  0.95807  Biso   1.000  H
  N49      1.0000 0.24660  0.67620  0.55514  Biso   1.000  N
  N50      1.0000 0.15320  0.75060  0.51910  Biso   1.000  N
  N51      1.0000 0.07470  0.82740  0.47978  Biso   1.000  N
  N52      1.0000 0.00880  0.91420  0.43556  Biso   1.000  N
  C187     1.0000 0.23890  0.71220  0.54531  Biso   1.000  C
  C188     1.0000 0.19240  0.70590  0.53657  Biso   1.000  C
  H145     1.0000 0.15950  0.67270  0.53680  Biso   1.000  H
  C189     1.0000 0.19730  0.75240  0.52732  Biso   1.000  C
  C190     1.0000 0.15770  0.79330  0.51145  Biso   1.000  C
  C191     1.0000 0.10450  0.78580  0.50283  Biso   1.000  C
  C192     1.0000 0.06900  0.78500  0.52009  Biso   1.000  C
  H146     1.0000 0.06190  0.75520  0.52880  Biso   1.000  H
  H147     1.0000 0.03500  0.78020  0.51520  Biso   1.000  H
  H148     1.0000 0.08790  0.81890  0.52720  Biso   1.000  H
  C193     1.0000 0.07680  0.73480  0.49079  Biso   1.000  C
  H149     1.0000 0.07040  0.70400  0.49870  Biso   1.000  H
  H150     1.0000 0.09960  0.73790  0.47980  Biso   1.000  H
  H151     1.0000 0.04240  0.72960  0.48610  Biso   1.000  H
  C194     1.0000 0.11480  0.83330  0.49051  Biso   1.000  C
  C195     1.0000 0.07990  0.86790  0.46847  Biso   1.000  C
  C196     1.0000 0.03700  0.86330  0.45786  Biso   1.000  C
  H152     1.0000 0.00350  0.83070  0.45770  Biso   1.000  H
  C197     1.0000 0.04410  0.90690  0.44755  Biso   1.000  C
  C198     1.0000 0.90940  0.78960  0.38330  Biso   1.000  C
  H153     1.0000 0.90110  0.76830  0.39460  Biso   1.000  H
  C199     1.0000 0.90940  0.76900  0.36580  Biso   1.000  C
  C200     1.0000 0.92720  0.80200  0.34810  Biso   1.000  C
  C201     1.0000 0.94730  0.85570  0.34860  Biso   1.000  C
  H154     1.0000 0.96520  0.87820  0.33790  Biso   1.000  H
  N53      1.0000 0.88570  0.71320  0.36520  Biso   1.000  N
  N54      1.0000 0.92180  0.77820  0.33090  Biso   1.000  N
  N55      1.0000 0.81710  0.55610  0.32560  Biso   1.000  N
  N56      1.0000 0.84750  0.62100  0.29300  Biso   1.000  N
  C202     1.0000 0.86150  0.62960  0.34820  Biso   1.000  C
  C203     1.0000 0.91010  0.62330  0.35520  Biso   1.000  C
  H155     1.0000 0.89890  0.58510  0.35590  Biso   1.000  H
  H156     1.0000 0.92140  0.63940  0.36800  Biso   1.000  H
  H157     1.0000 0.93990  0.64140  0.34610  Biso   1.000  H
  C204     1.0000 0.81350  0.60380  0.36160  Biso   1.000  C
  H158     1.0000 0.79630  0.56470  0.36060  Biso   1.000  H
  H159     1.0000 0.78780  0.61520  0.35790  Biso   1.000  H
  H160     1.0000 0.82540  0.61490  0.37490  Biso   1.000  H
  C205     1.0000 0.90540  0.72040  0.33140  Biso   1.000  C
  C206     1.0000 0.88890  0.72850  0.29510  Biso   1.000  C
  H161     1.0000 0.85360  0.72470  0.29740  Biso   1.000  H
  H162     1.0000 0.88880  0.71220  0.28270  Biso   1.000  H
  H163     1.0000 0.91620  0.76660  0.29500  Biso   1.000  H
  C207     1.0000 0.90090  0.70160  0.31040  Biso   1.000  C
  C208     1.0000 0.76190  0.48720  0.27280  Biso   1.000  C
  C209     1.0000 0.75050  0.45490  0.28890  Biso   1.000  C
  C210     1.0000 0.77000  0.47720  0.30680  Biso   1.000  C
  H164     1.0000 0.76210  0.45520  0.31790  Biso   1.000  H
  C211     1.0000 0.80070  0.53090  0.30810  Biso   1.000  C
  C212     1.0000 0.81420  0.56570  0.29080  Biso   1.000  C
  C213     1.0000 0.86700  0.63800  0.31150  Biso   1.000  C
  C214     1.0000 0.84650  0.60730  0.32680  Biso   1.000  C
  C215     1.0000 0.79410  0.54230  0.27310  Biso   1.000  C
  H165     1.0000 0.80220  0.56320  0.26170  Biso   1.000  H
  C216     1.0000 0.88540  0.69140  0.34880  Biso   1.000  C
  C217     1.0000 0.95780  0.71060  0.30530  Biso   1.000  C
  H166     1.0000 0.96370  0.68430  0.31230  Biso   1.000  H
  H167     1.0000 0.98510  0.74690  0.30910  Biso   1.000  H
  H168     1.0000 0.95990  0.70600  0.29140  Biso   1.000  H
  N57      1.0000 0.91327  0.00953  0.88847  Biso   1.000  N
  N58      1.0000 0.81987  0.08393  0.85243  Biso   1.000  N
  N59      1.0000 0.74137  0.16073  0.81311  Biso   1.000  N
  N60      1.0000 0.67547  0.24753  0.76889  Biso   1.000  N
  C218     1.0000 0.90557  0.04553  0.87864  Biso   1.000  C
  C219     1.0000 0.85907  0.03923  0.86990  Biso   1.000  C
  H169     1.0000 0.82617  0.00603  0.87013  Biso   1.000  H
  C220     1.0000 0.86397  0.08573  0.86065  Biso   1.000  C
  C221     1.0000 0.82437  0.12663  0.84478  Biso   1.000  C
  C222     1.0000 0.77117  0.11913  0.83616  Biso   1.000  C
  C223     1.0000 0.73567  0.11833  0.85342  Biso   1.000  C
  H170     1.0000 0.72857  0.08853  0.86213  Biso   1.000  H
  H171     1.0000 0.70167  0.11353  0.84853  Biso   1.000  H
  H172     1.0000 0.75457  0.15223  0.86053  Biso   1.000  H
  C224     1.0000 0.74347  0.06813  0.82412  Biso   1.000  C
  H173     1.0000 0.73707  0.03733  0.83203  Biso   1.000  H
  H174     1.0000 0.76627  0.07123  0.81313  Biso   1.000  H
  H175     1.0000 0.70907  0.06293  0.81943  Biso   1.000  H
  C225     1.0000 0.78147  0.16663  0.82384  Biso   1.000  C
  C226     1.0000 0.74657  0.20123  0.80180  Biso   1.000  C
  C227     1.0000 0.70367  0.19663  0.79119  Biso   1.000  C
  H176     1.0000 0.67017  0.16403  0.79103  Biso   1.000  H
  C228     1.0000 0.71077  0.24023  0.78088  Biso   1.000  C
  C229     1.0000 0.57607  0.12293  0.71663  Biso   1.000  C
  H177     1.0000 0.56777  0.10163  0.72793  Biso   1.000  H
  C230     1.0000 0.57607  0.10233  0.69913  Biso   1.000  C
  C231     1.0000 0.59387  0.13533  0.68143  Biso   1.000  C
  C232     1.0000 0.61397  0.18903  0.68193  Biso   1.000  C
  H178     1.0000 0.63187  0.21153  0.67123  Biso   1.000  H
  N61      1.0000 0.55237  0.04653  0.69853  Biso   1.000  N
  N62      1.0000 0.58847  0.11153  0.66423  Biso   1.000  N
  N63      1.0000 0.48377  0.88943  0.65893  Biso   1.000  N
  N64      1.0000 0.51417  0.95433  0.62633  Biso   1.000  N
  C233     1.0000 0.52817  0.96293  0.68153  Biso   1.000  C
  C234     1.0000 0.57677  0.95663  0.68853  Biso   1.000  C
  H179     1.0000 0.56557  0.91843  0.68923  Biso   1.000  H
  H180     1.0000 0.58807  0.97273  0.70133  Biso   1.000  H
  H181     1.0000 0.60657  0.97473  0.67943  Biso   1.000  H
  C235     1.0000 0.48017  0.93713  0.69493  Biso   1.000  C
  H182     1.0000 0.46297  0.89803  0.69393  Biso   1.000  H
  H183     1.0000 0.45447  0.94853  0.69123  Biso   1.000  H
  H184     1.0000 0.49207  0.94823  0.70823  Biso   1.000  H
  C236     1.0000 0.57207  0.05373  0.66473  Biso   1.000  C
  C237     1.0000 0.55557  0.06183  0.62843  Biso   1.000  C
  H185     1.0000 0.52027  0.05803  0.63073  Biso   1.000  H
  H186     1.0000 0.55547  0.04553  0.61603  Biso   1.000  H
  H187     1.0000 0.58287  0.09993  0.62833  Biso   1.000  H
  C238     1.0000 0.56757  0.03493  0.64373  Biso   1.000  C
  C239     1.0000 0.42857  0.82053  0.60613  Biso   1.000  C
  C240     1.0000 0.41717  0.78823  0.62223  Biso   1.000  C
  C241     1.0000 0.43667  0.81053  0.64013  Biso   1.000  C
  H188     1.0000 0.42877  0.78853  0.65123  Biso   1.000  H
  C242     1.0000 0.46737  0.86423  0.64143  Biso   1.000  C
  C243     1.0000 0.48087  0.89903  0.62413  Biso   1.000  C
  C244     1.0000 0.53367  0.97133  0.64483  Biso   1.000  C
  C245     1.0000 0.51317  0.94063  0.66013  Biso   1.000  C
  C246     1.0000 0.46077  0.87563  0.60643  Biso   1.000  C
  H189     1.0000 0.46887  0.89653  0.59503  Biso   1.000  H
  C247     1.0000 0.55207  0.02473  0.68213  Biso   1.000  C
  C248     1.0000 0.62447  0.04393  0.63863  Biso   1.000  C
  H190     1.0000 0.63037  0.01763  0.64563  Biso   1.000  H
  H191     1.0000 0.65177  0.08023  0.64243  Biso   1.000  H
  H192     1.0000 0.62657  0.03933  0.62473  Biso   1.000  H
  N65      1.0000 0.57993  0.34287  0.22181  Biso   1.000  N
  N66      1.0000 0.48653  0.41727  0.18577  Biso   1.000  N
  N67      1.0000 0.40803  0.49407  0.14645  Biso   1.000  N
  N68      1.0000 0.34213  0.58087  0.10223  Biso   1.000  N
  C249     1.0000 0.57223  0.37887  0.21198  Biso   1.000  C
  C250     1.0000 0.52573  0.37257  0.20324  Biso   1.000  C
  H193     1.0000 0.49283  0.33937  0.20347  Biso   1.000  H
  C251     1.0000 0.53063  0.41907  0.19399  Biso   1.000  C
  C252     1.0000 0.49103  0.45997  0.17812  Biso   1.000  C
  C253     1.0000 0.43783  0.45247  0.16950  Biso   1.000  C
  C254     1.0000 0.40233  0.45167  0.18676  Biso   1.000  C
  H194     1.0000 0.39523  0.42187  0.19547  Biso   1.000  H
  H195     1.0000 0.36833  0.44687  0.18187  Biso   1.000  H
  H196     1.0000 0.42123  0.48557  0.19387  Biso   1.000  H
  C255     1.0000 0.41013  0.40147  0.15746  Biso   1.000  C
  H197     1.0000 0.40373  0.37067  0.16537  Biso   1.000  H
  H198     1.0000 0.43293  0.40457  0.14647  Biso   1.000  H
  H199     1.0000 0.37573  0.39627  0.15277  Biso   1.000  H
  C256     1.0000 0.44813  0.49997  0.15718  Biso   1.000  C
  C257     1.0000 0.41323  0.53457  0.13514  Biso   1.000  C
  C258     1.0000 0.37033  0.52997  0.12453  Biso   1.000  C
  H200     1.0000 0.33683  0.49737  0.12437  Biso   1.000  H
  C259     1.0000 0.37743  0.57357  0.11422  Biso   1.000  C
  C260     1.0000 0.24273  0.45627  0.04997  Biso   1.000  C
  H201     1.0000 0.23443  0.43497  0.06127  Biso   1.000  H
  C261     1.0000 0.24273  0.43567  0.03247  Biso   1.000  C
  C262     1.0000 0.26053  0.46867  0.01477  Biso   1.000  C
  C263     1.0000 0.28063  0.52237  0.01527  Biso   1.000  C
  H202     1.0000 0.29853  0.54487  0.00457  Biso   1.000  H
  N69      1.0000 0.21903  0.37987  0.03187  Biso   1.000  N
  N70      1.0000 0.25513  0.44487  0.99757  Biso   1.000  N
  N71      1.0000 0.15043  0.22277  0.99227  Biso   1.000  N
  N72      1.0000 0.18083  0.28767  0.95967  Biso   1.000  N
  C264     1.0000 0.19483  0.29627  0.01487  Biso   1.000  C
  C265     1.0000 0.24343  0.28997  0.02187  Biso   1.000  C
  H203     1.0000 0.23223  0.25177  0.02257  Biso   1.000  H
  H204     1.0000 0.25473  0.30607  0.03467  Biso   1.000  H
  H205     1.0000 0.27323  0.30807  0.01277  Biso   1.000  H
  C266     1.0000 0.14683  0.27047  0.02827  Biso   1.000  C
  H206     1.0000 0.12963  0.23137  0.02727  Biso   1.000  H
  H207     1.0000 0.12113  0.28187  0.02457  Biso   1.000  H
  H208     1.0000 0.15873  0.28157  0.04157  Biso   1.000  H
  C267     1.0000 0.23873  0.38707  0.99807  Biso   1.000  C
  C268     1.0000 0.22223  0.39517  0.96177  Biso   1.000  C
  H209     1.0000 0.18693  0.39137  0.96407  Biso   1.000  H
  H210     1.0000 0.22213  0.37887  0.94937  Biso   1.000  H
  H211     1.0000 0.24953  0.43327  0.96167  Biso   1.000  H
  C269     1.0000 0.23423  0.36827  0.97707  Biso   1.000  C
  C270     1.0000 0.09523  0.15387  0.93947  Biso   1.000  C
  C271     1.0000 0.08383  0.12157  0.95557  Biso   1.000  C
  C272     1.0000 0.10333  0.14387  0.97347  Biso   1.000  C
  H212     1.0000 0.09543  0.12187  0.98457  Biso   1.000  H
  C273     1.0000 0.13403  0.19757  0.97477  Biso   1.000  C
  C274     1.0000 0.14753  0.23237  0.95747  Biso   1.000  C
  C275     1.0000 0.20033  0.30467  0.97817  Biso   1.000  C
  C276     1.0000 0.17983  0.27397  0.99347  Biso   1.000  C
  C277     1.0000 0.12743  0.20897  0.93977  Biso   1.000  C
  H213     1.0000 0.13553  0.22987  0.92837  Biso   1.000  H
  C278     1.0000 0.21873  0.35807  0.01547  Biso   1.000  C
  C279     1.0000 0.29113  0.37727  0.97197  Biso   1.000  C
  H214     1.0000 0.29703  0.35097  0.97897  Biso   1.000  H
  H215     1.0000 0.31843  0.41357  0.97577  Biso   1.000  H
  H216     1.0000 0.29323  0.37267  0.95807  Biso   1.000  H
  N73      1.0000 0.42960  0.67620  0.55514  Biso   1.000  N
  N74      1.0000 0.59740  0.75060  0.51910  Biso   1.000  N
  N75      1.0000 0.75270  0.82740  0.47978  Biso   1.000  N
  N76      1.0000 0.90540  0.91420  0.43556  Biso   1.000  N
  C280     1.0000 0.47330  0.71220  0.54531  Biso   1.000  C
  C281     1.0000 0.51350  0.70590  0.53657  Biso   1.000  C
  H217     1.0000 0.51320  0.67270  0.53680  Biso   1.000  H
  C282     1.0000 0.55510  0.75240  0.52732  Biso   1.000  C
  C283     1.0000 0.63560  0.79330  0.51145  Biso   1.000  C
  C284     1.0000 0.68130  0.78580  0.50283  Biso   1.000  C
  C285     1.0000 0.71600  0.78500  0.52009  Biso   1.000  C
  H218     1.0000 0.69330  0.75520  0.52880  Biso   1.000  H
  H219     1.0000 0.74520  0.78020  0.51520  Biso   1.000  H
  H220     1.0000 0.73100  0.81890  0.52720  Biso   1.000  H
  C286     1.0000 0.65800  0.73480  0.49079  Biso   1.000  C
  H221     1.0000 0.63360  0.70400  0.49870  Biso   1.000  H
  H222     1.0000 0.63830  0.73790  0.47980  Biso   1.000  H
  H223     1.0000 0.68720  0.72960  0.48610  Biso   1.000  H
  C287     1.0000 0.71850  0.83330  0.49051  Biso   1.000  C
  C288     1.0000 0.78800  0.86790  0.46847  Biso   1.000  C
  C289     1.0000 0.82630  0.86330  0.45786  Biso   1.000  C
  H224     1.0000 0.82720  0.83070  0.45770  Biso   1.000  H
  C290     1.0000 0.86280  0.90690  0.44755  Biso   1.000  C
  C291     1.0000 0.88020  0.78960  0.38330  Biso   1.000  C
  H225     1.0000 0.86720  0.76830  0.39460  Biso   1.000  H
  C292     1.0000 0.85960  0.76900  0.36580  Biso   1.000  C
  C293     1.0000 0.87480  0.80200  0.34810  Biso   1.000  C
  C294     1.0000 0.90840  0.85570  0.34860  Biso   1.000  C
  H226     1.0000 0.91300  0.87820  0.33790  Biso   1.000  H
  N77      1.0000 0.82750  0.71320  0.36520  Biso   1.000  N
  N78      1.0000 0.85640  0.77820  0.33090  Biso   1.000  N
  N79      1.0000 0.73900  0.55610  0.32560  Biso   1.000  N
  N80      1.0000 0.77350  0.62100  0.29300  Biso   1.000  N
  C295     1.0000 0.76810  0.62960  0.34820  Biso   1.000  C
  C296     1.0000 0.71320  0.62330  0.35520  Biso   1.000  C
  H227     1.0000 0.68620  0.58510  0.35590  Biso   1.000  H
  H228     1.0000 0.71800  0.63940  0.36800  Biso   1.000  H
  H229     1.0000 0.70150  0.64140  0.34610  Biso   1.000  H
  C297     1.0000 0.79030  0.60380  0.36160  Biso   1.000  C
  H230     1.0000 0.76840  0.56470  0.36060  Biso   1.000  H
  H231     1.0000 0.82740  0.61520  0.35790  Biso   1.000  H
  H232     1.0000 0.78950  0.61490  0.37490  Biso   1.000  H
  C298     1.0000 0.81500  0.72040  0.33140  Biso   1.000  C
  C299     1.0000 0.83960  0.72850  0.29510  Biso   1.000  C
  H233     1.0000 0.87110  0.72470  0.29740  Biso   1.000  H
  H234     1.0000 0.82340  0.71220  0.28270  Biso   1.000  H
  H235     1.0000 0.85040  0.76660  0.29500  Biso   1.000  H
  C300     1.0000 0.80070  0.70160  0.31040  Biso   1.000  C
  C301     1.0000 0.72530  0.48720  0.27280  Biso   1.000  C
  C302     1.0000 0.70440  0.45490  0.28890  Biso   1.000  C
  C303     1.0000 0.70720  0.47720  0.30680  Biso   1.000  C
  H236     1.0000 0.69310  0.45520  0.31790  Biso   1.000  H
  C304     1.0000 0.73020  0.53090  0.30810  Biso   1.000  C
  C305     1.0000 0.75150  0.56570  0.29080  Biso   1.000  C
  C306     1.0000 0.77100  0.63800  0.31150  Biso   1.000  C
  C307     1.0000 0.76080  0.60730  0.32680  Biso   1.000  C
  C308     1.0000 0.74820  0.54230  0.27310  Biso   1.000  C
  H237     1.0000 0.76100  0.56320  0.26170  Biso   1.000  H
  C309     1.0000 0.80600  0.69140  0.34880  Biso   1.000  C
  C310     1.0000 0.75280  0.71060  0.30530  Biso   1.000  C
  H238     1.0000 0.72060  0.68430  0.31230  Biso   1.000  H
  H239     1.0000 0.76180  0.74690  0.30910  Biso   1.000  H
  H240     1.0000 0.74610  0.70600  0.29140  Biso   1.000  H
  N81      1.0000 0.09627  0.00953  0.88847  Biso   1.000  N
  N82      1.0000 0.26407  0.08393  0.85243  Biso   1.000  N
  N83      1.0000 0.41937  0.16073  0.81311  Biso   1.000  N
  N84      1.0000 0.57207  0.24753  0.76889  Biso   1.000  N
  C311     1.0000 0.13997  0.04553  0.87864  Biso   1.000  C
  C312     1.0000 0.18017  0.03923  0.86990  Biso   1.000  C
  H241     1.0000 0.17987  0.00603  0.87013  Biso   1.000  H
  C313     1.0000 0.22177  0.08573  0.86065  Biso   1.000  C
  C314     1.0000 0.30227  0.12663  0.84478  Biso   1.000  C
  C315     1.0000 0.34797  0.11913  0.83616  Biso   1.000  C
  C316     1.0000 0.38267  0.11833  0.85342  Biso   1.000  C
  H242     1.0000 0.35997  0.08853  0.86213  Biso   1.000  H
  H243     1.0000 0.41187  0.11353  0.84853  Biso   1.000  H
  H244     1.0000 0.39767  0.15223  0.86053  Biso   1.000  H
  C317     1.0000 0.32467  0.06813  0.82412  Biso   1.000  C
  H245     1.0000 0.30027  0.03733  0.83203  Biso   1.000  H
  H246     1.0000 0.30497  0.07123  0.81313  Biso   1.000  H
  H247     1.0000 0.35387  0.06293  0.81943  Biso   1.000  H
  C318     1.0000 0.38517  0.16663  0.82384  Biso   1.000  C
  C319     1.0000 0.45467  0.20123  0.80180  Biso   1.000  C
  C320     1.0000 0.49297  0.19663  0.79119  Biso   1.000  C
  H248     1.0000 0.49387  0.16403  0.79103  Biso   1.000  H
  C321     1.0000 0.52947  0.24023  0.78088  Biso   1.000  C
  C322     1.0000 0.54687  0.12293  0.71663  Biso   1.000  C
  H249     1.0000 0.53387  0.10163  0.72793  Biso   1.000  H
  C323     1.0000 0.52627  0.10233  0.69913  Biso   1.000  C
  C324     1.0000 0.54147  0.13533  0.68143  Biso   1.000  C
  C325     1.0000 0.57507  0.18903  0.68193  Biso   1.000  C
  H250     1.0000 0.57967  0.21153  0.67123  Biso   1.000  H
  N85      1.0000 0.49417  0.04653  0.69853  Biso   1.000  N
  N86      1.0000 0.52307  0.11153  0.66423  Biso   1.000  N
  N87      1.0000 0.40567  0.88943  0.65893  Biso   1.000  N
  N88      1.0000 0.44017  0.95433  0.62633  Biso   1.000  N
  C326     1.0000 0.43477  0.96293  0.68153  Biso   1.000  C
  C327     1.0000 0.37987  0.95663  0.68853  Biso   1.000  C
  H251     1.0000 0.35287  0.91843  0.68923  Biso   1.000  H
  H252     1.0000 0.38467  0.97273  0.70133  Biso   1.000  H
  H253     1.0000 0.36817  0.97473  0.67943  Biso   1.000  H
  C328     1.0000 0.45697  0.93713  0.69493  Biso   1.000  C
  H254     1.0000 0.43507  0.89803  0.69393  Biso   1.000  H
  H255     1.0000 0.49407  0.94853  0.69123  Biso   1.000  H
  H256     1.0000 0.45617  0.94823  0.70823  Biso   1.000  H
  C329     1.0000 0.48167  0.05373  0.66473  Biso   1.000  C
  C330     1.0000 0.50627  0.06183  0.62843  Biso   1.000  C
  H257     1.0000 0.53777  0.05803  0.63073  Biso   1.000  H
  H258     1.0000 0.49007  0.04553  0.61603  Biso   1.000  H
  H259     1.0000 0.51707  0.09993  0.62833  Biso   1.000  H
  C331     1.0000 0.46737  0.03493  0.64373  Biso   1.000  C
  C332     1.0000 0.39197  0.82053  0.60613  Biso   1.000  C
  C333     1.0000 0.37107  0.78823  0.62223  Biso   1.000  C
  C334     1.0000 0.37387  0.81053  0.64013  Biso   1.000  C
  H260     1.0000 0.35977  0.78853  0.65123  Biso   1.000  H
  C335     1.0000 0.39687  0.86423  0.64143  Biso   1.000  C
  C336     1.0000 0.41817  0.89903  0.62413  Biso   1.000  C
  C337     1.0000 0.43767  0.97133  0.64483  Biso   1.000  C
  C338     1.0000 0.42747  0.94063  0.66013  Biso   1.000  C
  C339     1.0000 0.41487  0.87563  0.60643  Biso   1.000  C
  H261     1.0000 0.42767  0.89653  0.59503  Biso   1.000  H
  C340     1.0000 0.47267  0.02473  0.68213  Biso   1.000  C
  C341     1.0000 0.41947  0.04393  0.63863  Biso   1.000  C
  H262     1.0000 0.38727  0.01763  0.64563  Biso   1.000  H
  H263     1.0000 0.42847  0.08023  0.64243  Biso   1.000  H
  H264     1.0000 0.41277  0.03933  0.62473  Biso   1.000  H
  N89      1.0000 0.76293  0.34287  0.22181  Biso   1.000  N
  N90      1.0000 0.93073  0.41727  0.18577  Biso   1.000  N
  N91      1.0000 0.08603  0.49407  0.14645  Biso   1.000  N
  N92      1.0000 0.23873  0.58087  0.10223  Biso   1.000  N
  C342     1.0000 0.80663  0.37887  0.21198  Biso   1.000  C
  C343     1.0000 0.84683  0.37257  0.20324  Biso   1.000  C
  H265     1.0000 0.84653  0.33937  0.20347  Biso   1.000  H
  C344     1.0000 0.88843  0.41907  0.19399  Biso   1.000  C
  C345     1.0000 0.96893  0.45997  0.17812  Biso   1.000  C
  C346     1.0000 0.01463  0.45247  0.16950  Biso   1.000  C
  C347     1.0000 0.04933  0.45167  0.18676  Biso   1.000  C
  H266     1.0000 0.02663  0.42187  0.19547  Biso   1.000  H
  H267     1.0000 0.07853  0.44687  0.18187  Biso   1.000  H
  H268     1.0000 0.06433  0.48557  0.19387  Biso   1.000  H
  C348     1.0000 0.99133  0.40147  0.15746  Biso   1.000  C
  H269     1.0000 0.96693  0.37067  0.16537  Biso   1.000  H
  H270     1.0000 0.97163  0.40457  0.14647  Biso   1.000  H
  H271     1.0000 0.02053  0.39627  0.15277  Biso   1.000  H
  C349     1.0000 0.05183  0.49997  0.15718  Biso   1.000  C
  C350     1.0000 0.12133  0.53457  0.13514  Biso   1.000  C
  C351     1.0000 0.15963  0.52997  0.12453  Biso   1.000  C
  H272     1.0000 0.16053  0.49737  0.12437  Biso   1.000  H
  C352     1.0000 0.19613  0.57357  0.11422  Biso   1.000  C
  C353     1.0000 0.21353  0.45627  0.04997  Biso   1.000  C
  H273     1.0000 0.20053  0.43497  0.06127  Biso   1.000  H
  C354     1.0000 0.19293  0.43567  0.03247  Biso   1.000  C
  C355     1.0000 0.20813  0.46867  0.01477  Biso   1.000  C
  C356     1.0000 0.24173  0.52237  0.01527  Biso   1.000  C
  H274     1.0000 0.24633  0.54487  0.00457  Biso   1.000  H
  N93      1.0000 0.16083  0.37987  0.03187  Biso   1.000  N
  N94      1.0000 0.18973  0.44487  0.99757  Biso   1.000  N
  N95      1.0000 0.07233  0.22277  0.99227  Biso   1.000  N
  N96      1.0000 0.10683  0.28767  0.95967  Biso   1.000  N
  C357     1.0000 0.10143  0.29627  0.01487  Biso   1.000  C
  C358     1.0000 0.04653  0.28997  0.02187  Biso   1.000  C
  H275     1.0000 0.01953  0.25177  0.02257  Biso   1.000  H
  H276     1.0000 0.05133  0.30607  0.03467  Biso   1.000  H
  H277     1.0000 0.03483  0.30807  0.01277  Biso   1.000  H
  C359     1.0000 0.12363  0.27047  0.02827  Biso   1.000  C
  H278     1.0000 0.10173  0.23137  0.02727  Biso   1.000  H
  H279     1.0000 0.16073  0.28187  0.02457  Biso   1.000  H
  H280     1.0000 0.12283  0.28157  0.04157  Biso   1.000  H
  C360     1.0000 0.14833  0.38707  0.99807  Biso   1.000  C
  C361     1.0000 0.17293  0.39517  0.96177  Biso   1.000  C
  H281     1.0000 0.20443  0.39137  0.96407  Biso   1.000  H
  H282     1.0000 0.15673  0.37887  0.94937  Biso   1.000  H
  H283     1.0000 0.18373  0.43327  0.96167  Biso   1.000  H
  C362     1.0000 0.13403  0.36827  0.97707  Biso   1.000  C
  C363     1.0000 0.05863  0.15387  0.93947  Biso   1.000  C
  C364     1.0000 0.03773  0.12157  0.95557  Biso   1.000  C
  C365     1.0000 0.04053  0.14387  0.97347  Biso   1.000  C
  H284     1.0000 0.02643  0.12187  0.98457  Biso   1.000  H
  C366     1.0000 0.06353  0.19757  0.97477  Biso   1.000  C
  C367     1.0000 0.08483  0.23237  0.95747  Biso   1.000  C
  C368     1.0000 0.10433  0.30467  0.97817  Biso   1.000  C
  C369     1.0000 0.09413  0.27397  0.99347  Biso   1.000  C
  C370     1.0000 0.08153  0.20897  0.93977  Biso   1.000  C
  H285     1.0000 0.09433  0.22987  0.92837  Biso   1.000  H
  C371     1.0000 0.13933  0.35807  0.01547  Biso   1.000  C
  C372     1.0000 0.08613  0.37727  0.97197  Biso   1.000  C
  H286     1.0000 0.05393  0.35097  0.97897  Biso   1.000  H
  H287     1.0000 0.09513  0.41357  0.97577  Biso   1.000  H
  H288     1.0000 0.07943  0.37267  0.95807  Biso   1.000  H
  N97      1.0000 0.24660  0.57040  0.55514  Biso   1.000  N
  N98      1.0000 0.15320  0.40260  0.51910  Biso   1.000  N
  N99      1.0000 0.07470  0.24730  0.47978  Biso   1.000  N
  N100     1.0000 0.00880  0.09460  0.43556  Biso   1.000  N
  C373     1.0000 0.23890  0.52670  0.54531  Biso   1.000  C
  C374     1.0000 0.19240  0.48650  0.53657  Biso   1.000  C
  H289     1.0000 0.15950  0.48680  0.53680  Biso   1.000  H
  C375     1.0000 0.19730  0.44490  0.52732  Biso   1.000  C
  C376     1.0000 0.15770  0.36440  0.51145  Biso   1.000  C
  C377     1.0000 0.10450  0.31870  0.50283  Biso   1.000  C
  C378     1.0000 0.06900  0.28400  0.52009  Biso   1.000  C
  H290     1.0000 0.06190  0.30670  0.52880  Biso   1.000  H
  H291     1.0000 0.03500  0.25480  0.51520  Biso   1.000  H
  H292     1.0000 0.08790  0.26900  0.52720  Biso   1.000  H
  C379     1.0000 0.07680  0.34200  0.49079  Biso   1.000  C
  H293     1.0000 0.07040  0.36640  0.49870  Biso   1.000  H
  H294     1.0000 0.09960  0.36170  0.47980  Biso   1.000  H
  H295     1.0000 0.04240  0.31280  0.48610  Biso   1.000  H
  C380     1.0000 0.11480  0.28150  0.49051  Biso   1.000  C
  C381     1.0000 0.07990  0.21200  0.46847  Biso   1.000  C
  C382     1.0000 0.03700  0.17370  0.45786  Biso   1.000  C
  H296     1.0000 0.00350  0.17280  0.45770  Biso   1.000  H
  C383     1.0000 0.04410  0.13720  0.44755  Biso   1.000  C
  C384     1.0000 0.90940  0.11980  0.38330  Biso   1.000  C
  H297     1.0000 0.90110  0.13280  0.39460  Biso   1.000  H
  C385     1.0000 0.90940  0.14040  0.36580  Biso   1.000  C
  C386     1.0000 0.92720  0.12520  0.34810  Biso   1.000  C
  C387     1.0000 0.94730  0.09160  0.34860  Biso   1.000  C
  H298     1.0000 0.96520  0.08700  0.33790  Biso   1.000  H
  N101     1.0000 0.88570  0.17250  0.36520  Biso   1.000  N
  N102     1.0000 0.92180  0.14360  0.33090  Biso   1.000  N
  N103     1.0000 0.81710  0.26100  0.32560  Biso   1.000  N
  N104     1.0000 0.84750  0.22650  0.29300  Biso   1.000  N
  C388     1.0000 0.86150  0.23190  0.34820  Biso   1.000  C
  C389     1.0000 0.91010  0.28680  0.35520  Biso   1.000  C
  H299     1.0000 0.89890  0.31380  0.35590  Biso   1.000  H
  H300     1.0000 0.92140  0.28200  0.36800  Biso   1.000  H
  H301     1.0000 0.93990  0.29850  0.34610  Biso   1.000  H
  C390     1.0000 0.81350  0.20970  0.36160  Biso   1.000  C
  H302     1.0000 0.79630  0.23160  0.36060  Biso   1.000  H
  H303     1.0000 0.78780  0.17260  0.35790  Biso   1.000  H
  H304     1.0000 0.82540  0.21050  0.37490  Biso   1.000  H
  C391     1.0000 0.90540  0.18500  0.33140  Biso   1.000  C
  C392     1.0000 0.88890  0.16040  0.29510  Biso   1.000  C
  H305     1.0000 0.85360  0.12890  0.29740  Biso   1.000  H
  H306     1.0000 0.88880  0.17660  0.28270  Biso   1.000  H
  H307     1.0000 0.91620  0.14960  0.29500  Biso   1.000  H
  C393     1.0000 0.90090  0.19930  0.31040  Biso   1.000  C
  C394     1.0000 0.76190  0.27470  0.27280  Biso   1.000  C
  C395     1.0000 0.75050  0.29560  0.28890  Biso   1.000  C
  C396     1.0000 0.77000  0.29280  0.30680  Biso   1.000  C
  H308     1.0000 0.76210  0.30690  0.31790  Biso   1.000  H
  C397     1.0000 0.80070  0.26980  0.30810  Biso   1.000  C
  C398     1.0000 0.81420  0.24850  0.29080  Biso   1.000  C
  C399     1.0000 0.86700  0.22900  0.31150  Biso   1.000  C
  C400     1.0000 0.84650  0.23920  0.32680  Biso   1.000  C
  C401     1.0000 0.79410  0.25180  0.27310  Biso   1.000  C
  H309     1.0000 0.80220  0.23900  0.26170  Biso   1.000  H
  C402     1.0000 0.88540  0.19400  0.34880  Biso   1.000  C
  C403     1.0000 0.95780  0.24720  0.30530  Biso   1.000  C
  H310     1.0000 0.96370  0.27940  0.31230  Biso   1.000  H
  H311     1.0000 0.98510  0.23820  0.30910  Biso   1.000  H
  H312     1.0000 0.95990  0.25390  0.29140  Biso   1.000  H
  N105     1.0000 0.91327  0.90373  0.88847  Biso   1.000  N
  N106     1.0000 0.81987  0.73593  0.85243  Biso   1.000  N
  N107     1.0000 0.74137  0.58063  0.81311  Biso   1.000  N
  N108     1.0000 0.67547  0.42793  0.76889  Biso   1.000  N
  C404     1.0000 0.90557  0.86003  0.87864  Biso   1.000  C
  C405     1.0000 0.85907  0.81983  0.86990  Biso   1.000  C
  H313     1.0000 0.82617  0.82013  0.87013  Biso   1.000  H
  C406     1.0000 0.86397  0.77823  0.86065  Biso   1.000  C
  C407     1.0000 0.82437  0.69773  0.84478  Biso   1.000  C
  C408     1.0000 0.77117  0.65203  0.83616  Biso   1.000  C
  C409     1.0000 0.73567  0.61733  0.85342  Biso   1.000  C
  H314     1.0000 0.72857  0.64003  0.86213  Biso   1.000  H
  H315     1.0000 0.70167  0.58813  0.84853  Biso   1.000  H
  H316     1.0000 0.75457  0.60233  0.86053  Biso   1.000  H
  C410     1.0000 0.74347  0.67533  0.82412  Biso   1.000  C
  H317     1.0000 0.73707  0.69973  0.83203  Biso   1.000  H
  H318     1.0000 0.76627  0.69503  0.81313  Biso   1.000  H
  H319     1.0000 0.70907  0.64613  0.81943  Biso   1.000  H
  C411     1.0000 0.78147  0.61483  0.82384  Biso   1.000  C
  C412     1.0000 0.74657  0.54533  0.80180  Biso   1.000  C
  C413     1.0000 0.70367  0.50703  0.79119  Biso   1.000  C
  H320     1.0000 0.67017  0.50613  0.79103  Biso   1.000  H
  C414     1.0000 0.71077  0.47053  0.78088  Biso   1.000  C
  C415     1.0000 0.57607  0.45313  0.71663  Biso   1.000  C
  H321     1.0000 0.56777  0.46613  0.72793  Biso   1.000  H
  C416     1.0000 0.57607  0.47373  0.69913  Biso   1.000  C
  C417     1.0000 0.59387  0.45853  0.68143  Biso   1.000  C
  C418     1.0000 0.61397  0.42493  0.68193  Biso   1.000  C
  H322     1.0000 0.63187  0.42033  0.67123  Biso   1.000  H
  N109     1.0000 0.55237  0.50583  0.69853  Biso   1.000  N
  N110     1.0000 0.58847  0.47693  0.66423  Biso   1.000  N
  N111     1.0000 0.48377  0.59433  0.65893  Biso   1.000  N
  N112     1.0000 0.51417  0.55983  0.62633  Biso   1.000  N
  C419     1.0000 0.52817  0.56523  0.68153  Biso   1.000  C
  C420     1.0000 0.57677  0.62013  0.68853  Biso   1.000  C
  H323     1.0000 0.56557  0.64713  0.68923  Biso   1.000  H
  H324     1.0000 0.58807  0.61533  0.70133  Biso   1.000  H
  H325     1.0000 0.60657  0.63183  0.67943  Biso   1.000  H
  C421     1.0000 0.48017  0.54303  0.69493  Biso   1.000  C
  H326     1.0000 0.46297  0.56493  0.69393  Biso   1.000  H
  H327     1.0000 0.45447  0.50593  0.69123  Biso   1.000  H
  H328     1.0000 0.49207  0.54383  0.70823  Biso   1.000  H
  C422     1.0000 0.57207  0.51833  0.66473  Biso   1.000  C
  C423     1.0000 0.55557  0.49373  0.62843  Biso   1.000  C
  H329     1.0000 0.52027  0.46223  0.63073  Biso   1.000  H
  H330     1.0000 0.55547  0.50993  0.61603  Biso   1.000  H
  H331     1.0000 0.58287  0.48293  0.62833  Biso   1.000  H
  C424     1.0000 0.56757  0.53263  0.64373  Biso   1.000  C
  C425     1.0000 0.42857  0.60803  0.60613  Biso   1.000  C
  C426     1.0000 0.41717  0.62893  0.62223  Biso   1.000  C
  C427     1.0000 0.43667  0.62613  0.64013  Biso   1.000  C
  H332     1.0000 0.42877  0.64023  0.65123  Biso   1.000  H
  C428     1.0000 0.46737  0.60313  0.64143  Biso   1.000  C
  C429     1.0000 0.48087  0.58183  0.62413  Biso   1.000  C
  C430     1.0000 0.53367  0.56233  0.64483  Biso   1.000  C
  C431     1.0000 0.51317  0.57253  0.66013  Biso   1.000  C
  C432     1.0000 0.46077  0.58513  0.60643  Biso   1.000  C
  H333     1.0000 0.46887  0.57233  0.59503  Biso   1.000  H
  C433     1.0000 0.55207  0.52733  0.68213  Biso   1.000  C
  C434     1.0000 0.62447  0.58053  0.63863  Biso   1.000  C
  H334     1.0000 0.63037  0.61273  0.64563  Biso   1.000  H
  H335     1.0000 0.65177  0.57153  0.64243  Biso   1.000  H
  H336     1.0000 0.62657  0.58723  0.62473  Biso   1.000  H
  N113     1.0000 0.57993  0.23707  0.22181  Biso   1.000  N
  N114     1.0000 0.48653  0.06927  0.18577  Biso   1.000  N
  N115     1.0000 0.40803  0.91397  0.14645  Biso   1.000  N
  N116     1.0000 0.34213  0.76127  0.10223  Biso   1.000  N
  C435     1.0000 0.57223  0.19337  0.21198  Biso   1.000  C
  C436     1.0000 0.52573  0.15317  0.20324  Biso   1.000  C
  H337     1.0000 0.49283  0.15347  0.20347  Biso   1.000  H
  C437     1.0000 0.53063  0.11157  0.19399  Biso   1.000  C
  C438     1.0000 0.49103  0.03107  0.17812  Biso   1.000  C
  C439     1.0000 0.43783  0.98537  0.16950  Biso   1.000  C
  C440     1.0000 0.40233  0.95067  0.18676  Biso   1.000  C
  H338     1.0000 0.39523  0.97337  0.19547  Biso   1.000  H
  H339     1.0000 0.36833  0.92147  0.18187  Biso   1.000  H
  H340     1.0000 0.42123  0.93567  0.19387  Biso   1.000  H
  C441     1.0000 0.41013  0.00867  0.15746  Biso   1.000  C
  H341     1.0000 0.40373  0.03307  0.16537  Biso   1.000  H
  H342     1.0000 0.43293  0.02837  0.14647  Biso   1.000  H
  H343     1.0000 0.37573  0.97947  0.15277  Biso   1.000  H
  C442     1.0000 0.44813  0.94817  0.15718  Biso   1.000  C
  C443     1.0000 0.41323  0.87867  0.13514  Biso   1.000  C
  C444     1.0000 0.37033  0.84037  0.12453  Biso   1.000  C
  H344     1.0000 0.33683  0.83947  0.12437  Biso   1.000  H
  C445     1.0000 0.37743  0.80387  0.11422  Biso   1.000  C
  C446     1.0000 0.24273  0.78647  0.04997  Biso   1.000  C
  H345     1.0000 0.23443  0.79947  0.06127  Biso   1.000  H
  C447     1.0000 0.24273  0.80707  0.03247  Biso   1.000  C
  C448     1.0000 0.26053  0.79187  0.01477  Biso   1.000  C
  C449     1.0000 0.28063  0.75827  0.01527  Biso   1.000  C
  H346     1.0000 0.29853  0.75367  0.00457  Biso   1.000  H
  N117     1.0000 0.21903  0.83917  0.03187  Biso   1.000  N
  N118     1.0000 0.25513  0.81027  0.99757  Biso   1.000  N
  N119     1.0000 0.15043  0.92767  0.99227  Biso   1.000  N
  N120     1.0000 0.18083  0.89317  0.95967  Biso   1.000  N
  C450     1.0000 0.19483  0.89857  0.01487  Biso   1.000  C
  C451     1.0000 0.24343  0.95347  0.02187  Biso   1.000  C
  H347     1.0000 0.23223  0.98047  0.02257  Biso   1.000  H
  H348     1.0000 0.25473  0.94867  0.03467  Biso   1.000  H
  H349     1.0000 0.27323  0.96517  0.01277  Biso   1.000  H
  C452     1.0000 0.14683  0.87637  0.02827  Biso   1.000  C
  H350     1.0000 0.12963  0.89827  0.02727  Biso   1.000  H
  H351     1.0000 0.12113  0.83927  0.02457  Biso   1.000  H
  H352     1.0000 0.15873  0.87717  0.04157  Biso   1.000  H
  C453     1.0000 0.23873  0.85167  0.99807  Biso   1.000  C
  C454     1.0000 0.22223  0.82707  0.96177  Biso   1.000  C
  H353     1.0000 0.18693  0.79557  0.96407  Biso   1.000  H
  H354     1.0000 0.22213  0.84327  0.94937  Biso   1.000  H
  H355     1.0000 0.24953  0.81627  0.96167  Biso   1.000  H
  C455     1.0000 0.23423  0.86597  0.97707  Biso   1.000  C
  C456     1.0000 0.09523  0.94137  0.93947  Biso   1.000  C
  C457     1.0000 0.08383  0.96227  0.95557  Biso   1.000  C
  C458     1.0000 0.10333  0.95947  0.97347  Biso   1.000  C
  H356     1.0000 0.09543  0.97357  0.98457  Biso   1.000  H
  C459     1.0000 0.13403  0.93647  0.97477  Biso   1.000  C
  C460     1.0000 0.14753  0.91517  0.95747  Biso   1.000  C
  C461     1.0000 0.20033  0.89567  0.97817  Biso   1.000  C
  C462     1.0000 0.17983  0.90587  0.99347  Biso   1.000  C
  C463     1.0000 0.12743  0.91847  0.93977  Biso   1.000  C
  H357     1.0000 0.13553  0.90567  0.92837  Biso   1.000  H
  C464     1.0000 0.21873  0.86067  0.01547  Biso   1.000  C
  C465     1.0000 0.29113  0.91387  0.97197  Biso   1.000  C
  H358     1.0000 0.29703  0.94607  0.97897  Biso   1.000  H
  H359     1.0000 0.31843  0.90487  0.97577  Biso   1.000  H
  H360     1.0000 0.29323  0.92057  0.95807  Biso   1.000  H
  N121     1.0000 0.32380  0.75340  0.55514  Biso   1.000  N
  N122     1.0000 0.24940  0.84680  0.51910  Biso   1.000  N
  N123     1.0000 0.17260  0.92530  0.47978  Biso   1.000  N
  N124     1.0000 0.08580  0.99120  0.43556  Biso   1.000  N
  C466     1.0000 0.28780  0.76110  0.54531  Biso   1.000  C
  C467     1.0000 0.29410  0.80760  0.53657  Biso   1.000  C
  H361     1.0000 0.32730  0.84050  0.53680  Biso   1.000  H
  C468     1.0000 0.24760  0.80270  0.52732  Biso   1.000  C
  C469     1.0000 0.20670  0.84230  0.51145  Biso   1.000  C
  C470     1.0000 0.21420  0.89550  0.50283  Biso   1.000  C
  C471     1.0000 0.21500  0.93100  0.52009  Biso   1.000  C
  H362     1.0000 0.24480  0.93810  0.52880  Biso   1.000  H
  H363     1.0000 0.21980  0.96500  0.51520  Biso   1.000  H
  H364     1.0000 0.18110  0.91210  0.52720  Biso   1.000  H
  C472     1.0000 0.26520  0.92320  0.49079  Biso   1.000  C
  H365     1.0000 0.29600  0.92960  0.49870  Biso   1.000  H
  H366     1.0000 0.26210  0.90040  0.47980  Biso   1.000  H
  H367     1.0000 0.27040  0.95760  0.48610  Biso   1.000  H
  C473     1.0000 0.16670  0.88520  0.49051  Biso   1.000  C
  C474     1.0000 0.13210  0.92010  0.46847  Biso   1.000  C
  C475     1.0000 0.13670  0.96300  0.45786  Biso   1.000  C
  H368     1.0000 0.16930  0.99650  0.45770  Biso   1.000  H
  C476     1.0000 0.09310  0.95590  0.44755  Biso   1.000  C
  C477     1.0000 0.21040  0.09060  0.38330  Biso   1.000  C
  H369     1.0000 0.23170  0.09890  0.39460  Biso   1.000  H
  C478     1.0000 0.23100  0.09060  0.36580  Biso   1.000  C
  C479     1.0000 0.19800  0.07280  0.34810  Biso   1.000  C
  C480     1.0000 0.14430  0.05270  0.34860  Biso   1.000  C
  H370     1.0000 0.12180  0.03480  0.33790  Biso   1.000  H
  N125     1.0000 0.28680  0.11430  0.36520  Biso   1.000  N
  N126     1.0000 0.22180  0.07820  0.33090  Biso   1.000  N
  N127     1.0000 0.44390  0.18290  0.32560  Biso   1.000  N
  N128     1.0000 0.37900  0.15250  0.29300  Biso   1.000  N
  C481     1.0000 0.37040  0.13850  0.34820  Biso   1.000  C
  C482     1.0000 0.37670  0.08990  0.35520  Biso   1.000  C
  H371     1.0000 0.41490  0.10110  0.35590  Biso   1.000  H
  H372     1.0000 0.36060  0.07860  0.36800  Biso   1.000  H
  H373     1.0000 0.35860  0.06010  0.34610  Biso   1.000  H
  C483     1.0000 0.39620  0.18650  0.36160  Biso   1.000  C
  H374     1.0000 0.43530  0.20370  0.36060  Biso   1.000  H
  H375     1.0000 0.38480  0.21220  0.35790  Biso   1.000  H
  H376     1.0000 0.38510  0.17460  0.37490  Biso   1.000  H
  C484     1.0000 0.27960  0.09460  0.33140  Biso   1.000  C
  C485     1.0000 0.27150  0.11110  0.29510  Biso   1.000  C
  H377     1.0000 0.27530  0.14640  0.29740  Biso   1.000  H
  H378     1.0000 0.28780  0.11120  0.28270  Biso   1.000  H
  H379     1.0000 0.23340  0.08380  0.29500  Biso   1.000  H
  C486     1.0000 0.29840  0.09910  0.31040  Biso   1.000  C
  C487     1.0000 0.51280  0.23810  0.27280  Biso   1.000  C
  C488     1.0000 0.54510  0.24950  0.28890  Biso   1.000  C
  C489     1.0000 0.52280  0.23000  0.30680  Biso   1.000  C
  H380     1.0000 0.54480  0.23790  0.31790  Biso   1.000  H
  C490     1.0000 0.46910  0.19930  0.30810  Biso   1.000  C
  C491     1.0000 0.43430  0.18580  0.29080  Biso   1.000  C
  C492     1.0000 0.36200  0.13300  0.31150  Biso   1.000  C
  C493     1.0000 0.39270  0.15350  0.32680  Biso   1.000  C
  C494     1.0000 0.45770  0.20590  0.27310  Biso   1.000  C
  H381     1.0000 0.43680  0.19780  0.26170  Biso   1.000  H
  C495     1.0000 0.30860  0.11460  0.34880  Biso   1.000  C
  C496     1.0000 0.28940  0.04220  0.30530  Biso   1.000  C
  H382     1.0000 0.31570  0.03630  0.31230  Biso   1.000  H
  H383     1.0000 0.25310  0.01490  0.30910  Biso   1.000  H
  H384     1.0000 0.29400  0.04010  0.29140  Biso   1.000  H
  N129     1.0000 0.99047  0.08673  0.88847  Biso   1.000  N
  N130     1.0000 0.91607  0.18013  0.85243  Biso   1.000  N
  N131     1.0000 0.83927  0.25863  0.81311  Biso   1.000  N
  N132     1.0000 0.75247  0.32453  0.76889  Biso   1.000  N
  C497     1.0000 0.95447  0.09443  0.87864  Biso   1.000  C
  C498     1.0000 0.96077  0.14093  0.86990  Biso   1.000  C
  H385     1.0000 0.99397  0.17383  0.87013  Biso   1.000  H
  C499     1.0000 0.91427  0.13603  0.86065  Biso   1.000  C
  C500     1.0000 0.87337  0.17563  0.84478  Biso   1.000  C
  C501     1.0000 0.88087  0.22883  0.83616  Biso   1.000  C
  C502     1.0000 0.88167  0.26433  0.85342  Biso   1.000  C
  H386     1.0000 0.91147  0.27143  0.86213  Biso   1.000  H
  H387     1.0000 0.88647  0.29833  0.84853  Biso   1.000  H
  H388     1.0000 0.84777  0.24543  0.86053  Biso   1.000  H
  C503     1.0000 0.93187  0.25653  0.82412  Biso   1.000  C
  H389     1.0000 0.96267  0.26293  0.83203  Biso   1.000  H
  H390     1.0000 0.92877  0.23373  0.81313  Biso   1.000  H
  H391     1.0000 0.93707  0.29093  0.81943  Biso   1.000  H
  C504     1.0000 0.83337  0.21853  0.82384  Biso   1.000  C
  C505     1.0000 0.79877  0.25343  0.80180  Biso   1.000  C
  C506     1.0000 0.80337  0.29633  0.79119  Biso   1.000  C
  H392     1.0000 0.83597  0.32983  0.79103  Biso   1.000  H
  C507     1.0000 0.75977  0.28923  0.78088  Biso   1.000  C
  C508     1.0000 0.87707  0.42393  0.71663  Biso   1.000  C
  H393     1.0000 0.89837  0.43223  0.72793  Biso   1.000  H
  C509     1.0000 0.89767  0.42393  0.69913  Biso   1.000  C
  C510     1.0000 0.86467  0.40613  0.68143  Biso   1.000  C
  C511     1.0000 0.81097  0.38603  0.68193  Biso   1.000  C
  H394     1.0000 0.78847  0.36813  0.67123  Biso   1.000  H
  N133     1.0000 0.95347  0.44763  0.69853  Biso   1.000  N
  N134     1.0000 0.88847  0.41153  0.66423  Biso   1.000  N
  N135     1.0000 0.11057  0.51623  0.65893  Biso   1.000  N
  N136     1.0000 0.04567  0.48583  0.62633  Biso   1.000  N
  C512     1.0000 0.03707  0.47183  0.68153  Biso   1.000  C
  C513     1.0000 0.04337  0.42323  0.68853  Biso   1.000  C
  H395     1.0000 0.08157  0.43443  0.68923  Biso   1.000  H
  H396     1.0000 0.02727  0.41193  0.70133  Biso   1.000  H
  H397     1.0000 0.02527  0.39343  0.67943  Biso   1.000  H
  C514     1.0000 0.06287  0.51983  0.69493  Biso   1.000  C
  H398     1.0000 0.10197  0.53703  0.69393  Biso   1.000  H
  H399     1.0000 0.05147  0.54553  0.69123  Biso   1.000  H
  H400     1.0000 0.05177  0.50793  0.70823  Biso   1.000  H
  C515     1.0000 0.94627  0.42793  0.66473  Biso   1.000  C
  C516     1.0000 0.93817  0.44443  0.62843  Biso   1.000  C
  H401     1.0000 0.94197  0.47973  0.63073  Biso   1.000  H
  H402     1.0000 0.95447  0.44453  0.61603  Biso   1.000  H
  H403     1.0000 0.90007  0.41713  0.62833  Biso   1.000  H
  C517     1.0000 0.96507  0.43243  0.64373  Biso   1.000  C
  C518     1.0000 0.17947  0.57143  0.60613  Biso   1.000  C
  C519     1.0000 0.21177  0.58283  0.62223  Biso   1.000  C
  C520     1.0000 0.18947  0.56333  0.64013  Biso   1.000  C
  H404     1.0000 0.21147  0.57123  0.65123  Biso   1.000  H
  C521     1.0000 0.13577  0.53263  0.64143  Biso   1.000  C
  C522     1.0000 0.10097  0.51913  0.62413  Biso   1.000  C
  C523     1.0000 0.02867  0.46633  0.64483  Biso   1.000  C
  C524     1.0000 0.05937  0.48683  0.66013  Biso   1.000  C
  C525     1.0000 0.12437  0.53923  0.60643  Biso   1.000  C
  H405     1.0000 0.10347  0.53113  0.59503  Biso   1.000  H
  C526     1.0000 0.97527  0.44793  0.68213  Biso   1.000  C
  C527     1.0000 0.95607  0.37553  0.63863  Biso   1.000  C
  H406     1.0000 0.98237  0.36963  0.64563  Biso   1.000  H
  H407     1.0000 0.91977  0.34823  0.64243  Biso   1.000  H
  H408     1.0000 0.96067  0.37343  0.62473  Biso   1.000  H
  N137     1.0000 0.65713  0.42007  0.22181  Biso   1.000  N
  N138     1.0000 0.58273  0.51347  0.18577  Biso   1.000  N
  N139     1.0000 0.50593  0.59197  0.14645  Biso   1.000  N
  N140     1.0000 0.41913  0.65787  0.10223  Biso   1.000  N
  C528     1.0000 0.62113  0.42777  0.21198  Biso   1.000  C
  C529     1.0000 0.62743  0.47427  0.20324  Biso   1.000  C
  H409     1.0000 0.66063  0.50717  0.20347  Biso   1.000  H
  C530     1.0000 0.58093  0.46937  0.19399  Biso   1.000  C
  C531     1.0000 0.54003  0.50897  0.17812  Biso   1.000  C
  C532     1.0000 0.54753  0.56217  0.16950  Biso   1.000  C
  C533     1.0000 0.54833  0.59767  0.18676  Biso   1.000  C
  H410     1.0000 0.57813  0.60477  0.19547  Biso   1.000  H
  H411     1.0000 0.55313  0.63167  0.18187  Biso   1.000  H
  H412     1.0000 0.51443  0.57877  0.19387  Biso   1.000  H
  C534     1.0000 0.59853  0.58987  0.15746  Biso   1.000  C
  H413     1.0000 0.62933  0.59627  0.16537  Biso   1.000  H
  H414     1.0000 0.59543  0.56707  0.14647  Biso   1.000  H
  H415     1.0000 0.60373  0.62427  0.15277  Biso   1.000  H
  C535     1.0000 0.50003  0.55187  0.15718  Biso   1.000  C
  C536     1.0000 0.46543  0.58677  0.13514  Biso   1.000  C
  C537     1.0000 0.47003  0.62967  0.12453  Biso   1.000  C
  H416     1.0000 0.50263  0.66317  0.12437  Biso   1.000  H
  C538     1.0000 0.42643  0.62257  0.11422  Biso   1.000  C
  C539     1.0000 0.54373  0.75727  0.04997  Biso   1.000  C
  H417     1.0000 0.56503  0.76557  0.06127  Biso   1.000  H
  C540     1.0000 0.56433  0.75727  0.03247  Biso   1.000  C
  C541     1.0000 0.53133  0.73947  0.01477  Biso   1.000  C
  C542     1.0000 0.47763  0.71937  0.01527  Biso   1.000  C
  H418     1.0000 0.45513  0.70147  0.00457  Biso   1.000  H
  N141     1.0000 0.62013  0.78097  0.03187  Biso   1.000  N
  N142     1.0000 0.55513  0.74487  0.99757  Biso   1.000  N
  N143     1.0000 0.77723  0.84957  0.99227  Biso   1.000  N
  N144     1.0000 0.71233  0.81917  0.95967  Biso   1.000  N
  C543     1.0000 0.70373  0.80517  0.01487  Biso   1.000  C
  C544     1.0000 0.71003  0.75657  0.02187  Biso   1.000  C
  H419     1.0000 0.74823  0.76777  0.02257  Biso   1.000  H
  H420     1.0000 0.69393  0.74527  0.03467  Biso   1.000  H
  H421     1.0000 0.69193  0.72677  0.01277  Biso   1.000  H
  C545     1.0000 0.72953  0.85317  0.02827  Biso   1.000  C
  H422     1.0000 0.76863  0.87037  0.02727  Biso   1.000  H
  H423     1.0000 0.71813  0.87887  0.02457  Biso   1.000  H
  H424     1.0000 0.71843  0.84127  0.04157  Biso   1.000  H
  C546     1.0000 0.61293  0.76127  0.99807  Biso   1.000  C
  C547     1.0000 0.60483  0.77777  0.96177  Biso   1.000  C
  H425     1.0000 0.60863  0.81307  0.96407  Biso   1.000  H
  H426     1.0000 0.62113  0.77787  0.94937  Biso   1.000  H
  H427     1.0000 0.56673  0.75047  0.96167  Biso   1.000  H
  C548     1.0000 0.63173  0.76577  0.97707  Biso   1.000  C
  C549     1.0000 0.84613  0.90477  0.93947  Biso   1.000  C
  C550     1.0000 0.87843  0.91617  0.95557  Biso   1.000  C
  C551     1.0000 0.85613  0.89667  0.97347  Biso   1.000  C
  H428     1.0000 0.87813  0.90457  0.98457  Biso   1.000  H
  C552     1.0000 0.80243  0.86597  0.97477  Biso   1.000  C
  C553     1.0000 0.76763  0.85247  0.95747  Biso   1.000  C
  C554     1.0000 0.69533  0.79967  0.97817  Biso   1.000  C
  C555     1.0000 0.72603  0.82017  0.99347  Biso   1.000  C
  C556     1.0000 0.79103  0.87257  0.93977  Biso   1.000  C
  H429     1.0000 0.77013  0.86447  0.92837  Biso   1.000  H
  C557     1.0000 0.64193  0.78127  0.01547  Biso   1.000  C
  C558     1.0000 0.62273  0.70887  0.97197  Biso   1.000  C
  H430     1.0000 0.64903  0.70297  0.97897  Biso   1.000  H
  H431     1.0000 0.58643  0.68157  0.97577  Biso   1.000  H
  H432     1.0000 0.62733  0.70677  0.95807  Biso   1.000  H
  Zn1      1.0000 0.33333  0.66667  0.58021  Biso   1.000  Zn
  Zn2      1.0000 0.00000  0.00000  0.91354  Biso   1.000  Zn
  Zn3      1.0000 0.66667  0.33333  0.24688  Biso   1.000  Zn
  Zn4      1.0000 0.40209  0.59791  0.56221  Biso   1.000  Zn
  Cl1      1.0000 0.44143  0.55857  0.55259  Biso   1.000  Cl
  Zn5      1.0000 0.06876  0.93124  0.89554  Biso   1.000  Zn
  Cl2      1.0000 0.10810  0.89190  0.88592  Biso   1.000  Cl
  Zn6      1.0000 0.73542  0.26458  0.22888  Biso   1.000  Zn
  Cl3      1.0000 0.77476  0.22524  0.21926  Biso   1.000  Cl
  Zn7      1.0000 0.40209  0.80418  0.56221  Biso   1.000  Zn
  Cl4      1.0000 0.44143  0.88286  0.55259  Biso   1.000  Cl
  Zn8      1.0000 0.06876  0.13751  0.89554  Biso   1.000  Zn
  Cl5      1.0000 0.10810  0.21619  0.88592  Biso   1.000  Cl
  Zn9      1.0000 0.73542  0.47085  0.22888  Biso   1.000  Zn
  Cl6      1.0000 0.77476  0.54953  0.21926  Biso   1.000  Cl
  Zn10     1.0000 0.19582  0.59791  0.56221  Biso   1.000  Zn
  Cl7      1.0000 0.11714  0.55857  0.55259  Biso   1.000  Cl
  Zn11     1.0000 0.86249  0.93124  0.89554  Biso   1.000  Zn
  Cl8      1.0000 0.78381  0.89190  0.88592  Biso   1.000  Cl
  Zn12     1.0000 0.52915  0.26458  0.22888  Biso   1.000  Zn
  Cl9      1.0000 0.45047  0.22524  0.21926  Biso   1.000  Cl
  Zn13     1.0000 0.13582  0.06791  0.42792  Biso   1.000  Zn
  Cl10     1.0000 0.21534  0.10767  0.43886  Biso   1.000  Cl
  N145     1.0000 0.54391  0.27196  0.25752  Biso   1.000  N
  N146     1.0000 0.59550  0.29775  0.26444  Biso   1.000  N
  N147     1.0000 0.59690  0.29845  0.28300  Biso   1.000  N
  N148     1.0000 0.11770  0.05885  0.39920  Biso   1.000  N
  N149     1.0000 0.07010  0.03505  0.39231  Biso   1.000  N
  N150     1.0000 0.07040  0.03520  0.37351  Biso   1.000  N
  C559     1.0000 0.12200  0.06100  0.36770  Biso   1.000  C
  C560     1.0000 0.15530  0.07765  0.38440  Biso   1.000  C
  Zn14     1.0000 0.80249  0.40124  0.76125  Biso   1.000  Zn
  Cl11     1.0000 0.88201  0.44100  0.77219  Biso   1.000  Cl
  N151     1.0000 0.21058  0.60529  0.59085  Biso   1.000  N
  N152     1.0000 0.26217  0.63108  0.59777  Biso   1.000  N
  N153     1.0000 0.26357  0.63178  0.61633  Biso   1.000  N
  N154     1.0000 0.78437  0.39218  0.73253  Biso   1.000  N
  N155     1.0000 0.73677  0.36838  0.72564  Biso   1.000  N
  N156     1.0000 0.73707  0.36853  0.70684  Biso   1.000  N
  C561     1.0000 0.78867  0.39433  0.70103  Biso   1.000  C
  C562     1.0000 0.82197  0.41098  0.71773  Biso   1.000  C
  Zn15     1.0000 0.46915  0.73458  0.09459  Biso   1.000  Zn
  Cl12     1.0000 0.54867  0.77434  0.10553  Biso   1.000  Cl
  N157     1.0000 0.87724  0.93862  0.92419  Biso   1.000  N
  N158     1.0000 0.92883  0.96442  0.93111  Biso   1.000  N
  N159     1.0000 0.93023  0.96512  0.94967  Biso   1.000  N
  N160     1.0000 0.45103  0.72552  0.06587  Biso   1.000  N
  N161     1.0000 0.40343  0.70172  0.05898  Biso   1.000  N
  N162     1.0000 0.40373  0.70187  0.04018  Biso   1.000  N
  C563     1.0000 0.45533  0.72767  0.03437  Biso   1.000  C
  C564     1.0000 0.48863  0.74432  0.05107  Biso   1.000  C
  Zn16     1.0000 0.93209  0.06791  0.42792  Biso   1.000  Zn
  Cl13     1.0000 0.89233  0.10767  0.43886  Biso   1.000  Cl
  N163     1.0000 0.72804  0.27196  0.25752  Biso   1.000  N
  N164     1.0000 0.70225  0.29775  0.26444  Biso   1.000  N
  N165     1.0000 0.70155  0.29845  0.28300  Biso   1.000  N
  N166     1.0000 0.94115  0.05885  0.39920  Biso   1.000  N
  N167     1.0000 0.96495  0.03505  0.39231  Biso   1.000  N
  N168     1.0000 0.96480  0.03520  0.37351  Biso   1.000  N
  C565     1.0000 0.93900  0.06100  0.36770  Biso   1.000  C
  C566     1.0000 0.92235  0.07765  0.38440  Biso   1.000  C
  Zn17     1.0000 0.59876  0.40124  0.76125  Biso   1.000  Zn
  Cl14     1.0000 0.55900  0.44100  0.77219  Biso   1.000  Cl
  N169     1.0000 0.39471  0.60529  0.59085  Biso   1.000  N
  N170     1.0000 0.36892  0.63108  0.59777  Biso   1.000  N
  N171     1.0000 0.36822  0.63178  0.61633  Biso   1.000  N
  N172     1.0000 0.60782  0.39218  0.73253  Biso   1.000  N
  N173     1.0000 0.63162  0.36838  0.72564  Biso   1.000  N
  N174     1.0000 0.63147  0.36853  0.70684  Biso   1.000  N
  C567     1.0000 0.60567  0.39433  0.70103  Biso   1.000  C
  C568     1.0000 0.58902  0.41098  0.71773  Biso   1.000  C
  Zn18     1.0000 0.26542  0.73458  0.09459  Biso   1.000  Zn
  Cl15     1.0000 0.22566  0.77434  0.10553  Biso   1.000  Cl
  N175     1.0000 0.06138  0.93862  0.92419  Biso   1.000  N
  N176     1.0000 0.03558  0.96442  0.93111  Biso   1.000  N
  N177     1.0000 0.03488  0.96512  0.94967  Biso   1.000  N
  N178     1.0000 0.27448  0.72552  0.06587  Biso   1.000  N
  N179     1.0000 0.29828  0.70172  0.05898  Biso   1.000  N
  N180     1.0000 0.29813  0.70187  0.04018  Biso   1.000  N
  C569     1.0000 0.27233  0.72767  0.03437  Biso   1.000  C
  C570     1.0000 0.25568  0.74432  0.05107  Biso   1.000  C
  Zn19     1.0000 0.93209  0.86418  0.42792  Biso   1.000  Zn
  Cl16     1.0000 0.89233  0.78466  0.43886  Biso   1.000  Cl
  N181     1.0000 0.72804  0.45609  0.25752  Biso   1.000  N
  N182     1.0000 0.70225  0.40450  0.26444  Biso   1.000  N
  N183     1.0000 0.70155  0.40310  0.28300  Biso   1.000  N
  N184     1.0000 0.94115  0.88230  0.39920  Biso   1.000  N
  N185     1.0000 0.96495  0.92990  0.39231  Biso   1.000  N
  N186     1.0000 0.96480  0.92960  0.37351  Biso   1.000  N
  C571     1.0000 0.93900  0.87800  0.36770  Biso   1.000  C
  C572     1.0000 0.92235  0.84470  0.38440  Biso   1.000  C
  Zn20     1.0000 0.59876  0.19751  0.76125  Biso   1.000  Zn
  Cl17     1.0000 0.55900  0.11799  0.77219  Biso   1.000  Cl
  N187     1.0000 0.39471  0.78942  0.59085  Biso   1.000  N
  N188     1.0000 0.36892  0.73783  0.59777  Biso   1.000  N
  N189     1.0000 0.36822  0.73643  0.61633  Biso   1.000  N
  N190     1.0000 0.60782  0.21563  0.73253  Biso   1.000  N
  N191     1.0000 0.63162  0.26323  0.72564  Biso   1.000  N
  N192     1.0000 0.63147  0.26293  0.70684  Biso   1.000  N
  C573     1.0000 0.60567  0.21133  0.70103  Biso   1.000  C
  C574     1.0000 0.58902  0.17803  0.71773  Biso   1.000  C
  Zn21     1.0000 0.26542  0.53085  0.09459  Biso   1.000  Zn
  Cl18     1.0000 0.22566  0.45133  0.10553  Biso   1.000  Cl
  N193     1.0000 0.06138  0.12276  0.92419  Biso   1.000  N
  N194     1.0000 0.03558  0.07117  0.93111  Biso   1.000  N
  N195     1.0000 0.03488  0.06977  0.94967  Biso   1.000  N
  N196     1.0000 0.27448  0.54897  0.06587  Biso   1.000  N
  N197     1.0000 0.29828  0.59657  0.05898  Biso   1.000  N
  N198     1.0000 0.29813  0.59627  0.04018  Biso   1.000  N
  C575     1.0000 0.27233  0.54467  0.03437  Biso   1.000  C
  C576     1.0000 0.25568  0.51137  0.05107  Biso   1.000  C
  Zn22     1.0000 0.00000  0.00000  0.41054  Biso   1.000  Zn
  Zn23     1.0000 0.00000  0.00000  0.35670  Biso   1.000  Zn
  Cl19     1.0000 0.00000  0.00000  0.32850  Biso   1.000  Cl
  Zn24     1.0000 0.66667  0.33333  0.74387  Biso   1.000  Zn
  Zn25     1.0000 0.66667  0.33333  0.69003  Biso   1.000  Zn
  Cl20     1.0000 0.66667  0.33333  0.66183  Biso   1.000  Cl
  Zn26     1.0000 0.33333  0.66667  0.07721  Biso   1.000  Zn
  Zn27     1.0000 0.33333  0.66667  0.02337  Biso   1.000  Zn
  Cl21     1.0000 0.33333  0.66667  0.99517  Biso   1.000  Cl
  N199     1.0000 0.29755  0.59510  0.56142  Biso   1.000  N
  N200     1.0000 0.03570  0.07140  0.42894  Biso   1.000  N
  N201     1.0000 0.96422  0.92843  0.89475  Biso   1.000  N
  N202     1.0000 0.70237  0.40473  0.76227  Biso   1.000  N
  N203     1.0000 0.63088  0.26177  0.22809  Biso   1.000  N
  N204     1.0000 0.36903  0.73807  0.09561  Biso   1.000  N
  N205     1.0000 0.40490  0.70245  0.56142  Biso   1.000  N
  N206     1.0000 0.92860  0.96430  0.42894  Biso   1.000  N
  N207     1.0000 0.07157  0.03578  0.89475  Biso   1.000  N
  N208     1.0000 0.59527  0.29763  0.76227  Biso   1.000  N
  N209     1.0000 0.73823  0.36912  0.22809  Biso   1.000  N
  N210     1.0000 0.26193  0.63097  0.09561  Biso   1.000  N
  N211     1.0000 0.29755  0.70245  0.56142  Biso   1.000  N
  N212     1.0000 0.03570  0.96430  0.42894  Biso   1.000  N
  N213     1.0000 0.96422  0.03578  0.89475  Biso   1.000  N
  N214     1.0000 0.70237  0.29763  0.76227  Biso   1.000  N
  N215     1.0000 0.63088  0.36912  0.22809  Biso   1.000  N
  N216     1.0000 0.36903  0.63097  0.09561  Biso   1.000  N
  Zn28     1.0000 0.66667  0.33333  0.30085  Biso   1.000  Zn
  Zn29     1.0000 0.33333  0.66667  0.63418  Biso   1.000  Zn
  Zn30     1.0000 0.00000  0.00000  0.96752  Biso   1.000  Zn
  O1       1.0000 0.03190  0.96810  0.33710  Biso   1.000  O
  O2       1.0000 0.69857  0.30143  0.67043  Biso   1.000  O
  O3       1.0000 0.36523  0.63477  0.00377  Biso   1.000  O
  O4       1.0000 0.03190  0.06380  0.33710  Biso   1.000  O
  O5       1.0000 0.69857  0.39713  0.67043  Biso   1.000  O
  O6       1.0000 0.36523  0.73047  0.00377  Biso   1.000  O
  O7       1.0000 0.93620  0.96810  0.33710  Biso   1.000  O
  O8       1.0000 0.60287  0.30143  0.67043  Biso   1.000  O
  O9       1.0000 0.26953  0.63477  0.00377  Biso   1.000  O
  N217     1.0000 0.57040  0.32380  0.44486  Biso   1.000  N
  N218     1.0000 0.40260  0.24940  0.48090  Biso   1.000  N
  N219     1.0000 0.24730  0.17260  0.52022  Biso   1.000  N
  N220     1.0000 0.09460  0.08580  0.56444  Biso   1.000  N
  C577     1.0000 0.52670  0.28780  0.45469  Biso   1.000  C
  C578     1.0000 0.48650  0.29410  0.46343  Biso   1.000  C
  H433     1.0000 0.48680  0.32730  0.46320  Biso   1.000  H
  C579     1.0000 0.44490  0.24760  0.47268  Biso   1.000  C
  C580     1.0000 0.36440  0.20670  0.48855  Biso   1.000  C
  C581     1.0000 0.31870  0.21420  0.49717  Biso   1.000  C
  C582     1.0000 0.28400  0.21500  0.47991  Biso   1.000  C
  H434     1.0000 0.30670  0.24480  0.47120  Biso   1.000  H
  H435     1.0000 0.25480  0.21980  0.48480  Biso   1.000  H
  H436     1.0000 0.26900  0.18110  0.47280  Biso   1.000  H
  C583     1.0000 0.34200  0.26520  0.50921  Biso   1.000  C
  H437     1.0000 0.36640  0.29600  0.50130  Biso   1.000  H
  H438     1.0000 0.36170  0.26210  0.52020  Biso   1.000  H
  H439     1.0000 0.31280  0.27040  0.51390  Biso   1.000  H
  C584     1.0000 0.28150  0.16670  0.50949  Biso   1.000  C
  C585     1.0000 0.21200  0.13210  0.53153  Biso   1.000  C
  C586     1.0000 0.17370  0.13670  0.54214  Biso   1.000  C
  H440     1.0000 0.17280  0.16930  0.54230  Biso   1.000  H
  C587     1.0000 0.13720  0.09310  0.55245  Biso   1.000  C
  C588     1.0000 0.11980  0.21040  0.61670  Biso   1.000  C
  H441     1.0000 0.13280  0.23170  0.60540  Biso   1.000  H
  C589     1.0000 0.14040  0.23100  0.63420  Biso   1.000  C
  C590     1.0000 0.12520  0.19800  0.65190  Biso   1.000  C
  C591     1.0000 0.09160  0.14430  0.65140  Biso   1.000  C
  H442     1.0000 0.08700  0.12180  0.66210  Biso   1.000  H
  N221     1.0000 0.17250  0.28680  0.63480  Biso   1.000  N
  N222     1.0000 0.14360  0.22180  0.66910  Biso   1.000  N
  N223     1.0000 0.26100  0.44390  0.67440  Biso   1.000  N
  N224     1.0000 0.22650  0.37900  0.70700  Biso   1.000  N
  C592     1.0000 0.23190  0.37040  0.65180  Biso   1.000  C
  C593     1.0000 0.28680  0.37670  0.64480  Biso   1.000  C
  H443     1.0000 0.31380  0.41490  0.64410  Biso   1.000  H
  H444     1.0000 0.28200  0.36060  0.63200  Biso   1.000  H
  H445     1.0000 0.29850  0.35860  0.65390  Biso   1.000  H
  C594     1.0000 0.20970  0.39620  0.63840  Biso   1.000  C
  H446     1.0000 0.23160  0.43530  0.63940  Biso   1.000  H
  H447     1.0000 0.17260  0.38480  0.64210  Biso   1.000  H
  H448     1.0000 0.21050  0.38510  0.62510  Biso   1.000  H
  C595     1.0000 0.18500  0.27960  0.66860  Biso   1.000  C
  C596     1.0000 0.16040  0.27150  0.70490  Biso   1.000  C
  H449     1.0000 0.12890  0.27530  0.70260  Biso   1.000  H
  H450     1.0000 0.17660  0.28780  0.71730  Biso   1.000  H
  H451     1.0000 0.14960  0.23340  0.70500  Biso   1.000  H
  C597     1.0000 0.19930  0.29840  0.68960  Biso   1.000  C
  C598     1.0000 0.27470  0.51280  0.72720  Biso   1.000  C
  C599     1.0000 0.29560  0.54510  0.71110  Biso   1.000  C
  C600     1.0000 0.29280  0.52280  0.69320  Biso   1.000  C
  H452     1.0000 0.30690  0.54480  0.68210  Biso   1.000  H
  C601     1.0000 0.26980  0.46910  0.69190  Biso   1.000  C
  C602     1.0000 0.24850  0.43430  0.70920  Biso   1.000  C
  C603     1.0000 0.22900  0.36200  0.68850  Biso   1.000  C
  C604     1.0000 0.23920  0.39270  0.67320  Biso   1.000  C
  C605     1.0000 0.25180  0.45770  0.72690  Biso   1.000  C
  H453     1.0000 0.23900  0.43680  0.73830  Biso   1.000  H
  C606     1.0000 0.19400  0.30860  0.65120  Biso   1.000  C
  C607     1.0000 0.24720  0.28940  0.69470  Biso   1.000  C
  H454     1.0000 0.27940  0.31570  0.68770  Biso   1.000  H
  H455     1.0000 0.23820  0.25310  0.69090  Biso   1.000  H
  H456     1.0000 0.25390  0.29400  0.70860  Biso   1.000  H
  N225     1.0000 0.23707  0.65713  0.77819  Biso   1.000  N
  N226     1.0000 0.06927  0.58273  0.81423  Biso   1.000  N
  N227     1.0000 0.91397  0.50593  0.85355  Biso   1.000  N
  N228     1.0000 0.76127  0.41913  0.89777  Biso   1.000  N
  C608     1.0000 0.19337  0.62113  0.78802  Biso   1.000  C
  C609     1.0000 0.15317  0.62743  0.79676  Biso   1.000  C
  H457     1.0000 0.15347  0.66063  0.79653  Biso   1.000  H
  C610     1.0000 0.11157  0.58093  0.80601  Biso   1.000  C
  C611     1.0000 0.03107  0.54003  0.82188  Biso   1.000  C
  C612     1.0000 0.98537  0.54753  0.83050  Biso   1.000  C
  C613     1.0000 0.95067  0.54833  0.81324  Biso   1.000  C
  H458     1.0000 0.97337  0.57813  0.80453  Biso   1.000  H
  H459     1.0000 0.92147  0.55313  0.81813  Biso   1.000  H
  H460     1.0000 0.93567  0.51443  0.80613  Biso   1.000  H
  C614     1.0000 0.00867  0.59853  0.84254  Biso   1.000  C
  H461     1.0000 0.03307  0.62933  0.83463  Biso   1.000  H
  H462     1.0000 0.02837  0.59543  0.85353  Biso   1.000  H
  H463     1.0000 0.97947  0.60373  0.84723  Biso   1.000  H
  C615     1.0000 0.94817  0.50003  0.84282  Biso   1.000  C
  C616     1.0000 0.87867  0.46543  0.86486  Biso   1.000  C
  C617     1.0000 0.84037  0.47003  0.87547  Biso   1.000  C
  H464     1.0000 0.83947  0.50263  0.87563  Biso   1.000  H
  C618     1.0000 0.80387  0.42643  0.88578  Biso   1.000  C
  C619     1.0000 0.78647  0.54373  0.95003  Biso   1.000  C
  H465     1.0000 0.79947  0.56503  0.93873  Biso   1.000  H
  C620     1.0000 0.80707  0.56433  0.96753  Biso   1.000  C
  C621     1.0000 0.79187  0.53133  0.98523  Biso   1.000  C
  C622     1.0000 0.75827  0.47763  0.98473  Biso   1.000  C
  H466     1.0000 0.75367  0.45513  0.99543  Biso   1.000  H
  N229     1.0000 0.83917  0.62013  0.96813  Biso   1.000  N
  N230     1.0000 0.81027  0.55513  0.00243  Biso   1.000  N
  N231     1.0000 0.92767  0.77723  0.00773  Biso   1.000  N
  N232     1.0000 0.89317  0.71233  0.04033  Biso   1.000  N
  C623     1.0000 0.89857  0.70373  0.98513  Biso   1.000  C
  C624     1.0000 0.95347  0.71003  0.97813  Biso   1.000  C
  H467     1.0000 0.98047  0.74823  0.97743  Biso   1.000  H
  H468     1.0000 0.94867  0.69393  0.96533  Biso   1.000  H
  H469     1.0000 0.96517  0.69193  0.98723  Biso   1.000  H
  C625     1.0000 0.87637  0.72953  0.97173  Biso   1.000  C
  H470     1.0000 0.89827  0.76863  0.97273  Biso   1.000  H
  H471     1.0000 0.83927  0.71813  0.97543  Biso   1.000  H
  H472     1.0000 0.87717  0.71843  0.95843  Biso   1.000  H
  C626     1.0000 0.85167  0.61293  0.00193  Biso   1.000  C
  C627     1.0000 0.82707  0.60483  0.03823  Biso   1.000  C
  H473     1.0000 0.79557  0.60863  0.03593  Biso   1.000  H
  H474     1.0000 0.84327  0.62113  0.05063  Biso   1.000  H
  H475     1.0000 0.81627  0.56673  0.03833  Biso   1.000  H
  C628     1.0000 0.86597  0.63173  0.02293  Biso   1.000  C
  C629     1.0000 0.94137  0.84613  0.06053  Biso   1.000  C
  C630     1.0000 0.96227  0.87843  0.04443  Biso   1.000  C
  C631     1.0000 0.95947  0.85613  0.02653  Biso   1.000  C
  H476     1.0000 0.97357  0.87813  0.01543  Biso   1.000  H
  C632     1.0000 0.93647  0.80243  0.02523  Biso   1.000  C
  C633     1.0000 0.91517  0.76763  0.04253  Biso   1.000  C
  C634     1.0000 0.89567  0.69533  0.02183  Biso   1.000  C
  C635     1.0000 0.90587  0.72603  0.00653  Biso   1.000  C
  C636     1.0000 0.91847  0.79103  0.06023  Biso   1.000  C
  H477     1.0000 0.90567  0.77013  0.07163  Biso   1.000  H
  C637     1.0000 0.86067  0.64193  0.98453  Biso   1.000  C
  C638     1.0000 0.91387  0.62273  0.02803  Biso   1.000  C
  H478     1.0000 0.94607  0.64903  0.02103  Biso   1.000  H
  H479     1.0000 0.90487  0.58643  0.02423  Biso   1.000  H
  H480     1.0000 0.92057  0.62733  0.04193  Biso   1.000  H
  N233     1.0000 0.90373  0.99047  0.11153  Biso   1.000  N
  N234     1.0000 0.73593  0.91607  0.14757  Biso   1.000  N
  N235     1.0000 0.58063  0.83927  0.18689  Biso   1.000  N
  N236     1.0000 0.42793  0.75247  0.23111  Biso   1.000  N
  C639     1.0000 0.86003  0.95447  0.12136  Biso   1.000  C
  C640     1.0000 0.81983  0.96077  0.13010  Biso   1.000  C
  H481     1.0000 0.82013  0.99397  0.12987  Biso   1.000  H
  C641     1.0000 0.77823  0.91427  0.13935  Biso   1.000  C
  C642     1.0000 0.69773  0.87337  0.15522  Biso   1.000  C
  C643     1.0000 0.65203  0.88087  0.16384  Biso   1.000  C
  C644     1.0000 0.61733  0.88167  0.14658  Biso   1.000  C
  H482     1.0000 0.64003  0.91147  0.13787  Biso   1.000  H
  H483     1.0000 0.58813  0.88647  0.15147  Biso   1.000  H
  H484     1.0000 0.60233  0.84777  0.13947  Biso   1.000  H
  C645     1.0000 0.67533  0.93187  0.17588  Biso   1.000  C
  H485     1.0000 0.69973  0.96267  0.16797  Biso   1.000  H
  H486     1.0000 0.69503  0.92877  0.18687  Biso   1.000  H
  H487     1.0000 0.64613  0.93707  0.18057  Biso   1.000  H
  C646     1.0000 0.61483  0.83337  0.17616  Biso   1.000  C
  C647     1.0000 0.54533  0.79877  0.19820  Biso   1.000  C
  C648     1.0000 0.50703  0.80337  0.20881  Biso   1.000  C
  H488     1.0000 0.50613  0.83597  0.20897  Biso   1.000  H
  C649     1.0000 0.47053  0.75977  0.21912  Biso   1.000  C
  C650     1.0000 0.45313  0.87707  0.28337  Biso   1.000  C
  H489     1.0000 0.46613  0.89837  0.27207  Biso   1.000  H
  C651     1.0000 0.47373  0.89767  0.30087  Biso   1.000  C
  C652     1.0000 0.45853  0.86467  0.31857  Biso   1.000  C
  C653     1.0000 0.42493  0.81097  0.31807  Biso   1.000  C
  H490     1.0000 0.42033  0.78847  0.32877  Biso   1.000  H
  N237     1.0000 0.50583  0.95347  0.30147  Biso   1.000  N
  N238     1.0000 0.47693  0.88847  0.33577  Biso   1.000  N
  N239     1.0000 0.59433  0.11057  0.34107  Biso   1.000  N
  N240     1.0000 0.55983  0.04567  0.37367  Biso   1.000  N
  C654     1.0000 0.56523  0.03707  0.31847  Biso   1.000  C
  C655     1.0000 0.62013  0.04337  0.31147  Biso   1.000  C
  H491     1.0000 0.64713  0.08157  0.31077  Biso   1.000  H
  H492     1.0000 0.61533  0.02727  0.29867  Biso   1.000  H
  H493     1.0000 0.63183  0.02527  0.32057  Biso   1.000  H
  C656     1.0000 0.54303  0.06287  0.30507  Biso   1.000  C
  H494     1.0000 0.56493  0.10197  0.30607  Biso   1.000  H
  H495     1.0000 0.50593  0.05147  0.30877  Biso   1.000  H
  H496     1.0000 0.54383  0.05177  0.29177  Biso   1.000  H
  C657     1.0000 0.51833  0.94627  0.33527  Biso   1.000  C
  C658     1.0000 0.49373  0.93817  0.37157  Biso   1.000  C
  H497     1.0000 0.46223  0.94197  0.36927  Biso   1.000  H
  H498     1.0000 0.50993  0.95447  0.38397  Biso   1.000  H
  H499     1.0000 0.48293  0.90007  0.37167  Biso   1.000  H
  C659     1.0000 0.53263  0.96507  0.35627  Biso   1.000  C
  C660     1.0000 0.60803  0.17947  0.39387  Biso   1.000  C
  C661     1.0000 0.62893  0.21177  0.37777  Biso   1.000  C
  C662     1.0000 0.62613  0.18947  0.35987  Biso   1.000  C
  H500     1.0000 0.64023  0.21147  0.34877  Biso   1.000  H
  C663     1.0000 0.60313  0.13577  0.35857  Biso   1.000  C
  C664     1.0000 0.58183  0.10097  0.37587  Biso   1.000  C
  C665     1.0000 0.56233  0.02867  0.35517  Biso   1.000  C
  C666     1.0000 0.57253  0.05937  0.33987  Biso   1.000  C
  C667     1.0000 0.58513  0.12437  0.39357  Biso   1.000  C
  H501     1.0000 0.57233  0.10347  0.40497  Biso   1.000  H
  C668     1.0000 0.52733  0.97527  0.31787  Biso   1.000  C
  C669     1.0000 0.58053  0.95607  0.36137  Biso   1.000  C
  H502     1.0000 0.61273  0.98237  0.35437  Biso   1.000  H
  H503     1.0000 0.57153  0.91977  0.35757  Biso   1.000  H
  H504     1.0000 0.58723  0.96067  0.37527  Biso   1.000  H
  N241     1.0000 0.75340  0.42960  0.44486  Biso   1.000  N
  N242     1.0000 0.84680  0.59740  0.48090  Biso   1.000  N
  N243     1.0000 0.92530  0.75270  0.52022  Biso   1.000  N
  N244     1.0000 0.99120  0.90540  0.56444  Biso   1.000  N
  C670     1.0000 0.76110  0.47330  0.45469  Biso   1.000  C
  C671     1.0000 0.80760  0.51350  0.46343  Biso   1.000  C
  H505     1.0000 0.84050  0.51320  0.46320  Biso   1.000  H
  C672     1.0000 0.80270  0.55510  0.47268  Biso   1.000  C
  C673     1.0000 0.84230  0.63560  0.48855  Biso   1.000  C
  C674     1.0000 0.89550  0.68130  0.49717  Biso   1.000  C
  C675     1.0000 0.93100  0.71600  0.47991  Biso   1.000  C
  H506     1.0000 0.93810  0.69330  0.47120  Biso   1.000  H
  H507     1.0000 0.96500  0.74520  0.48480  Biso   1.000  H
  H508     1.0000 0.91210  0.73100  0.47280  Biso   1.000  H
  C676     1.0000 0.92320  0.65800  0.50921  Biso   1.000  C
  H509     1.0000 0.92960  0.63360  0.50130  Biso   1.000  H
  H510     1.0000 0.90040  0.63830  0.52020  Biso   1.000  H
  H511     1.0000 0.95760  0.68720  0.51390  Biso   1.000  H
  C677     1.0000 0.88520  0.71850  0.50949  Biso   1.000  C
  C678     1.0000 0.92010  0.78800  0.53153  Biso   1.000  C
  C679     1.0000 0.96300  0.82630  0.54214  Biso   1.000  C
  H512     1.0000 0.99650  0.82720  0.54230  Biso   1.000  H
  C680     1.0000 0.95590  0.86280  0.55245  Biso   1.000  C
  C681     1.0000 0.09060  0.88020  0.61670  Biso   1.000  C
  H513     1.0000 0.09890  0.86720  0.60540  Biso   1.000  H
  C682     1.0000 0.09060  0.85960  0.63420  Biso   1.000  C
  C683     1.0000 0.07280  0.87480  0.65190  Biso   1.000  C
  C684     1.0000 0.05270  0.90840  0.65140  Biso   1.000  C
  H514     1.0000 0.03480  0.91300  0.66210  Biso   1.000  H
  N245     1.0000 0.11430  0.82750  0.63480  Biso   1.000  N
  N246     1.0000 0.07820  0.85640  0.66910  Biso   1.000  N
  N247     1.0000 0.18290  0.73900  0.67440  Biso   1.000  N
  N248     1.0000 0.15250  0.77350  0.70700  Biso   1.000  N
  C685     1.0000 0.13850  0.76810  0.65180  Biso   1.000  C
  C686     1.0000 0.08990  0.71320  0.64480  Biso   1.000  C
  H515     1.0000 0.10110  0.68620  0.64410  Biso   1.000  H
  H516     1.0000 0.07860  0.71800  0.63200  Biso   1.000  H
  H517     1.0000 0.06010  0.70150  0.65390  Biso   1.000  H
  C687     1.0000 0.18650  0.79030  0.63840  Biso   1.000  C
  H518     1.0000 0.20370  0.76840  0.63940  Biso   1.000  H
  H519     1.0000 0.21220  0.82740  0.64210  Biso   1.000  H
  H520     1.0000 0.17460  0.78950  0.62510  Biso   1.000  H
  C688     1.0000 0.09460  0.81500  0.66860  Biso   1.000  C
  C689     1.0000 0.11110  0.83960  0.70490  Biso   1.000  C
  H521     1.0000 0.14640  0.87110  0.70260  Biso   1.000  H
  H522     1.0000 0.11120  0.82340  0.71730  Biso   1.000  H
  H523     1.0000 0.08380  0.85040  0.70500  Biso   1.000  H
  C690     1.0000 0.09910  0.80070  0.68960  Biso   1.000  C
  C691     1.0000 0.23810  0.72530  0.72720  Biso   1.000  C
  C692     1.0000 0.24950  0.70440  0.71110  Biso   1.000  C
  C693     1.0000 0.23000  0.70720  0.69320  Biso   1.000  C
  H524     1.0000 0.23790  0.69310  0.68210  Biso   1.000  H
  C694     1.0000 0.19930  0.73020  0.69190  Biso   1.000  C
  C695     1.0000 0.18580  0.75150  0.70920  Biso   1.000  C
  C696     1.0000 0.13300  0.77100  0.68850  Biso   1.000  C
  C697     1.0000 0.15350  0.76080  0.67320  Biso   1.000  C
  C698     1.0000 0.20590  0.74820  0.72690  Biso   1.000  C
  H525     1.0000 0.19780  0.76100  0.73830  Biso   1.000  H
  C699     1.0000 0.11460  0.80600  0.65120  Biso   1.000  C
  C700     1.0000 0.04220  0.75280  0.69470  Biso   1.000  C
  H526     1.0000 0.03630  0.72060  0.68770  Biso   1.000  H
  H527     1.0000 0.01490  0.76180  0.69090  Biso   1.000  H
  H528     1.0000 0.04010  0.74610  0.70860  Biso   1.000  H
  N249     1.0000 0.42007  0.76293  0.77819  Biso   1.000  N
  N250     1.0000 0.51347  0.93073  0.81423  Biso   1.000  N
  N251     1.0000 0.59197  0.08603  0.85355  Biso   1.000  N
  N252     1.0000 0.65787  0.23873  0.89777  Biso   1.000  N
  C701     1.0000 0.42777  0.80663  0.78802  Biso   1.000  C
  C702     1.0000 0.47427  0.84683  0.79676  Biso   1.000  C
  H529     1.0000 0.50717  0.84653  0.79653  Biso   1.000  H
  C703     1.0000 0.46937  0.88843  0.80601  Biso   1.000  C
  C704     1.0000 0.50897  0.96893  0.82188  Biso   1.000  C
  C705     1.0000 0.56217  0.01463  0.83050  Biso   1.000  C
  C706     1.0000 0.59767  0.04933  0.81324  Biso   1.000  C
  H530     1.0000 0.60477  0.02663  0.80453  Biso   1.000  H
  H531     1.0000 0.63167  0.07853  0.81813  Biso   1.000  H
  H532     1.0000 0.57877  0.06433  0.80613  Biso   1.000  H
  C707     1.0000 0.58987  0.99133  0.84254  Biso   1.000  C
  H533     1.0000 0.59627  0.96693  0.83463  Biso   1.000  H
  H534     1.0000 0.56707  0.97163  0.85353  Biso   1.000  H
  H535     1.0000 0.62427  0.02053  0.84723  Biso   1.000  H
  C708     1.0000 0.55187  0.05183  0.84282  Biso   1.000  C
  C709     1.0000 0.58677  0.12133  0.86486  Biso   1.000  C
  C710     1.0000 0.62967  0.15963  0.87547  Biso   1.000  C
  H536     1.0000 0.66317  0.16053  0.87563  Biso   1.000  H
  C711     1.0000 0.62257  0.19613  0.88578  Biso   1.000  C
  C712     1.0000 0.75727  0.21353  0.95003  Biso   1.000  C
  H537     1.0000 0.76557  0.20053  0.93873  Biso   1.000  H
  C713     1.0000 0.75727  0.19293  0.96753  Biso   1.000  C
  C714     1.0000 0.73947  0.20813  0.98523  Biso   1.000  C
  C715     1.0000 0.71937  0.24173  0.98473  Biso   1.000  C
  H538     1.0000 0.70147  0.24633  0.99543  Biso   1.000  H
  N253     1.0000 0.78097  0.16083  0.96813  Biso   1.000  N
  N254     1.0000 0.74487  0.18973  0.00243  Biso   1.000  N
  N255     1.0000 0.84957  0.07233  0.00773  Biso   1.000  N
  N256     1.0000 0.81917  0.10683  0.04033  Biso   1.000  N
  C716     1.0000 0.80517  0.10143  0.98513  Biso   1.000  C
  C717     1.0000 0.75657  0.04653  0.97813  Biso   1.000  C
  H539     1.0000 0.76777  0.01953  0.97743  Biso   1.000  H
  H540     1.0000 0.74527  0.05133  0.96533  Biso   1.000  H
  H541     1.0000 0.72677  0.03483  0.98723  Biso   1.000  H
  C718     1.0000 0.85317  0.12363  0.97173  Biso   1.000  C
  H542     1.0000 0.87037  0.10173  0.97273  Biso   1.000  H
  H543     1.0000 0.87887  0.16073  0.97543  Biso   1.000  H
  H544     1.0000 0.84127  0.12283  0.95843  Biso   1.000  H
  C719     1.0000 0.76127  0.14833  0.00193  Biso   1.000  C
  C720     1.0000 0.77777  0.17293  0.03823  Biso   1.000  C
  H545     1.0000 0.81307  0.20443  0.03593  Biso   1.000  H
  H546     1.0000 0.77787  0.15673  0.05063  Biso   1.000  H
  H547     1.0000 0.75047  0.18373  0.03833  Biso   1.000  H
  C721     1.0000 0.76577  0.13403  0.02293  Biso   1.000  C
  C722     1.0000 0.90477  0.05863  0.06053  Biso   1.000  C
  C723     1.0000 0.91617  0.03773  0.04443  Biso   1.000  C
  C724     1.0000 0.89667  0.04053  0.02653  Biso   1.000  C
  H548     1.0000 0.90457  0.02643  0.01543  Biso   1.000  H
  C725     1.0000 0.86597  0.06353  0.02523  Biso   1.000  C
  C726     1.0000 0.85247  0.08483  0.04253  Biso   1.000  C
  C727     1.0000 0.79967  0.10433  0.02183  Biso   1.000  C
  C728     1.0000 0.82017  0.09413  0.00653  Biso   1.000  C
  C729     1.0000 0.87257  0.08153  0.06023  Biso   1.000  C
  H549     1.0000 0.86447  0.09433  0.07163  Biso   1.000  H
  C730     1.0000 0.78127  0.13933  0.98453  Biso   1.000  C
  C731     1.0000 0.70887  0.08613  0.02803  Biso   1.000  C
  H550     1.0000 0.70297  0.05393  0.02103  Biso   1.000  H
  H551     1.0000 0.68157  0.09513  0.02423  Biso   1.000  H
  H552     1.0000 0.70677  0.07943  0.04193  Biso   1.000  H
  N257     1.0000 0.08673  0.09627  0.11153  Biso   1.000  N
  N258     1.0000 0.18013  0.26407  0.14757  Biso   1.000  N
  N259     1.0000 0.25863  0.41937  0.18689  Biso   1.000  N
  N260     1.0000 0.32453  0.57207  0.23111  Biso   1.000  N
  C732     1.0000 0.09443  0.13997  0.12136  Biso   1.000  C
  C733     1.0000 0.14093  0.18017  0.13010  Biso   1.000  C
  H553     1.0000 0.17383  0.17987  0.12987  Biso   1.000  H
  C734     1.0000 0.13603  0.22177  0.13935  Biso   1.000  C
  C735     1.0000 0.17563  0.30227  0.15522  Biso   1.000  C
  C736     1.0000 0.22883  0.34797  0.16384  Biso   1.000  C
  C737     1.0000 0.26433  0.38267  0.14658  Biso   1.000  C
  H554     1.0000 0.27143  0.35997  0.13787  Biso   1.000  H
  H555     1.0000 0.29833  0.41187  0.15147  Biso   1.000  H
  H556     1.0000 0.24543  0.39767  0.13947  Biso   1.000  H
  C738     1.0000 0.25653  0.32467  0.17588  Biso   1.000  C
  H557     1.0000 0.26293  0.30027  0.16797  Biso   1.000  H
  H558     1.0000 0.23373  0.30497  0.18687  Biso   1.000  H
  H559     1.0000 0.29093  0.35387  0.18057  Biso   1.000  H
  C739     1.0000 0.21853  0.38517  0.17616  Biso   1.000  C
  C740     1.0000 0.25343  0.45467  0.19820  Biso   1.000  C
  C741     1.0000 0.29633  0.49297  0.20881  Biso   1.000  C
  H560     1.0000 0.32983  0.49387  0.20897  Biso   1.000  H
  C742     1.0000 0.28923  0.52947  0.21912  Biso   1.000  C
  C743     1.0000 0.42393  0.54687  0.28337  Biso   1.000  C
  H561     1.0000 0.43223  0.53387  0.27207  Biso   1.000  H
  C744     1.0000 0.42393  0.52627  0.30087  Biso   1.000  C
  C745     1.0000 0.40613  0.54147  0.31857  Biso   1.000  C
  C746     1.0000 0.38603  0.57507  0.31807  Biso   1.000  C
  H562     1.0000 0.36813  0.57967  0.32877  Biso   1.000  H
  N261     1.0000 0.44763  0.49417  0.30147  Biso   1.000  N
  N262     1.0000 0.41153  0.52307  0.33577  Biso   1.000  N
  N263     1.0000 0.51623  0.40567  0.34107  Biso   1.000  N
  N264     1.0000 0.48583  0.44017  0.37367  Biso   1.000  N
  C747     1.0000 0.47183  0.43477  0.31847  Biso   1.000  C
  C748     1.0000 0.42323  0.37987  0.31147  Biso   1.000  C
  H563     1.0000 0.43443  0.35287  0.31077  Biso   1.000  H
  H564     1.0000 0.41193  0.38467  0.29867  Biso   1.000  H
  H565     1.0000 0.39343  0.36817  0.32057  Biso   1.000  H
  C749     1.0000 0.51983  0.45697  0.30507  Biso   1.000  C
  H566     1.0000 0.53703  0.43507  0.30607  Biso   1.000  H
  H567     1.0000 0.54553  0.49407  0.30877  Biso   1.000  H
  H568     1.0000 0.50793  0.45617  0.29177  Biso   1.000  H
  C750     1.0000 0.42793  0.48167  0.33527  Biso   1.000  C
  C751     1.0000 0.44443  0.50627  0.37157  Biso   1.000  C
  H569     1.0000 0.47973  0.53777  0.36927  Biso   1.000  H
  H570     1.0000 0.44453  0.49007  0.38397  Biso   1.000  H
  H571     1.0000 0.41713  0.51707  0.37167  Biso   1.000  H
  C752     1.0000 0.43243  0.46737  0.35627  Biso   1.000  C
  C753     1.0000 0.57143  0.39197  0.39387  Biso   1.000  C
  C754     1.0000 0.58283  0.37107  0.37777  Biso   1.000  C
  C755     1.0000 0.56333  0.37387  0.35987  Biso   1.000  C
  H572     1.0000 0.57123  0.35977  0.34877  Biso   1.000  H
  C756     1.0000 0.53263  0.39687  0.35857  Biso   1.000  C
  C757     1.0000 0.51913  0.41817  0.37587  Biso   1.000  C
  C758     1.0000 0.46633  0.43767  0.35517  Biso   1.000  C
  C759     1.0000 0.48683  0.42747  0.33987  Biso   1.000  C
  C760     1.0000 0.53923  0.41487  0.39357  Biso   1.000  C
  H573     1.0000 0.53113  0.42767  0.40497  Biso   1.000  H
  C761     1.0000 0.44793  0.47267  0.31787  Biso   1.000  C
  C762     1.0000 0.37553  0.41947  0.36137  Biso   1.000  C
  H574     1.0000 0.36963  0.38727  0.35437  Biso   1.000  H
  H575     1.0000 0.34823  0.42847  0.35757  Biso   1.000  H
  H576     1.0000 0.37343  0.41277  0.37527  Biso   1.000  H
  N265     1.0000 0.67620  0.24660  0.44486  Biso   1.000  N
  N266     1.0000 0.75060  0.15320  0.48090  Biso   1.000  N
  N267     1.0000 0.82740  0.07470  0.52022  Biso   1.000  N
  N268     1.0000 0.91420  0.00880  0.56444  Biso   1.000  N
  C763     1.0000 0.71220  0.23890  0.45469  Biso   1.000  C
  C764     1.0000 0.70590  0.19240  0.46343  Biso   1.000  C
  H577     1.0000 0.67270  0.15950  0.46320  Biso   1.000  H
  C765     1.0000 0.75240  0.19730  0.47268  Biso   1.000  C
  C766     1.0000 0.79330  0.15770  0.48855  Biso   1.000  C
  C767     1.0000 0.78580  0.10450  0.49717  Biso   1.000  C
  C768     1.0000 0.78500  0.06900  0.47991  Biso   1.000  C
  H578     1.0000 0.75520  0.06190  0.47120  Biso   1.000  H
  H579     1.0000 0.78020  0.03500  0.48480  Biso   1.000  H
  H580     1.0000 0.81890  0.08790  0.47280  Biso   1.000  H
  C769     1.0000 0.73480  0.07680  0.50921  Biso   1.000  C
  H581     1.0000 0.70400  0.07040  0.50130  Biso   1.000  H
  H582     1.0000 0.73790  0.09960  0.52020  Biso   1.000  H
  H583     1.0000 0.72960  0.04240  0.51390  Biso   1.000  H
  C770     1.0000 0.83330  0.11480  0.50949  Biso   1.000  C
  C771     1.0000 0.86790  0.07990  0.53153  Biso   1.000  C
  C772     1.0000 0.86330  0.03700  0.54214  Biso   1.000  C
  H584     1.0000 0.83070  0.00350  0.54230  Biso   1.000  H
  C773     1.0000 0.90690  0.04410  0.55245  Biso   1.000  C
  C774     1.0000 0.78960  0.90940  0.61670  Biso   1.000  C
  H585     1.0000 0.76830  0.90110  0.60540  Biso   1.000  H
  C775     1.0000 0.76900  0.90940  0.63420  Biso   1.000  C
  C776     1.0000 0.80200  0.92720  0.65190  Biso   1.000  C
  C777     1.0000 0.85570  0.94730  0.65140  Biso   1.000  C
  H586     1.0000 0.87820  0.96520  0.66210  Biso   1.000  H
  N269     1.0000 0.71320  0.88570  0.63480  Biso   1.000  N
  N270     1.0000 0.77820  0.92180  0.66910  Biso   1.000  N
  N271     1.0000 0.55610  0.81710  0.67440  Biso   1.000  N
  N272     1.0000 0.62100  0.84750  0.70700  Biso   1.000  N
  C778     1.0000 0.62960  0.86150  0.65180  Biso   1.000  C
  C779     1.0000 0.62330  0.91010  0.64480  Biso   1.000  C
  H587     1.0000 0.58510  0.89890  0.64410  Biso   1.000  H
  H588     1.0000 0.63940  0.92140  0.63200  Biso   1.000  H
  H589     1.0000 0.64140  0.93990  0.65390  Biso   1.000  H
  C780     1.0000 0.60380  0.81350  0.63840  Biso   1.000  C
  H590     1.0000 0.56470  0.79630  0.63940  Biso   1.000  H
  H591     1.0000 0.61520  0.78780  0.64210  Biso   1.000  H
  H592     1.0000 0.61490  0.82540  0.62510  Biso   1.000  H
  C781     1.0000 0.72040  0.90540  0.66860  Biso   1.000  C
  C782     1.0000 0.72850  0.88890  0.70490  Biso   1.000  C
  H593     1.0000 0.72470  0.85360  0.70260  Biso   1.000  H
  H594     1.0000 0.71220  0.88880  0.71730  Biso   1.000  H
  H595     1.0000 0.76660  0.91620  0.70500  Biso   1.000  H
  C783     1.0000 0.70160  0.90090  0.68960  Biso   1.000  C
  C784     1.0000 0.48720  0.76190  0.72720  Biso   1.000  C
  C785     1.0000 0.45490  0.75050  0.71110  Biso   1.000  C
  C786     1.0000 0.47720  0.77000  0.69320  Biso   1.000  C
  H596     1.0000 0.45520  0.76210  0.68210  Biso   1.000  H
  C787     1.0000 0.53090  0.80070  0.69190  Biso   1.000  C
  C788     1.0000 0.56570  0.81420  0.70920  Biso   1.000  C
  C789     1.0000 0.63800  0.86700  0.68850  Biso   1.000  C
  C790     1.0000 0.60730  0.84650  0.67320  Biso   1.000  C
  C791     1.0000 0.54230  0.79410  0.72690  Biso   1.000  C
  H597     1.0000 0.56320  0.80220  0.73830  Biso   1.000  H
  C792     1.0000 0.69140  0.88540  0.65120  Biso   1.000  C
  C793     1.0000 0.71060  0.95780  0.69470  Biso   1.000  C
  H598     1.0000 0.68430  0.96370  0.68770  Biso   1.000  H
  H599     1.0000 0.74690  0.98510  0.69090  Biso   1.000  H
  H600     1.0000 0.70600  0.95990  0.70860  Biso   1.000  H
  N273     1.0000 0.34287  0.57993  0.77819  Biso   1.000  N
  N274     1.0000 0.41727  0.48653  0.81423  Biso   1.000  N
  N275     1.0000 0.49407  0.40803  0.85355  Biso   1.000  N
  N276     1.0000 0.58087  0.34213  0.89777  Biso   1.000  N
  C794     1.0000 0.37887  0.57223  0.78802  Biso   1.000  C
  C795     1.0000 0.37257  0.52573  0.79676  Biso   1.000  C
  H601     1.0000 0.33937  0.49283  0.79653  Biso   1.000  H
  C796     1.0000 0.41907  0.53063  0.80601  Biso   1.000  C
  C797     1.0000 0.45997  0.49103  0.82188  Biso   1.000  C
  C798     1.0000 0.45247  0.43783  0.83050  Biso   1.000  C
  C799     1.0000 0.45167  0.40233  0.81324  Biso   1.000  C
  H602     1.0000 0.42187  0.39523  0.80453  Biso   1.000  H
  H603     1.0000 0.44687  0.36833  0.81813  Biso   1.000  H
  H604     1.0000 0.48557  0.42123  0.80613  Biso   1.000  H
  C800     1.0000 0.40147  0.41013  0.84254  Biso   1.000  C
  H605     1.0000 0.37067  0.40373  0.83463  Biso   1.000  H
  H606     1.0000 0.40457  0.43293  0.85353  Biso   1.000  H
  H607     1.0000 0.39627  0.37573  0.84723  Biso   1.000  H
  C801     1.0000 0.49997  0.44813  0.84282  Biso   1.000  C
  C802     1.0000 0.53457  0.41323  0.86486  Biso   1.000  C
  C803     1.0000 0.52997  0.37033  0.87547  Biso   1.000  C
  H608     1.0000 0.49737  0.33683  0.87563  Biso   1.000  H
  C804     1.0000 0.57357  0.37743  0.88578  Biso   1.000  C
  C805     1.0000 0.45627  0.24273  0.95003  Biso   1.000  C
  H609     1.0000 0.43497  0.23443  0.93873  Biso   1.000  H
  C806     1.0000 0.43567  0.24273  0.96753  Biso   1.000  C
  C807     1.0000 0.46867  0.26053  0.98523  Biso   1.000  C
  C808     1.0000 0.52237  0.28063  0.98473  Biso   1.000  C
  H610     1.0000 0.54487  0.29853  0.99543  Biso   1.000  H
  N277     1.0000 0.37987  0.21903  0.96813  Biso   1.000  N
  N278     1.0000 0.44487  0.25513  0.00243  Biso   1.000  N
  N279     1.0000 0.22277  0.15043  0.00773  Biso   1.000  N
  N280     1.0000 0.28767  0.18083  0.04033  Biso   1.000  N
  C809     1.0000 0.29627  0.19483  0.98513  Biso   1.000  C
  C810     1.0000 0.28997  0.24343  0.97813  Biso   1.000  C
  H611     1.0000 0.25177  0.23223  0.97743  Biso   1.000  H
  H612     1.0000 0.30607  0.25473  0.96533  Biso   1.000  H
  H613     1.0000 0.30807  0.27323  0.98723  Biso   1.000  H
  C811     1.0000 0.27047  0.14683  0.97173  Biso   1.000  C
  H614     1.0000 0.23137  0.12963  0.97273  Biso   1.000  H
  H615     1.0000 0.28187  0.12113  0.97543  Biso   1.000  H
  H616     1.0000 0.28157  0.15873  0.95843  Biso   1.000  H
  C812     1.0000 0.38707  0.23873  0.00193  Biso   1.000  C
  C813     1.0000 0.39517  0.22223  0.03823  Biso   1.000  C
  H617     1.0000 0.39137  0.18693  0.03593  Biso   1.000  H
  H618     1.0000 0.37887  0.22213  0.05063  Biso   1.000  H
  H619     1.0000 0.43327  0.24953  0.03833  Biso   1.000  H
  C814     1.0000 0.36827  0.23423  0.02293  Biso   1.000  C
  C815     1.0000 0.15387  0.09523  0.06053  Biso   1.000  C
  C816     1.0000 0.12157  0.08383  0.04443  Biso   1.000  C
  C817     1.0000 0.14387  0.10333  0.02653  Biso   1.000  C
  H620     1.0000 0.12187  0.09543  0.01543  Biso   1.000  H
  C818     1.0000 0.19757  0.13403  0.02523  Biso   1.000  C
  C819     1.0000 0.23237  0.14753  0.04253  Biso   1.000  C
  C820     1.0000 0.30467  0.20033  0.02183  Biso   1.000  C
  C821     1.0000 0.27397  0.17983  0.00653  Biso   1.000  C
  C822     1.0000 0.20897  0.12743  0.06023  Biso   1.000  C
  H621     1.0000 0.22987  0.13553  0.07163  Biso   1.000  H
  C823     1.0000 0.35807  0.21873  0.98453  Biso   1.000  C
  C824     1.0000 0.37727  0.29113  0.02803  Biso   1.000  C
  H622     1.0000 0.35097  0.29703  0.02103  Biso   1.000  H
  H623     1.0000 0.41357  0.31843  0.02423  Biso   1.000  H
  H624     1.0000 0.37267  0.29323  0.04193  Biso   1.000  H
  N281     1.0000 0.00953  0.91327  0.11153  Biso   1.000  N
  N282     1.0000 0.08393  0.81987  0.14757  Biso   1.000  N
  N283     1.0000 0.16073  0.74137  0.18689  Biso   1.000  N
  N284     1.0000 0.24753  0.67547  0.23111  Biso   1.000  N
  C825     1.0000 0.04553  0.90557  0.12136  Biso   1.000  C
  C826     1.0000 0.03923  0.85907  0.13010  Biso   1.000  C
  H625     1.0000 0.00603  0.82617  0.12987  Biso   1.000  H
  C827     1.0000 0.08573  0.86397  0.13935  Biso   1.000  C
  C828     1.0000 0.12663  0.82437  0.15522  Biso   1.000  C
  C829     1.0000 0.11913  0.77117  0.16384  Biso   1.000  C
  C830     1.0000 0.11833  0.73567  0.14658  Biso   1.000  C
  H626     1.0000 0.08853  0.72857  0.13787  Biso   1.000  H
  H627     1.0000 0.11353  0.70167  0.15147  Biso   1.000  H
  H628     1.0000 0.15223  0.75457  0.13947  Biso   1.000  H
  C831     1.0000 0.06813  0.74347  0.17588  Biso   1.000  C
  H629     1.0000 0.03733  0.73707  0.16797  Biso   1.000  H
  H630     1.0000 0.07123  0.76627  0.18687  Biso   1.000  H
  H631     1.0000 0.06293  0.70907  0.18057  Biso   1.000  H
  C832     1.0000 0.16663  0.78147  0.17616  Biso   1.000  C
  C833     1.0000 0.20123  0.74657  0.19820  Biso   1.000  C
  C834     1.0000 0.19663  0.70367  0.20881  Biso   1.000  C
  H632     1.0000 0.16403  0.67017  0.20897  Biso   1.000  H
  C835     1.0000 0.24023  0.71077  0.21912  Biso   1.000  C
  C836     1.0000 0.12293  0.57607  0.28337  Biso   1.000  C
  H633     1.0000 0.10163  0.56777  0.27207  Biso   1.000  H
  C837     1.0000 0.10233  0.57607  0.30087  Biso   1.000  C
  C838     1.0000 0.13533  0.59387  0.31857  Biso   1.000  C
  C839     1.0000 0.18903  0.61397  0.31807  Biso   1.000  C
  H634     1.0000 0.21153  0.63187  0.32877  Biso   1.000  H
  N285     1.0000 0.04653  0.55237  0.30147  Biso   1.000  N
  N286     1.0000 0.11153  0.58847  0.33577  Biso   1.000  N
  N287     1.0000 0.88943  0.48377  0.34107  Biso   1.000  N
  N288     1.0000 0.95433  0.51417  0.37367  Biso   1.000  N
  C840     1.0000 0.96293  0.52817  0.31847  Biso   1.000  C
  C841     1.0000 0.95663  0.57677  0.31147  Biso   1.000  C
  H635     1.0000 0.91843  0.56557  0.31077  Biso   1.000  H
  H636     1.0000 0.97273  0.58807  0.29867  Biso   1.000  H
  H637     1.0000 0.97473  0.60657  0.32057  Biso   1.000  H
  C842     1.0000 0.93713  0.48017  0.30507  Biso   1.000  C
  H638     1.0000 0.89803  0.46297  0.30607  Biso   1.000  H
  H639     1.0000 0.94853  0.45447  0.30877  Biso   1.000  H
  H640     1.0000 0.94823  0.49207  0.29177  Biso   1.000  H
  C843     1.0000 0.05373  0.57207  0.33527  Biso   1.000  C
  C844     1.0000 0.06183  0.55557  0.37157  Biso   1.000  C
  H641     1.0000 0.05803  0.52027  0.36927  Biso   1.000  H
  H642     1.0000 0.04553  0.55547  0.38397  Biso   1.000  H
  H643     1.0000 0.09993  0.58287  0.37167  Biso   1.000  H
  C845     1.0000 0.03493  0.56757  0.35627  Biso   1.000  C
  C846     1.0000 0.82053  0.42857  0.39387  Biso   1.000  C
  C847     1.0000 0.78823  0.41717  0.37777  Biso   1.000  C
  C848     1.0000 0.81053  0.43667  0.35987  Biso   1.000  C
  H644     1.0000 0.78853  0.42877  0.34877  Biso   1.000  H
  C849     1.0000 0.86423  0.46737  0.35857  Biso   1.000  C
  C850     1.0000 0.89903  0.48087  0.37587  Biso   1.000  C
  C851     1.0000 0.97133  0.53367  0.35517  Biso   1.000  C
  C852     1.0000 0.94063  0.51317  0.33987  Biso   1.000  C
  C853     1.0000 0.87563  0.46077  0.39357  Biso   1.000  C
  H645     1.0000 0.89653  0.46887  0.40497  Biso   1.000  H
  C854     1.0000 0.02473  0.55207  0.31787  Biso   1.000  C
  C855     1.0000 0.04393  0.62447  0.36137  Biso   1.000  C
  H646     1.0000 0.01763  0.63037  0.35437  Biso   1.000  H
  H647     1.0000 0.08023  0.65177  0.35757  Biso   1.000  H
  H648     1.0000 0.03933  0.62657  0.37527  Biso   1.000  H
  N289     1.0000 0.67620  0.42960  0.44486  Biso   1.000  N
  N290     1.0000 0.75060  0.59740  0.48090  Biso   1.000  N
  N291     1.0000 0.82740  0.75270  0.52022  Biso   1.000  N
  N292     1.0000 0.91420  0.90540  0.56444  Biso   1.000  N
  C856     1.0000 0.71220  0.47330  0.45469  Biso   1.000  C
  C857     1.0000 0.70590  0.51350  0.46343  Biso   1.000  C
  H649     1.0000 0.67270  0.51320  0.46320  Biso   1.000  H
  C858     1.0000 0.75240  0.55510  0.47268  Biso   1.000  C
  C859     1.0000 0.79330  0.63560  0.48855  Biso   1.000  C
  C860     1.0000 0.78580  0.68130  0.49717  Biso   1.000  C
  C861     1.0000 0.78500  0.71600  0.47991  Biso   1.000  C
  H650     1.0000 0.75520  0.69330  0.47120  Biso   1.000  H
  H651     1.0000 0.78020  0.74520  0.48480  Biso   1.000  H
  H652     1.0000 0.81890  0.73100  0.47280  Biso   1.000  H
  C862     1.0000 0.73480  0.65800  0.50921  Biso   1.000  C
  H653     1.0000 0.70400  0.63360  0.50130  Biso   1.000  H
  H654     1.0000 0.73790  0.63830  0.52020  Biso   1.000  H
  H655     1.0000 0.72960  0.68720  0.51390  Biso   1.000  H
  C863     1.0000 0.83330  0.71850  0.50949  Biso   1.000  C
  C864     1.0000 0.86790  0.78800  0.53153  Biso   1.000  C
  C865     1.0000 0.86330  0.82630  0.54214  Biso   1.000  C
  H656     1.0000 0.83070  0.82720  0.54230  Biso   1.000  H
  C866     1.0000 0.90690  0.86280  0.55245  Biso   1.000  C
  C867     1.0000 0.78960  0.88020  0.61670  Biso   1.000  C
  H657     1.0000 0.76830  0.86720  0.60540  Biso   1.000  H
  C868     1.0000 0.76900  0.85960  0.63420  Biso   1.000  C
  C869     1.0000 0.80200  0.87480  0.65190  Biso   1.000  C
  C870     1.0000 0.85570  0.90840  0.65140  Biso   1.000  C
  H658     1.0000 0.87820  0.91300  0.66210  Biso   1.000  H
  N293     1.0000 0.71320  0.82750  0.63480  Biso   1.000  N
  N294     1.0000 0.77820  0.85640  0.66910  Biso   1.000  N
  N295     1.0000 0.55610  0.73900  0.67440  Biso   1.000  N
  N296     1.0000 0.62100  0.77350  0.70700  Biso   1.000  N
  C871     1.0000 0.62960  0.76810  0.65180  Biso   1.000  C
  C872     1.0000 0.62330  0.71320  0.64480  Biso   1.000  C
  H659     1.0000 0.58510  0.68620  0.64410  Biso   1.000  H
  H660     1.0000 0.63940  0.71800  0.63200  Biso   1.000  H
  H661     1.0000 0.64140  0.70150  0.65390  Biso   1.000  H
  C873     1.0000 0.60380  0.79030  0.63840  Biso   1.000  C
  H662     1.0000 0.56470  0.76840  0.63940  Biso   1.000  H
  H663     1.0000 0.61520  0.82740  0.64210  Biso   1.000  H
  H664     1.0000 0.61490  0.78950  0.62510  Biso   1.000  H
  C874     1.0000 0.72040  0.81500  0.66860  Biso   1.000  C
  C875     1.0000 0.72850  0.83960  0.70490  Biso   1.000  C
  H665     1.0000 0.72470  0.87110  0.70260  Biso   1.000  H
  H666     1.0000 0.71220  0.82340  0.71730  Biso   1.000  H
  H667     1.0000 0.76660  0.85040  0.70500  Biso   1.000  H
  C876     1.0000 0.70160  0.80070  0.68960  Biso   1.000  C
  C877     1.0000 0.48720  0.72530  0.72720  Biso   1.000  C
  C878     1.0000 0.45490  0.70440  0.71110  Biso   1.000  C
  C879     1.0000 0.47720  0.70720  0.69320  Biso   1.000  C
  H668     1.0000 0.45520  0.69310  0.68210  Biso   1.000  H
  C880     1.0000 0.53090  0.73020  0.69190  Biso   1.000  C
  C881     1.0000 0.56570  0.75150  0.70920  Biso   1.000  C
  C882     1.0000 0.63800  0.77100  0.68850  Biso   1.000  C
  C883     1.0000 0.60730  0.76080  0.67320  Biso   1.000  C
  C884     1.0000 0.54230  0.74820  0.72690  Biso   1.000  C
  H669     1.0000 0.56320  0.76100  0.73830  Biso   1.000  H
  C885     1.0000 0.69140  0.80600  0.65120  Biso   1.000  C
  C886     1.0000 0.71060  0.75280  0.69470  Biso   1.000  C
  H670     1.0000 0.68430  0.72060  0.68770  Biso   1.000  H
  H671     1.0000 0.74690  0.76180  0.69090  Biso   1.000  H
  H672     1.0000 0.70600  0.74610  0.70860  Biso   1.000  H
  N297     1.0000 0.34287  0.76293  0.77819  Biso   1.000  N
  N298     1.0000 0.41727  0.93073  0.81423  Biso   1.000  N
  N299     1.0000 0.49407  0.08603  0.85355  Biso   1.000  N
  N300     1.0000 0.58087  0.23873  0.89777  Biso   1.000  N
  C887     1.0000 0.37887  0.80663  0.78802  Biso   1.000  C
  C888     1.0000 0.37257  0.84683  0.79676  Biso   1.000  C
  H673     1.0000 0.33937  0.84653  0.79653  Biso   1.000  H
  C889     1.0000 0.41907  0.88843  0.80601  Biso   1.000  C
  C890     1.0000 0.45997  0.96893  0.82188  Biso   1.000  C
  C891     1.0000 0.45247  0.01463  0.83050  Biso   1.000  C
  C892     1.0000 0.45167  0.04933  0.81324  Biso   1.000  C
  H674     1.0000 0.42187  0.02663  0.80453  Biso   1.000  H
  H675     1.0000 0.44687  0.07853  0.81813  Biso   1.000  H
  H676     1.0000 0.48557  0.06433  0.80613  Biso   1.000  H
  C893     1.0000 0.40147  0.99133  0.84254  Biso   1.000  C
  H677     1.0000 0.37067  0.96693  0.83463  Biso   1.000  H
  H678     1.0000 0.40457  0.97163  0.85353  Biso   1.000  H
  H679     1.0000 0.39627  0.02053  0.84723  Biso   1.000  H
  C894     1.0000 0.49997  0.05183  0.84282  Biso   1.000  C
  C895     1.0000 0.53457  0.12133  0.86486  Biso   1.000  C
  C896     1.0000 0.52997  0.15963  0.87547  Biso   1.000  C
  H680     1.0000 0.49737  0.16053  0.87563  Biso   1.000  H
  C897     1.0000 0.57357  0.19613  0.88578  Biso   1.000  C
  C898     1.0000 0.45627  0.21353  0.95003  Biso   1.000  C
  H681     1.0000 0.43497  0.20053  0.93873  Biso   1.000  H
  C899     1.0000 0.43567  0.19293  0.96753  Biso   1.000  C
  C900     1.0000 0.46867  0.20813  0.98523  Biso   1.000  C
  C901     1.0000 0.52237  0.24173  0.98473  Biso   1.000  C
  H682     1.0000 0.54487  0.24633  0.99543  Biso   1.000  H
  N301     1.0000 0.37987  0.16083  0.96813  Biso   1.000  N
  N302     1.0000 0.44487  0.18973  0.00243  Biso   1.000  N
  N303     1.0000 0.22277  0.07233  0.00773  Biso   1.000  N
  N304     1.0000 0.28767  0.10683  0.04033  Biso   1.000  N
  C902     1.0000 0.29627  0.10143  0.98513  Biso   1.000  C
  C903     1.0000 0.28997  0.04653  0.97813  Biso   1.000  C
  H683     1.0000 0.25177  0.01953  0.97743  Biso   1.000  H
  H684     1.0000 0.30607  0.05133  0.96533  Biso   1.000  H
  H685     1.0000 0.30807  0.03483  0.98723  Biso   1.000  H
  C904     1.0000 0.27047  0.12363  0.97173  Biso   1.000  C
  H686     1.0000 0.23137  0.10173  0.97273  Biso   1.000  H
  H687     1.0000 0.28187  0.16073  0.97543  Biso   1.000  H
  H688     1.0000 0.28157  0.12283  0.95843  Biso   1.000  H
  C905     1.0000 0.38707  0.14833  0.00193  Biso   1.000  C
  C906     1.0000 0.39517  0.17293  0.03823  Biso   1.000  C
  H689     1.0000 0.39137  0.20443  0.03593  Biso   1.000  H
  H690     1.0000 0.37887  0.15673  0.05063  Biso   1.000  H
  H691     1.0000 0.43327  0.18373  0.03833  Biso   1.000  H
  C907     1.0000 0.36827  0.13403  0.02293  Biso   1.000  C
  C908     1.0000 0.15387  0.05863  0.06053  Biso   1.000  C
  C909     1.0000 0.12157  0.03773  0.04443  Biso   1.000  C
  C910     1.0000 0.14387  0.04053  0.02653  Biso   1.000  C
  H692     1.0000 0.12187  0.02643  0.01543  Biso   1.000  H
  C911     1.0000 0.19757  0.06353  0.02523  Biso   1.000  C
  C912     1.0000 0.23237  0.08483  0.04253  Biso   1.000  C
  C913     1.0000 0.30467  0.10433  0.02183  Biso   1.000  C
  C914     1.0000 0.27397  0.09413  0.00653  Biso   1.000  C
  C915     1.0000 0.20897  0.08153  0.06023  Biso   1.000  C
  H693     1.0000 0.22987  0.09433  0.07163  Biso   1.000  H
  C916     1.0000 0.35807  0.13933  0.98453  Biso   1.000  C
  C917     1.0000 0.37727  0.08613  0.02803  Biso   1.000  C
  H694     1.0000 0.35097  0.05393  0.02103  Biso   1.000  H
  H695     1.0000 0.41357  0.09513  0.02423  Biso   1.000  H
  H696     1.0000 0.37267  0.07943  0.04193  Biso   1.000  H
  N305     1.0000 0.00953  0.09627  0.11153  Biso   1.000  N
  N306     1.0000 0.08393  0.26407  0.14757  Biso   1.000  N
  N307     1.0000 0.16073  0.41937  0.18689  Biso   1.000  N
  N308     1.0000 0.24753  0.57207  0.23111  Biso   1.000  N
  C918     1.0000 0.04553  0.13997  0.12136  Biso   1.000  C
  C919     1.0000 0.03923  0.18017  0.13010  Biso   1.000  C
  H697     1.0000 0.00603  0.17987  0.12987  Biso   1.000  H
  C920     1.0000 0.08573  0.22177  0.13935  Biso   1.000  C
  C921     1.0000 0.12663  0.30227  0.15522  Biso   1.000  C
  C922     1.0000 0.11913  0.34797  0.16384  Biso   1.000  C
  C923     1.0000 0.11833  0.38267  0.14658  Biso   1.000  C
  H698     1.0000 0.08853  0.35997  0.13787  Biso   1.000  H
  H699     1.0000 0.11353  0.41187  0.15147  Biso   1.000  H
  H700     1.0000 0.15223  0.39767  0.13947  Biso   1.000  H
  C924     1.0000 0.06813  0.32467  0.17588  Biso   1.000  C
  H701     1.0000 0.03733  0.30027  0.16797  Biso   1.000  H
  H702     1.0000 0.07123  0.30497  0.18687  Biso   1.000  H
  H703     1.0000 0.06293  0.35387  0.18057  Biso   1.000  H
  C925     1.0000 0.16663  0.38517  0.17616  Biso   1.000  C
  C926     1.0000 0.20123  0.45467  0.19820  Biso   1.000  C
  C927     1.0000 0.19663  0.49297  0.20881  Biso   1.000  C
  H704     1.0000 0.16403  0.49387  0.20897  Biso   1.000  H
  C928     1.0000 0.24023  0.52947  0.21912  Biso   1.000  C
  C929     1.0000 0.12293  0.54687  0.28337  Biso   1.000  C
  H705     1.0000 0.10163  0.53387  0.27207  Biso   1.000  H
  C930     1.0000 0.10233  0.52627  0.30087  Biso   1.000  C
  C931     1.0000 0.13533  0.54147  0.31857  Biso   1.000  C
  C932     1.0000 0.18903  0.57507  0.31807  Biso   1.000  C
  H706     1.0000 0.21153  0.57967  0.32877  Biso   1.000  H
  N309     1.0000 0.04653  0.49417  0.30147  Biso   1.000  N
  N310     1.0000 0.11153  0.52307  0.33577  Biso   1.000  N
  N311     1.0000 0.88943  0.40567  0.34107  Biso   1.000  N
  N312     1.0000 0.95433  0.44017  0.37367  Biso   1.000  N
  C933     1.0000 0.96293  0.43477  0.31847  Biso   1.000  C
  C934     1.0000 0.95663  0.37987  0.31147  Biso   1.000  C
  H707     1.0000 0.91843  0.35287  0.31077  Biso   1.000  H
  H708     1.0000 0.97273  0.38467  0.29867  Biso   1.000  H
  H709     1.0000 0.97473  0.36817  0.32057  Biso   1.000  H
  C935     1.0000 0.93713  0.45697  0.30507  Biso   1.000  C
  H710     1.0000 0.89803  0.43507  0.30607  Biso   1.000  H
  H711     1.0000 0.94853  0.49407  0.30877  Biso   1.000  H
  H712     1.0000 0.94823  0.45617  0.29177  Biso   1.000  H
  C936     1.0000 0.05373  0.48167  0.33527  Biso   1.000  C
  C937     1.0000 0.06183  0.50627  0.37157  Biso   1.000  C
  H713     1.0000 0.05803  0.53777  0.36927  Biso   1.000  H
  H714     1.0000 0.04553  0.49007  0.38397  Biso   1.000  H
  H715     1.0000 0.09993  0.51707  0.37167  Biso   1.000  H
  C938     1.0000 0.03493  0.46737  0.35627  Biso   1.000  C
  C939     1.0000 0.82053  0.39197  0.39387  Biso   1.000  C
  C940     1.0000 0.78823  0.37107  0.37777  Biso   1.000  C
  C941     1.0000 0.81053  0.37387  0.35987  Biso   1.000  C
  H716     1.0000 0.78853  0.35977  0.34877  Biso   1.000  H
  C942     1.0000 0.86423  0.39687  0.35857  Biso   1.000  C
  C943     1.0000 0.89903  0.41817  0.37587  Biso   1.000  C
  C944     1.0000 0.97133  0.43767  0.35517  Biso   1.000  C
  C945     1.0000 0.94063  0.42747  0.33987  Biso   1.000  C
  C946     1.0000 0.87563  0.41487  0.39357  Biso   1.000  C
  H717     1.0000 0.89653  0.42767  0.40497  Biso   1.000  H
  C947     1.0000 0.02473  0.47267  0.31787  Biso   1.000  C
  C948     1.0000 0.04393  0.41947  0.36137  Biso   1.000  C
  H718     1.0000 0.01763  0.38727  0.35437  Biso   1.000  H
  H719     1.0000 0.08023  0.42847  0.35757  Biso   1.000  H
  H720     1.0000 0.03933  0.41277  0.37527  Biso   1.000  H
  N313     1.0000 0.57040  0.24660  0.44486  Biso   1.000  N
  N314     1.0000 0.40260  0.15320  0.48090  Biso   1.000  N
  N315     1.0000 0.24730  0.07470  0.52022  Biso   1.000  N
  N316     1.0000 0.09460  0.00880  0.56444  Biso   1.000  N
  C949     1.0000 0.52670  0.23890  0.45469  Biso   1.000  C
  C950     1.0000 0.48650  0.19240  0.46343  Biso   1.000  C
  H721     1.0000 0.48680  0.15950  0.46320  Biso   1.000  H
  C951     1.0000 0.44490  0.19730  0.47268  Biso   1.000  C
  C952     1.0000 0.36440  0.15770  0.48855  Biso   1.000  C
  C953     1.0000 0.31870  0.10450  0.49717  Biso   1.000  C
  C954     1.0000 0.28400  0.06900  0.47991  Biso   1.000  C
  H722     1.0000 0.30670  0.06190  0.47120  Biso   1.000  H
  H723     1.0000 0.25480  0.03500  0.48480  Biso   1.000  H
  H724     1.0000 0.26900  0.08790  0.47280  Biso   1.000  H
  C955     1.0000 0.34200  0.07680  0.50921  Biso   1.000  C
  H725     1.0000 0.36640  0.07040  0.50130  Biso   1.000  H
  H726     1.0000 0.36170  0.09960  0.52020  Biso   1.000  H
  H727     1.0000 0.31280  0.04240  0.51390  Biso   1.000  H
  C956     1.0000 0.28150  0.11480  0.50949  Biso   1.000  C
  C957     1.0000 0.21200  0.07990  0.53153  Biso   1.000  C
  C958     1.0000 0.17370  0.03700  0.54214  Biso   1.000  C
  H728     1.0000 0.17280  0.00350  0.54230  Biso   1.000  H
  C959     1.0000 0.13720  0.04410  0.55245  Biso   1.000  C
  C960     1.0000 0.11980  0.90940  0.61670  Biso   1.000  C
  H729     1.0000 0.13280  0.90110  0.60540  Biso   1.000  H
  C961     1.0000 0.14040  0.90940  0.63420  Biso   1.000  C
  C962     1.0000 0.12520  0.92720  0.65190  Biso   1.000  C
  C963     1.0000 0.09160  0.94730  0.65140  Biso   1.000  C
  H730     1.0000 0.08700  0.96520  0.66210  Biso   1.000  H
  N317     1.0000 0.17250  0.88570  0.63480  Biso   1.000  N
  N318     1.0000 0.14360  0.92180  0.66910  Biso   1.000  N
  N319     1.0000 0.26100  0.81710  0.67440  Biso   1.000  N
  N320     1.0000 0.22650  0.84750  0.70700  Biso   1.000  N
  C964     1.0000 0.23190  0.86150  0.65180  Biso   1.000  C
  C965     1.0000 0.28680  0.91010  0.64480  Biso   1.000  C
  H731     1.0000 0.31380  0.89890  0.64410  Biso   1.000  H
  H732     1.0000 0.28200  0.92140  0.63200  Biso   1.000  H
  H733     1.0000 0.29850  0.93990  0.65390  Biso   1.000  H
  C966     1.0000 0.20970  0.81350  0.63840  Biso   1.000  C
  H734     1.0000 0.23160  0.79630  0.63940  Biso   1.000  H
  H735     1.0000 0.17260  0.78780  0.64210  Biso   1.000  H
  H736     1.0000 0.21050  0.82540  0.62510  Biso   1.000  H
  C967     1.0000 0.18500  0.90540  0.66860  Biso   1.000  C
  C968     1.0000 0.16040  0.88890  0.70490  Biso   1.000  C
  H737     1.0000 0.12890  0.85360  0.70260  Biso   1.000  H
  H738     1.0000 0.17660  0.88880  0.71730  Biso   1.000  H
  H739     1.0000 0.14960  0.91620  0.70500  Biso   1.000  H
  C969     1.0000 0.19930  0.90090  0.68960  Biso   1.000  C
  C970     1.0000 0.27470  0.76190  0.72720  Biso   1.000  C
  C971     1.0000 0.29560  0.75050  0.71110  Biso   1.000  C
  C972     1.0000 0.29280  0.77000  0.69320  Biso   1.000  C
  H740     1.0000 0.30690  0.76210  0.68210  Biso   1.000  H
  C973     1.0000 0.26980  0.80070  0.69190  Biso   1.000  C
  C974     1.0000 0.24850  0.81420  0.70920  Biso   1.000  C
  C975     1.0000 0.22900  0.86700  0.68850  Biso   1.000  C
  C976     1.0000 0.23920  0.84650  0.67320  Biso   1.000  C
  C977     1.0000 0.25180  0.79410  0.72690  Biso   1.000  C
  H741     1.0000 0.23900  0.80220  0.73830  Biso   1.000  H
  C978     1.0000 0.19400  0.88540  0.65120  Biso   1.000  C
  C979     1.0000 0.24720  0.95780  0.69470  Biso   1.000  C
  H742     1.0000 0.27940  0.96370  0.68770  Biso   1.000  H
  H743     1.0000 0.23820  0.98510  0.69090  Biso   1.000  H
  H744     1.0000 0.25390  0.95990  0.70860  Biso   1.000  H
  N321     1.0000 0.23707  0.57993  0.77819  Biso   1.000  N
  N322     1.0000 0.06927  0.48653  0.81423  Biso   1.000  N
  N323     1.0000 0.91397  0.40803  0.85355  Biso   1.000  N
  N324     1.0000 0.76127  0.34213  0.89777  Biso   1.000  N
  C980     1.0000 0.19337  0.57223  0.78802  Biso   1.000  C
  C981     1.0000 0.15317  0.52573  0.79676  Biso   1.000  C
  H745     1.0000 0.15347  0.49283  0.79653  Biso   1.000  H
  C982     1.0000 0.11157  0.53063  0.80601  Biso   1.000  C
  C983     1.0000 0.03107  0.49103  0.82188  Biso   1.000  C
  C984     1.0000 0.98537  0.43783  0.83050  Biso   1.000  C
  C985     1.0000 0.95067  0.40233  0.81324  Biso   1.000  C
  H746     1.0000 0.97337  0.39523  0.80453  Biso   1.000  H
  H747     1.0000 0.92147  0.36833  0.81813  Biso   1.000  H
  H748     1.0000 0.93567  0.42123  0.80613  Biso   1.000  H
  C986     1.0000 0.00867  0.41013  0.84254  Biso   1.000  C
  H749     1.0000 0.03307  0.40373  0.83463  Biso   1.000  H
  H750     1.0000 0.02837  0.43293  0.85353  Biso   1.000  H
  H751     1.0000 0.97947  0.37573  0.84723  Biso   1.000  H
  C987     1.0000 0.94817  0.44813  0.84282  Biso   1.000  C
  C988     1.0000 0.87867  0.41323  0.86486  Biso   1.000  C
  C989     1.0000 0.84037  0.37033  0.87547  Biso   1.000  C
  H752     1.0000 0.83947  0.33683  0.87563  Biso   1.000  H
  C990     1.0000 0.80387  0.37743  0.88578  Biso   1.000  C
  C991     1.0000 0.78647  0.24273  0.95003  Biso   1.000  C
  H753     1.0000 0.79947  0.23443  0.93873  Biso   1.000  H
  C992     1.0000 0.80707  0.24273  0.96753  Biso   1.000  C
  C993     1.0000 0.79187  0.26053  0.98523  Biso   1.000  C
  C994     1.0000 0.75827  0.28063  0.98473  Biso   1.000  C
  H754     1.0000 0.75367  0.29853  0.99543  Biso   1.000  H
  N325     1.0000 0.83917  0.21903  0.96813  Biso   1.000  N
  N326     1.0000 0.81027  0.25513  0.00243  Biso   1.000  N
  N327     1.0000 0.92767  0.15043  0.00773  Biso   1.000  N
  N328     1.0000 0.89317  0.18083  0.04033  Biso   1.000  N
  C995     1.0000 0.89857  0.19483  0.98513  Biso   1.000  C
  C996     1.0000 0.95347  0.24343  0.97813  Biso   1.000  C
  H755     1.0000 0.98047  0.23223  0.97743  Biso   1.000  H
  H756     1.0000 0.94867  0.25473  0.96533  Biso   1.000  H
  H757     1.0000 0.96517  0.27323  0.98723  Biso   1.000  H
  C997     1.0000 0.87637  0.14683  0.97173  Biso   1.000  C
  H758     1.0000 0.89827  0.12963  0.97273  Biso   1.000  H
  H759     1.0000 0.83927  0.12113  0.97543  Biso   1.000  H
  H760     1.0000 0.87717  0.15873  0.95843  Biso   1.000  H
  C998     1.0000 0.85167  0.23873  0.00193  Biso   1.000  C
  C999     1.0000 0.82707  0.22223  0.03823  Biso   1.000  C
  H761     1.0000 0.79557  0.18693  0.03593  Biso   1.000  H
  H762     1.0000 0.84327  0.22213  0.05063  Biso   1.000  H
  H763     1.0000 0.81627  0.24953  0.03833  Biso   1.000  H
  C1000    1.0000 0.86597  0.23423  0.02293  Biso   1.000  C
  C1001    1.0000 0.94137  0.09523  0.06053  Biso   1.000  C
  C1002    1.0000 0.96227  0.08383  0.04443  Biso   1.000  C
  C1003    1.0000 0.95947  0.10333  0.02653  Biso   1.000  C
  H764     1.0000 0.97357  0.09543  0.01543  Biso   1.000  H
  C1004    1.0000 0.93647  0.13403  0.02523  Biso   1.000  C
  C1005    1.0000 0.91517  0.14753  0.04253  Biso   1.000  C
  C1006    1.0000 0.89567  0.20033  0.02183  Biso   1.000  C
  C1007    1.0000 0.90587  0.17983  0.00653  Biso   1.000  C
  C1008    1.0000 0.91847  0.12743  0.06023  Biso   1.000  C
  H765     1.0000 0.90567  0.13553  0.07163  Biso   1.000  H
  C1009    1.0000 0.86067  0.21873  0.98453  Biso   1.000  C
  C1010    1.0000 0.91387  0.29113  0.02803  Biso   1.000  C
  H766     1.0000 0.94607  0.29703  0.02103  Biso   1.000  H
  H767     1.0000 0.90487  0.31843  0.02423  Biso   1.000  H
  H768     1.0000 0.92057  0.29323  0.04193  Biso   1.000  H
  N329     1.0000 0.90373  0.91327  0.11153  Biso   1.000  N
  N330     1.0000 0.73593  0.81987  0.14757  Biso   1.000  N
  N331     1.0000 0.58063  0.74137  0.18689  Biso   1.000  N
  N332     1.0000 0.42793  0.67547  0.23111  Biso   1.000  N
  C1011    1.0000 0.86003  0.90557  0.12136  Biso   1.000  C
  C1012    1.0000 0.81983  0.85907  0.13010  Biso   1.000  C
  H769     1.0000 0.82013  0.82617  0.12987  Biso   1.000  H
  C1013    1.0000 0.77823  0.86397  0.13935  Biso   1.000  C
  C1014    1.0000 0.69773  0.82437  0.15522  Biso   1.000  C
  C1015    1.0000 0.65203  0.77117  0.16384  Biso   1.000  C
  C1016    1.0000 0.61733  0.73567  0.14658  Biso   1.000  C
  H770     1.0000 0.64003  0.72857  0.13787  Biso   1.000  H
  H771     1.0000 0.58813  0.70167  0.15147  Biso   1.000  H
  H772     1.0000 0.60233  0.75457  0.13947  Biso   1.000  H
  C1017    1.0000 0.67533  0.74347  0.17588  Biso   1.000  C
  H773     1.0000 0.69973  0.73707  0.16797  Biso   1.000  H
  H774     1.0000 0.69503  0.76627  0.18687  Biso   1.000  H
  H775     1.0000 0.64613  0.70907  0.18057  Biso   1.000  H
  C1018    1.0000 0.61483  0.78147  0.17616  Biso   1.000  C
  C1019    1.0000 0.54533  0.74657  0.19820  Biso   1.000  C
  C1020    1.0000 0.50703  0.70367  0.20881  Biso   1.000  C
  H776     1.0000 0.50613  0.67017  0.20897  Biso   1.000  H
  C1021    1.0000 0.47053  0.71077  0.21912  Biso   1.000  C
  C1022    1.0000 0.45313  0.57607  0.28337  Biso   1.000  C
  H777     1.0000 0.46613  0.56777  0.27207  Biso   1.000  H
  C1023    1.0000 0.47373  0.57607  0.30087  Biso   1.000  C
  C1024    1.0000 0.45853  0.59387  0.31857  Biso   1.000  C
  C1025    1.0000 0.42493  0.61397  0.31807  Biso   1.000  C
  H778     1.0000 0.42033  0.63187  0.32877  Biso   1.000  H
  N333     1.0000 0.50583  0.55237  0.30147  Biso   1.000  N
  N334     1.0000 0.47693  0.58847  0.33577  Biso   1.000  N
  N335     1.0000 0.59433  0.48377  0.34107  Biso   1.000  N
  N336     1.0000 0.55983  0.51417  0.37367  Biso   1.000  N
  C1026    1.0000 0.56523  0.52817  0.31847  Biso   1.000  C
  C1027    1.0000 0.62013  0.57677  0.31147  Biso   1.000  C
  H779     1.0000 0.64713  0.56557  0.31077  Biso   1.000  H
  H780     1.0000 0.61533  0.58807  0.29867  Biso   1.000  H
  H781     1.0000 0.63183  0.60657  0.32057  Biso   1.000  H
  C1028    1.0000 0.54303  0.48017  0.30507  Biso   1.000  C
  H782     1.0000 0.56493  0.46297  0.30607  Biso   1.000  H
  H783     1.0000 0.50593  0.45447  0.30877  Biso   1.000  H
  H784     1.0000 0.54383  0.49207  0.29177  Biso   1.000  H
  C1029    1.0000 0.51833  0.57207  0.33527  Biso   1.000  C
  C1030    1.0000 0.49373  0.55557  0.37157  Biso   1.000  C
  H785     1.0000 0.46223  0.52027  0.36927  Biso   1.000  H
  H786     1.0000 0.50993  0.55547  0.38397  Biso   1.000  H
  H787     1.0000 0.48293  0.58287  0.37167  Biso   1.000  H
  C1031    1.0000 0.53263  0.56757  0.35627  Biso   1.000  C
  C1032    1.0000 0.60803  0.42857  0.39387  Biso   1.000  C
  C1033    1.0000 0.62893  0.41717  0.37777  Biso   1.000  C
  C1034    1.0000 0.62613  0.43667  0.35987  Biso   1.000  C
  H788     1.0000 0.64023  0.42877  0.34877  Biso   1.000  H
  C1035    1.0000 0.60313  0.46737  0.35857  Biso   1.000  C
  C1036    1.0000 0.58183  0.48087  0.37587  Biso   1.000  C
  C1037    1.0000 0.56233  0.53367  0.35517  Biso   1.000  C
  C1038    1.0000 0.57253  0.51317  0.33987  Biso   1.000  C
  C1039    1.0000 0.58513  0.46077  0.39357  Biso   1.000  C
  H789     1.0000 0.57233  0.46887  0.40497  Biso   1.000  H
  C1040    1.0000 0.52733  0.55207  0.31787  Biso   1.000  C
  C1041    1.0000 0.58053  0.62447  0.36137  Biso   1.000  C
  H790     1.0000 0.61273  0.63037  0.35437  Biso   1.000  H
  H791     1.0000 0.57153  0.65177  0.35757  Biso   1.000  H
  H792     1.0000 0.58723  0.62657  0.37527  Biso   1.000  H
  N337     1.0000 0.75340  0.32380  0.44486  Biso   1.000  N
  N338     1.0000 0.84680  0.24940  0.48090  Biso   1.000  N
  N339     1.0000 0.92530  0.17260  0.52022  Biso   1.000  N
  N340     1.0000 0.99120  0.08580  0.56444  Biso   1.000  N
  C1042    1.0000 0.76110  0.28780  0.45469  Biso   1.000  C
  C1043    1.0000 0.80760  0.29410  0.46343  Biso   1.000  C
  H793     1.0000 0.84050  0.32730  0.46320  Biso   1.000  H
  C1044    1.0000 0.80270  0.24760  0.47268  Biso   1.000  C
  C1045    1.0000 0.84230  0.20670  0.48855  Biso   1.000  C
  C1046    1.0000 0.89550  0.21420  0.49717  Biso   1.000  C
  C1047    1.0000 0.93100  0.21500  0.47991  Biso   1.000  C
  H794     1.0000 0.93810  0.24480  0.47120  Biso   1.000  H
  H795     1.0000 0.96500  0.21980  0.48480  Biso   1.000  H
  H796     1.0000 0.91210  0.18110  0.47280  Biso   1.000  H
  C1048    1.0000 0.92320  0.26520  0.50921  Biso   1.000  C
  H797     1.0000 0.92960  0.29600  0.50130  Biso   1.000  H
  H798     1.0000 0.90040  0.26210  0.52020  Biso   1.000  H
  H799     1.0000 0.95760  0.27040  0.51390  Biso   1.000  H
  C1049    1.0000 0.88520  0.16670  0.50949  Biso   1.000  C
  C1050    1.0000 0.92010  0.13210  0.53153  Biso   1.000  C
  C1051    1.0000 0.96300  0.13670  0.54214  Biso   1.000  C
  H800     1.0000 0.99650  0.16930  0.54230  Biso   1.000  H
  C1052    1.0000 0.95590  0.09310  0.55245  Biso   1.000  C
  C1053    1.0000 0.09060  0.21040  0.61670  Biso   1.000  C
  H801     1.0000 0.09890  0.23170  0.60540  Biso   1.000  H
  C1054    1.0000 0.09060  0.23100  0.63420  Biso   1.000  C
  C1055    1.0000 0.07280  0.19800  0.65190  Biso   1.000  C
  C1056    1.0000 0.05270  0.14430  0.65140  Biso   1.000  C
  H802     1.0000 0.03480  0.12180  0.66210  Biso   1.000  H
  N341     1.0000 0.11430  0.28680  0.63480  Biso   1.000  N
  N342     1.0000 0.07820  0.22180  0.66910  Biso   1.000  N
  N343     1.0000 0.18290  0.44390  0.67440  Biso   1.000  N
  N344     1.0000 0.15250  0.37900  0.70700  Biso   1.000  N
  C1057    1.0000 0.13850  0.37040  0.65180  Biso   1.000  C
  C1058    1.0000 0.08990  0.37670  0.64480  Biso   1.000  C
  H803     1.0000 0.10110  0.41490  0.64410  Biso   1.000  H
  H804     1.0000 0.07860  0.36060  0.63200  Biso   1.000  H
  H805     1.0000 0.06010  0.35860  0.65390  Biso   1.000  H
  C1059    1.0000 0.18650  0.39620  0.63840  Biso   1.000  C
  H806     1.0000 0.20370  0.43530  0.63940  Biso   1.000  H
  H807     1.0000 0.21220  0.38480  0.64210  Biso   1.000  H
  H808     1.0000 0.17460  0.38510  0.62510  Biso   1.000  H
  C1060    1.0000 0.09460  0.27960  0.66860  Biso   1.000  C
  C1061    1.0000 0.11110  0.27150  0.70490  Biso   1.000  C
  H809     1.0000 0.14640  0.27530  0.70260  Biso   1.000  H
  H810     1.0000 0.11120  0.28780  0.71730  Biso   1.000  H
  H811     1.0000 0.08380  0.23340  0.70500  Biso   1.000  H
  C1062    1.0000 0.09910  0.29840  0.68960  Biso   1.000  C
  C1063    1.0000 0.23810  0.51280  0.72720  Biso   1.000  C
  C1064    1.0000 0.24950  0.54510  0.71110  Biso   1.000  C
  C1065    1.0000 0.23000  0.52280  0.69320  Biso   1.000  C
  H812     1.0000 0.23790  0.54480  0.68210  Biso   1.000  H
  C1066    1.0000 0.19930  0.46910  0.69190  Biso   1.000  C
  C1067    1.0000 0.18580  0.43430  0.70920  Biso   1.000  C
  C1068    1.0000 0.13300  0.36200  0.68850  Biso   1.000  C
  C1069    1.0000 0.15350  0.39270  0.67320  Biso   1.000  C
  C1070    1.0000 0.20590  0.45770  0.72690  Biso   1.000  C
  H813     1.0000 0.19780  0.43680  0.73830  Biso   1.000  H
  C1071    1.0000 0.11460  0.30860  0.65120  Biso   1.000  C
  C1072    1.0000 0.04220  0.28940  0.69470  Biso   1.000  C
  H814     1.0000 0.03630  0.31570  0.68770  Biso   1.000  H
  H815     1.0000 0.01490  0.25310  0.69090  Biso   1.000  H
  H816     1.0000 0.04010  0.29400  0.70860  Biso   1.000  H
  N345     1.0000 0.42007  0.65713  0.77819  Biso   1.000  N
  N346     1.0000 0.51347  0.58273  0.81423  Biso   1.000  N
  N347     1.0000 0.59197  0.50593  0.85355  Biso   1.000  N
  N348     1.0000 0.65787  0.41913  0.89777  Biso   1.000  N
  C1073    1.0000 0.42777  0.62113  0.78802  Biso   1.000  C
  C1074    1.0000 0.47427  0.62743  0.79676  Biso   1.000  C
  H817     1.0000 0.50717  0.66063  0.79653  Biso   1.000  H
  C1075    1.0000 0.46937  0.58093  0.80601  Biso   1.000  C
  C1076    1.0000 0.50897  0.54003  0.82188  Biso   1.000  C
  C1077    1.0000 0.56217  0.54753  0.83050  Biso   1.000  C
  C1078    1.0000 0.59767  0.54833  0.81324  Biso   1.000  C
  H818     1.0000 0.60477  0.57813  0.80453  Biso   1.000  H
  H819     1.0000 0.63167  0.55313  0.81813  Biso   1.000  H
  H820     1.0000 0.57877  0.51443  0.80613  Biso   1.000  H
  C1079    1.0000 0.58987  0.59853  0.84254  Biso   1.000  C
  H821     1.0000 0.59627  0.62933  0.83463  Biso   1.000  H
  H822     1.0000 0.56707  0.59543  0.85353  Biso   1.000  H
  H823     1.0000 0.62427  0.60373  0.84723  Biso   1.000  H
  C1080    1.0000 0.55187  0.50003  0.84282  Biso   1.000  C
  C1081    1.0000 0.58677  0.46543  0.86486  Biso   1.000  C
  C1082    1.0000 0.62967  0.47003  0.87547  Biso   1.000  C
  H824     1.0000 0.66317  0.50263  0.87563  Biso   1.000  H
  C1083    1.0000 0.62257  0.42643  0.88578  Biso   1.000  C
  C1084    1.0000 0.75727  0.54373  0.95003  Biso   1.000  C
  H825     1.0000 0.76557  0.56503  0.93873  Biso   1.000  H
  C1085    1.0000 0.75727  0.56433  0.96753  Biso   1.000  C
  C1086    1.0000 0.73947  0.53133  0.98523  Biso   1.000  C
  C1087    1.0000 0.71937  0.47763  0.98473  Biso   1.000  C
  H826     1.0000 0.70147  0.45513  0.99543  Biso   1.000  H
  N349     1.0000 0.78097  0.62013  0.96813  Biso   1.000  N
  N350     1.0000 0.74487  0.55513  0.00243  Biso   1.000  N
  N351     1.0000 0.84957  0.77723  0.00773  Biso   1.000  N
  N352     1.0000 0.81917  0.71233  0.04033  Biso   1.000  N
  C1088    1.0000 0.80517  0.70373  0.98513  Biso   1.000  C
  C1089    1.0000 0.75657  0.71003  0.97813  Biso   1.000  C
  H827     1.0000 0.76777  0.74823  0.97743  Biso   1.000  H
  H828     1.0000 0.74527  0.69393  0.96533  Biso   1.000  H
  H829     1.0000 0.72677  0.69193  0.98723  Biso   1.000  H
  C1090    1.0000 0.85317  0.72953  0.97173  Biso   1.000  C
  H830     1.0000 0.87037  0.76863  0.97273  Biso   1.000  H
  H831     1.0000 0.87887  0.71813  0.97543  Biso   1.000  H
  H832     1.0000 0.84127  0.71843  0.95843  Biso   1.000  H
  C1091    1.0000 0.76127  0.61293  0.00193  Biso   1.000  C
  C1092    1.0000 0.77777  0.60483  0.03823  Biso   1.000  C
  H833     1.0000 0.81307  0.60863  0.03593  Biso   1.000  H
  H834     1.0000 0.77787  0.62113  0.05063  Biso   1.000  H
  H835     1.0000 0.75047  0.56673  0.03833  Biso   1.000  H
  C1093    1.0000 0.76577  0.63173  0.02293  Biso   1.000  C
  C1094    1.0000 0.90477  0.84613  0.06053  Biso   1.000  C
  C1095    1.0000 0.91617  0.87843  0.04443  Biso   1.000  C
  C1096    1.0000 0.89667  0.85613  0.02653  Biso   1.000  C
  H836     1.0000 0.90457  0.87813  0.01543  Biso   1.000  H
  C1097    1.0000 0.86597  0.80243  0.02523  Biso   1.000  C
  C1098    1.0000 0.85247  0.76763  0.04253  Biso   1.000  C
  C1099    1.0000 0.79967  0.69533  0.02183  Biso   1.000  C
  C1100    1.0000 0.82017  0.72603  0.00653  Biso   1.000  C
  C1101    1.0000 0.87257  0.79103  0.06023  Biso   1.000  C
  H837     1.0000 0.86447  0.77013  0.07163  Biso   1.000  H
  C1102    1.0000 0.78127  0.64193  0.98453  Biso   1.000  C
  C1103    1.0000 0.70887  0.62273  0.02803  Biso   1.000  C
  H838     1.0000 0.70297  0.64903  0.02103  Biso   1.000  H
  H839     1.0000 0.68157  0.58643  0.02423  Biso   1.000  H
  H840     1.0000 0.70677  0.62733  0.04193  Biso   1.000  H
  N353     1.0000 0.08673  0.99047  0.11153  Biso   1.000  N
  N354     1.0000 0.18013  0.91607  0.14757  Biso   1.000  N
  N355     1.0000 0.25863  0.83927  0.18689  Biso   1.000  N
  N356     1.0000 0.32453  0.75247  0.23111  Biso   1.000  N
  C1104    1.0000 0.09443  0.95447  0.12136  Biso   1.000  C
  C1105    1.0000 0.14093  0.96077  0.13010  Biso   1.000  C
  H841     1.0000 0.17383  0.99397  0.12987  Biso   1.000  H
  C1106    1.0000 0.13603  0.91427  0.13935  Biso   1.000  C
  C1107    1.0000 0.17563  0.87337  0.15522  Biso   1.000  C
  C1108    1.0000 0.22883  0.88087  0.16384  Biso   1.000  C
  C1109    1.0000 0.26433  0.88167  0.14658  Biso   1.000  C
  H842     1.0000 0.27143  0.91147  0.13787  Biso   1.000  H
  H843     1.0000 0.29833  0.88647  0.15147  Biso   1.000  H
  H844     1.0000 0.24543  0.84777  0.13947  Biso   1.000  H
  C1110    1.0000 0.25653  0.93187  0.17588  Biso   1.000  C
  H845     1.0000 0.26293  0.96267  0.16797  Biso   1.000  H
  H846     1.0000 0.23373  0.92877  0.18687  Biso   1.000  H
  H847     1.0000 0.29093  0.93707  0.18057  Biso   1.000  H
  C1111    1.0000 0.21853  0.83337  0.17616  Biso   1.000  C
  C1112    1.0000 0.25343  0.79877  0.19820  Biso   1.000  C
  C1113    1.0000 0.29633  0.80337  0.20881  Biso   1.000  C
  H848     1.0000 0.32983  0.83597  0.20897  Biso   1.000  H
  C1114    1.0000 0.28923  0.75977  0.21912  Biso   1.000  C
  C1115    1.0000 0.42393  0.87707  0.28337  Biso   1.000  C
  H849     1.0000 0.43223  0.89837  0.27207  Biso   1.000  H
  C1116    1.0000 0.42393  0.89767  0.30087  Biso   1.000  C
  C1117    1.0000 0.40613  0.86467  0.31857  Biso   1.000  C
  C1118    1.0000 0.38603  0.81097  0.31807  Biso   1.000  C
  H850     1.0000 0.36813  0.78847  0.32877  Biso   1.000  H
  N357     1.0000 0.44763  0.95347  0.30147  Biso   1.000  N
  N358     1.0000 0.41153  0.88847  0.33577  Biso   1.000  N
  N359     1.0000 0.51623  0.11057  0.34107  Biso   1.000  N
  N360     1.0000 0.48583  0.04567  0.37367  Biso   1.000  N
  C1119    1.0000 0.47183  0.03707  0.31847  Biso   1.000  C
  C1120    1.0000 0.42323  0.04337  0.31147  Biso   1.000  C
  H851     1.0000 0.43443  0.08157  0.31077  Biso   1.000  H
  H852     1.0000 0.41193  0.02727  0.29867  Biso   1.000  H
  H853     1.0000 0.39343  0.02527  0.32057  Biso   1.000  H
  C1121    1.0000 0.51983  0.06287  0.30507  Biso   1.000  C
  H854     1.0000 0.53703  0.10197  0.30607  Biso   1.000  H
  H855     1.0000 0.54553  0.05147  0.30877  Biso   1.000  H
  H856     1.0000 0.50793  0.05177  0.29177  Biso   1.000  H
  C1122    1.0000 0.42793  0.94627  0.33527  Biso   1.000  C
  C1123    1.0000 0.44443  0.93817  0.37157  Biso   1.000  C
  H857     1.0000 0.47973  0.94197  0.36927  Biso   1.000  H
  H858     1.0000 0.44453  0.95447  0.38397  Biso   1.000  H
  H859     1.0000 0.41713  0.90007  0.37167  Biso   1.000  H
  C1124    1.0000 0.43243  0.96507  0.35627  Biso   1.000  C
  C1125    1.0000 0.57143  0.17947  0.39387  Biso   1.000  C
  C1126    1.0000 0.58283  0.21177  0.37777  Biso   1.000  C
  C1127    1.0000 0.56333  0.18947  0.35987  Biso   1.000  C
  H860     1.0000 0.57123  0.21147  0.34877  Biso   1.000  H
  C1128    1.0000 0.53263  0.13577  0.35857  Biso   1.000  C
  C1129    1.0000 0.51913  0.10097  0.37587  Biso   1.000  C
  C1130    1.0000 0.46633  0.02867  0.35517  Biso   1.000  C
  C1131    1.0000 0.48683  0.05937  0.33987  Biso   1.000  C
  C1132    1.0000 0.53923  0.12437  0.39357  Biso   1.000  C
  H861     1.0000 0.53113  0.10347  0.40497  Biso   1.000  H
  C1133    1.0000 0.44793  0.97527  0.31787  Biso   1.000  C
  C1134    1.0000 0.37553  0.95607  0.36137  Biso   1.000  C
  H862     1.0000 0.36963  0.98237  0.35437  Biso   1.000  H
  H863     1.0000 0.34823  0.91977  0.35757  Biso   1.000  H
  H864     1.0000 0.37343  0.96067  0.37527  Biso   1.000  H
  Zn31     1.0000 0.66667  0.33333  0.41979  Biso   1.000  Zn
  Zn32     1.0000 0.33333  0.66667  0.75312  Biso   1.000  Zn
  Zn33     1.0000 0.00000  0.00000  0.08646  Biso   1.000  Zn
  Zn34     1.0000 0.59791  0.40209  0.43779  Biso   1.000  Zn
  Cl22     1.0000 0.55857  0.44143  0.44741  Biso   1.000  Cl
  Zn35     1.0000 0.26458  0.73542  0.77112  Biso   1.000  Zn
  Cl23     1.0000 0.22524  0.77476  0.78074  Biso   1.000  Cl
  Zn36     1.0000 0.93124  0.06876  0.10446  Biso   1.000  Zn
  Cl24     1.0000 0.89190  0.10810  0.11408  Biso   1.000  Cl
  Zn37     1.0000 0.80418  0.40209  0.43779  Biso   1.000  Zn
  Cl25     1.0000 0.88286  0.44143  0.44741  Biso   1.000  Cl
  Zn38     1.0000 0.47085  0.73542  0.77112  Biso   1.000  Zn
  Cl26     1.0000 0.54953  0.77476  0.78074  Biso   1.000  Cl
  Zn39     1.0000 0.13751  0.06876  0.10446  Biso   1.000  Zn
  Cl27     1.0000 0.21619  0.10810  0.11408  Biso   1.000  Cl
  Zn40     1.0000 0.59791  0.19582  0.43779  Biso   1.000  Zn
  Cl28     1.0000 0.55857  0.11714  0.44741  Biso   1.000  Cl
  Zn41     1.0000 0.26458  0.52915  0.77112  Biso   1.000  Zn
  Cl29     1.0000 0.22524  0.45047  0.78074  Biso   1.000  Cl
  Zn42     1.0000 0.93124  0.86249  0.10446  Biso   1.000  Zn
  Cl30     1.0000 0.89190  0.78381  0.11408  Biso   1.000  Cl
  Zn43     1.0000 0.06791  0.13582  0.57208  Biso   1.000  Zn
  Cl31     1.0000 0.10767  0.21534  0.56114  Biso   1.000  Cl
  N361     1.0000 0.27196  0.54391  0.74248  Biso   1.000  N
  N362     1.0000 0.29775  0.59550  0.73556  Biso   1.000  N
  N363     1.0000 0.29845  0.59690  0.71700  Biso   1.000  N
  N364     1.0000 0.05885  0.11770  0.60080  Biso   1.000  N
  N365     1.0000 0.03505  0.07010  0.60769  Biso   1.000  N
  N366     1.0000 0.03520  0.07040  0.62649  Biso   1.000  N
  C1135    1.0000 0.06100  0.12200  0.63230  Biso   1.000  C
  C1136    1.0000 0.07765  0.15530  0.61560  Biso   1.000  C
  Zn44     1.0000 0.73458  0.46915  0.90541  Biso   1.000  Zn
  Cl32     1.0000 0.77434  0.54867  0.89447  Biso   1.000  Cl
  N367     1.0000 0.93862  0.87724  0.07581  Biso   1.000  N
  N368     1.0000 0.96442  0.92883  0.06889  Biso   1.000  N
  N369     1.0000 0.96512  0.93023  0.05033  Biso   1.000  N
  N370     1.0000 0.72552  0.45103  0.93413  Biso   1.000  N
  N371     1.0000 0.70172  0.40343  0.94102  Biso   1.000  N
  N372     1.0000 0.70187  0.40373  0.95982  Biso   1.000  N
  C1137    1.0000 0.72767  0.45533  0.96563  Biso   1.000  C
  C1138    1.0000 0.74432  0.48863  0.94893  Biso   1.000  C
  Zn45     1.0000 0.40124  0.80249  0.23875  Biso   1.000  Zn
  Cl33     1.0000 0.44100  0.88201  0.22781  Biso   1.000  Cl
  N373     1.0000 0.60529  0.21058  0.40915  Biso   1.000  N
  N374     1.0000 0.63108  0.26217  0.40223  Biso   1.000  N
  N375     1.0000 0.63178  0.26357  0.38367  Biso   1.000  N
  N376     1.0000 0.39218  0.78437  0.26747  Biso   1.000  N
  N377     1.0000 0.36838  0.73677  0.27436  Biso   1.000  N
  N378     1.0000 0.36853  0.73707  0.29316  Biso   1.000  N
  C1139    1.0000 0.39433  0.78867  0.29897  Biso   1.000  C
  C1140    1.0000 0.41098  0.82197  0.28227  Biso   1.000  C
  Zn46     1.0000 0.06791  0.93209  0.57208  Biso   1.000  Zn
  Cl34     1.0000 0.10767  0.89233  0.56114  Biso   1.000  Cl
  N379     1.0000 0.27196  0.72804  0.74248  Biso   1.000  N
  N380     1.0000 0.29775  0.70225  0.73556  Biso   1.000  N
  N381     1.0000 0.29845  0.70155  0.71700  Biso   1.000  N
  N382     1.0000 0.05885  0.94115  0.60080  Biso   1.000  N
  N383     1.0000 0.03505  0.96495  0.60769  Biso   1.000  N
  N384     1.0000 0.03520  0.96480  0.62649  Biso   1.000  N
  C1141    1.0000 0.06100  0.93900  0.63230  Biso   1.000  C
  C1142    1.0000 0.07765  0.92235  0.61560  Biso   1.000  C
  Zn47     1.0000 0.73458  0.26542  0.90541  Biso   1.000  Zn
  Cl35     1.0000 0.77434  0.22566  0.89447  Biso   1.000  Cl
  N385     1.0000 0.93862  0.06138  0.07581  Biso   1.000  N
  N386     1.0000 0.96442  0.03558  0.06889  Biso   1.000  N
  N387     1.0000 0.96512  0.03488  0.05033  Biso   1.000  N
  N388     1.0000 0.72552  0.27448  0.93413  Biso   1.000  N
  N389     1.0000 0.70172  0.29828  0.94102  Biso   1.000  N
  N390     1.0000 0.70187  0.29813  0.95982  Biso   1.000  N
  C1143    1.0000 0.72767  0.27233  0.96563  Biso   1.000  C
  C1144    1.0000 0.74432  0.25568  0.94893  Biso   1.000  C
  Zn48     1.0000 0.40124  0.59876  0.23875  Biso   1.000  Zn
  Cl36     1.0000 0.44100  0.55900  0.22781  Biso   1.000  Cl
  N391     1.0000 0.60529  0.39471  0.40915  Biso   1.000  N
  N392     1.0000 0.63108  0.36892  0.40223  Biso   1.000  N
  N393     1.0000 0.63178  0.36822  0.38367  Biso   1.000  N
  N394     1.0000 0.39218  0.60782  0.26747  Biso   1.000  N
  N395     1.0000 0.36838  0.63162  0.27436  Biso   1.000  N
  N396     1.0000 0.36853  0.63147  0.29316  Biso   1.000  N
  C1145    1.0000 0.39433  0.60567  0.29897  Biso   1.000  C
  C1146    1.0000 0.41098  0.58902  0.28227  Biso   1.000  C
  Zn49     1.0000 0.86418  0.93209  0.57208  Biso   1.000  Zn
  Cl37     1.0000 0.78466  0.89233  0.56114  Biso   1.000  Cl
  N397     1.0000 0.45609  0.72804  0.74248  Biso   1.000  N
  N398     1.0000 0.40450  0.70225  0.73556  Biso   1.000  N
  N399     1.0000 0.40310  0.70155  0.71700  Biso   1.000  N
  N400     1.0000 0.88230  0.94115  0.60080  Biso   1.000  N
  N401     1.0000 0.92990  0.96495  0.60769  Biso   1.000  N
  N402     1.0000 0.92960  0.96480  0.62649  Biso   1.000  N
  C1147    1.0000 0.87800  0.93900  0.63230  Biso   1.000  C
  C1148    1.0000 0.84470  0.92235  0.61560  Biso   1.000  C
  Zn50     1.0000 0.53085  0.26542  0.90541  Biso   1.000  Zn
  Cl38     1.0000 0.45133  0.22566  0.89447  Biso   1.000  Cl
  N403     1.0000 0.12276  0.06138  0.07581  Biso   1.000  N
  N404     1.0000 0.07117  0.03558  0.06889  Biso   1.000  N
  N405     1.0000 0.06977  0.03488  0.05033  Biso   1.000  N
  N406     1.0000 0.54897  0.27448  0.93413  Biso   1.000  N
  N407     1.0000 0.59657  0.29828  0.94102  Biso   1.000  N
  N408     1.0000 0.59627  0.29813  0.95982  Biso   1.000  N
  C1149    1.0000 0.54467  0.27233  0.96563  Biso   1.000  C
  C1150    1.0000 0.51137  0.25568  0.94893  Biso   1.000  C
  Zn51     1.0000 0.19751  0.59876  0.23875  Biso   1.000  Zn
  Cl39     1.0000 0.11799  0.55900  0.22781  Biso   1.000  Cl
  N409     1.0000 0.78942  0.39471  0.40915  Biso   1.000  N
  N410     1.0000 0.73783  0.36892  0.40223  Biso   1.000  N
  N411     1.0000 0.73643  0.36822  0.38367  Biso   1.000  N
  N412     1.0000 0.21563  0.60782  0.26747  Biso   1.000  N
  N413     1.0000 0.26323  0.63162  0.27436  Biso   1.000  N
  N414     1.0000 0.26293  0.63147  0.29316  Biso   1.000  N
  C1151    1.0000 0.21133  0.60567  0.29897  Biso   1.000  C
  C1152    1.0000 0.17803  0.58902  0.28227  Biso   1.000  C
  Zn52     1.0000 0.00000  0.00000  0.58946  Biso   1.000  Zn
  Zn53     1.0000 0.00000  0.00000  0.64330  Biso   1.000  Zn
  Cl40     1.0000 0.00000  0.00000  0.67150  Biso   1.000  Cl
  Zn54     1.0000 0.66667  0.33333  0.92279  Biso   1.000  Zn
  Zn55     1.0000 0.66667  0.33333  0.97663  Biso   1.000  Zn
  Cl41     1.0000 0.66667  0.33333  0.00483  Biso   1.000  Cl
  Zn56     1.0000 0.33333  0.66667  0.25613  Biso   1.000  Zn
  Zn57     1.0000 0.33333  0.66667  0.30997  Biso   1.000  Zn
  Cl42     1.0000 0.33333  0.66667  0.33817  Biso   1.000  Cl
  N415     1.0000 0.59510  0.29755  0.43858  Biso   1.000  N
  N416     1.0000 0.07140  0.03570  0.57106  Biso   1.000  N
  N417     1.0000 0.26177  0.63088  0.77191  Biso   1.000  N
  N418     1.0000 0.73807  0.36903  0.90439  Biso   1.000  N
  N419     1.0000 0.92843  0.96422  0.10525  Biso   1.000  N
  N420     1.0000 0.40473  0.70237  0.23773  Biso   1.000  N
  N421     1.0000 0.70245  0.40490  0.43858  Biso   1.000  N
  N422     1.0000 0.96430  0.92860  0.57106  Biso   1.000  N
  N423     1.0000 0.36912  0.73823  0.77191  Biso   1.000  N
  N424     1.0000 0.63097  0.26193  0.90439  Biso   1.000  N
  N425     1.0000 0.03578  0.07157  0.10525  Biso   1.000  N
  N426     1.0000 0.29763  0.59527  0.23773  Biso   1.000  N
  N427     1.0000 0.70245  0.29755  0.43858  Biso   1.000  N
  N428     1.0000 0.96430  0.03570  0.57106  Biso   1.000  N
  N429     1.0000 0.36912  0.63088  0.77191  Biso   1.000  N
  N430     1.0000 0.63097  0.36903  0.90439  Biso   1.000  N
  N431     1.0000 0.03578  0.96422  0.10525  Biso   1.000  N
  N432     1.0000 0.29763  0.70237  0.23773  Biso   1.000  N
  Zn58     1.0000 0.33333  0.66667  0.69915  Biso   1.000  Zn
  Zn59     1.0000 0.00000  0.00000  0.03248  Biso   1.000  Zn
  Zn60     1.0000 0.66667  0.33333  0.36582  Biso   1.000  Zn
  O10      1.0000 0.96810  0.03190  0.66290  Biso   1.000  O
  O11      1.0000 0.63477  0.36523  0.99623  Biso   1.000  O
  O12      1.0000 0.30143  0.69857  0.32957  Biso   1.000  O
  O13      1.0000 0.06380  0.03190  0.66290  Biso   1.000  O
  O14      1.0000 0.73047  0.36523  0.99623  Biso   1.000  O
  O15      1.0000 0.39713  0.69857  0.32957  Biso   1.000  O
  O16      1.0000 0.96810  0.93620  0.66290  Biso   1.000  O
  O17      1.0000 0.63477  0.26953  0.99623  Biso   1.000  O
  O18      1.0000 0.30143  0.60287  0.32957  Biso   1.000  O
