data_image0
_cell_length_a       18.416
_cell_length_b       18.416
_cell_length_c       54.0709
_cell_angle_alpha    90
_cell_angle_beta     90
_cell_angle_gamma    120

_symmetry_space_group_name_H-M    "P 1"
_symmetry_int_tables_number       1

loop_
  _symmetry_equiv_pos_as_xyz
  'x, y, z'

loop_
  _atom_site_label
  _atom_site_occupancy
  _atom_site_fract_x
  _atom_site_fract_y
  _atom_site_fract_z
  _atom_site_thermal_displace_type
  _atom_site_B_iso_or_equiv
  _atom_site_type_symbol
  C1       1.0000 0.52587  0.39852  0.30292  Biso   1.000  C
  C2       1.0000 0.50062  0.37780  0.32930  Biso   1.000  C
  C3       1.0000 0.55964  0.44406  0.34431  Biso   1.000  C
  C4       1.0000 0.57322  0.42792  0.36856  Biso   1.000  C
  C5       1.0000 0.53098  0.34413  0.37756  Biso   1.000  C
  C6       1.0000 0.47296  0.27887  0.36289  Biso   1.000  C
  C7       1.0000 0.46005  0.29645  0.33807  Biso   1.000  C
  C8       1.0000 0.59065  0.33340  0.39317  Biso   1.000  C
  C9       1.0000 0.66762  0.41049  0.39373  Biso   1.000  C
  C10      1.0000 0.65654  0.47494  0.38088  Biso   1.000  C
  C11      1.0000 0.70340  0.56874  0.38584  Biso   1.000  C
  O1       1.0000 0.64930  0.64490  0.36333  Biso   1.000  O
  C12      1.0000 0.65320  0.61220  0.38179  Biso   1.000  C
  O2       1.0000 0.61190  0.60630  0.40206  Biso   1.000  O
  C13      1.0000 0.55880  0.64430  0.40186  Biso   1.000  C
  H1       1.0000 0.51360  0.61640  0.38970  Biso   1.000  H
  H2       1.0000 0.59180  0.70400  0.39770  Biso   1.000  H
  C14      1.0000 0.52440  0.63310  0.42701  Biso   1.000  C
  H3       1.0000 0.56950  0.66960  0.43840  Biso   1.000  H
  H4       1.0000 0.50350  0.57500  0.43220  Biso   1.000  H
  C15      1.0000 0.45370  0.65280  0.42900  Biso   1.000  C
  O3       1.0000 0.43530  0.67960  0.41089  Biso   1.000  O
  O4       1.0000 0.42010  0.64100  0.45000  Biso   1.000  O
  O5       1.0000 0.77430  0.56460  0.42310  Biso   1.000  O
  C16      1.0000 0.76210  0.60330  0.40771  Biso   1.000  C
  O6       1.0000 0.80700  0.68490  0.40520  Biso   1.000  O
  C17      1.0000 0.85890  0.73710  0.42570  Biso   1.000  C
  H5       1.0000 0.90980  0.78550  0.41920  Biso   1.000  H
  H6       1.0000 0.87550  0.70470  0.43620  Biso   1.000  H
  C18      1.0000 0.81080  0.76610  0.44020  Biso   1.000  C
  H7       1.0000 0.76500  0.71840  0.44890  Biso   1.000  H
  H8       1.0000 0.78610  0.79000  0.42910  Biso   1.000  H
  C19      1.0000 0.86900  0.83440  0.45970  Biso   1.000  C
  O7       1.0000 0.93760  0.84140  0.46440  Biso   1.000  O
  O8       1.0000 0.83800  0.87570  0.46900  Biso   1.000  O
  O9       1.0000 0.34690  0.58420  0.36850  Biso   1.000  O
  Zn1      1.0000 0.91122  0.88806  0.51049  Biso   1.000  Zn
  C20      1.0000 0.32150  0.51320  0.37490  Biso   1.000  C
  H9       1.0000 0.29040  0.49380  0.38960  Biso   1.000  H
  N1       1.0000 0.33660  0.46160  0.36150  Biso   1.000  N
  C21      1.0000 0.34240  0.47770  0.33520  Biso   1.000  C
  H10      1.0000 0.31950  0.42200  0.32770  Biso   1.000  H
  H11      1.0000 0.30040  0.49450  0.33210  Biso   1.000  H
  C22      1.0000 0.41140  0.53180  0.31910  Biso   1.000  C
  H12      1.0000 0.39130  0.52600  0.30220  Biso   1.000  H
  H13      1.0000 0.43480  0.58950  0.32440  Biso   1.000  H
  H14      1.0000 0.45430  0.51590  0.31990  Biso   1.000  H
  C23      1.0000 0.35590  0.40290  0.37500  Biso   1.000  C
  H15      1.0000 0.40590  0.40650  0.36730  Biso   1.000  H
  H16      1.0000 0.37110  0.42350  0.39190  Biso   1.000  H
  C24      1.0000 0.29250  0.31510  0.37620  Biso   1.000  C
  H17      1.0000 0.31400  0.28490  0.38550  Biso   1.000  H
  H18      1.0000 0.24300  0.30940  0.38440  Biso   1.000  H
  H19      1.0000 0.27800  0.29230  0.35960  Biso   1.000  H
  O10      1.0000 0.75100  0.56400  0.42610  Biso   1.000  O
  O11      1.0000 0.80200  0.68500  0.40600  Biso   1.000  O
  C25      1.0000 0.86100  0.73500  0.42550  Biso   1.000  C
  H20      1.0000 0.89990  0.79140  0.41940  Biso   1.000  H
  H21      1.0000 0.89440  0.70880  0.43050  Biso   1.000  H
  C26      1.0000 0.81400  0.73900  0.44670  Biso   1.000  C
  H22      1.0000 0.79710  0.68960  0.45730  Biso   1.000  H
  H23      1.0000 0.76270  0.73690  0.44070  Biso   1.000  H
  C27      1.0000 0.86600  0.82030  0.46220  Biso   1.000  C
  O12      1.0000 0.92130  0.88480  0.45260  Biso   1.000  O
  O13      1.0000 0.83800  0.81300  0.48360  Biso   1.000  O
  O14      1.0000 0.79600  0.57000  0.41730  Biso   1.000  O
  O15      1.0000 0.77990  0.67930  0.41300  Biso   1.000  O
  C28      1.0000 0.84000  0.71560  0.43360  Biso   1.000  C
  H24      1.0000 0.84200  0.67090  0.44280  Biso   1.000  H
  H25      1.0000 0.89610  0.75370  0.42710  Biso   1.000  H
  C29      1.0000 0.81400  0.76100  0.44990  Biso   1.000  C
  H26      1.0000 0.75920  0.72250  0.45720  Biso   1.000  H
  H27      1.0000 0.80800  0.80350  0.44040  Biso   1.000  H
  C30      1.0000 0.88090  0.80530  0.47090  Biso   1.000  C
  O16      1.0000 0.95520  0.83910  0.46620  Biso   1.000  O
  O17      1.0000 0.84390  0.79900  0.49090  Biso   1.000  O
  C31      1.0000 0.29860  0.52560  0.36050  Biso   1.000  C
  H28      1.0000 0.24320  0.50970  0.36480  Biso   1.000  H
  N2       1.0000 0.30720  0.47390  0.34540  Biso   1.000  N
  C32      1.0000 0.38980  0.48820  0.33920  Biso   1.000  C
  H29      1.0000 0.41670  0.49000  0.35500  Biso   1.000  H
  H30      1.0000 0.38040  0.43690  0.33080  Biso   1.000  H
  C33      1.0000 0.45340  0.55670  0.32470  Biso   1.000  C
  H31      1.0000 0.50260  0.55060  0.32340  Biso   1.000  H
  H32      1.0000 0.43170  0.55580  0.30830  Biso   1.000  H
  H33      1.0000 0.46840  0.60950  0.33270  Biso   1.000  H
  C34      1.0000 0.23610  0.40660  0.33180  Biso   1.000  C
  H34      1.0000 0.25100  0.40920  0.31430  Biso   1.000  H
  H35      1.0000 0.18750  0.41460  0.33300  Biso   1.000  H
  C35      1.0000 0.21400  0.32340  0.34190  Biso   1.000  C
  H36      1.0000 0.16720  0.28010  0.33270  Biso   1.000  H
  H37      1.0000 0.26190  0.31510  0.34050  Biso   1.000  H
  H38      1.0000 0.19860  0.32060  0.35920  Biso   1.000  H
  C36      1.0000 0.19254  0.73185  0.63625  Biso   1.000  C
  C37      1.0000 0.16729  0.71113  0.66263  Biso   1.000  C
  C38      1.0000 0.22631  0.77739  0.67764  Biso   1.000  C
  C39      1.0000 0.23989  0.76125  0.70189  Biso   1.000  C
  C40      1.0000 0.19765  0.67746  0.71089  Biso   1.000  C
  C41      1.0000 0.13963  0.61220  0.69622  Biso   1.000  C
  C42      1.0000 0.12672  0.62978  0.67140  Biso   1.000  C
  C43      1.0000 0.25732  0.66673  0.72650  Biso   1.000  C
  C44      1.0000 0.33429  0.74382  0.72706  Biso   1.000  C
  C45      1.0000 0.32321  0.80827  0.71421  Biso   1.000  C
  C46      1.0000 0.37007  0.90207  0.71917  Biso   1.000  C
  O18      1.0000 0.31597  0.97823  0.69666  Biso   1.000  O
  C47      1.0000 0.31987  0.94553  0.71512  Biso   1.000  C
  O19      1.0000 0.27857  0.93963  0.73539  Biso   1.000  O
  C48      1.0000 0.22547  0.97763  0.73519  Biso   1.000  C
  H39      1.0000 0.18027  0.94973  0.72303  Biso   1.000  H
  H40      1.0000 0.25847  0.03733  0.73103  Biso   1.000  H
  C49      1.0000 0.19107  0.96643  0.76034  Biso   1.000  C
  H41      1.0000 0.23617  0.00293  0.77173  Biso   1.000  H
  H42      1.0000 0.17017  0.90833  0.76553  Biso   1.000  H
  C50      1.0000 0.12037  0.98613  0.76233  Biso   1.000  C
  O20      1.0000 0.10197  0.01293  0.74422  Biso   1.000  O
  O21      1.0000 0.08677  0.97433  0.78333  Biso   1.000  O
  O22      1.0000 0.44097  0.89793  0.75643  Biso   1.000  O
  C51      1.0000 0.42877  0.93663  0.74104  Biso   1.000  C
  O23      1.0000 0.47367  0.01823  0.73853  Biso   1.000  O
  C52      1.0000 0.52557  0.07043  0.75903  Biso   1.000  C
  H43      1.0000 0.57647  0.11883  0.75253  Biso   1.000  H
  H44      1.0000 0.54217  0.03803  0.76953  Biso   1.000  H
  C53      1.0000 0.47747  0.09943  0.77353  Biso   1.000  C
  H45      1.0000 0.43167  0.05173  0.78223  Biso   1.000  H
  H46      1.0000 0.45277  0.12333  0.76243  Biso   1.000  H
  C54      1.0000 0.53567  0.16773  0.79303  Biso   1.000  C
  O24      1.0000 0.60427  0.17473  0.79773  Biso   1.000  O
  O25      1.0000 0.50467  0.20903  0.80233  Biso   1.000  O
  O26      1.0000 0.01357  0.91753  0.70183  Biso   1.000  O
  Zn2      1.0000 0.57789  0.22139  0.84382  Biso   1.000  Zn
  C55      1.0000 0.98817  0.84653  0.70823  Biso   1.000  C
  H47      1.0000 0.95707  0.82713  0.72293  Biso   1.000  H
  N3       1.0000 0.00327  0.79493  0.69483  Biso   1.000  N
  C56      1.0000 0.00907  0.81103  0.66853  Biso   1.000  C
  H48      1.0000 0.98617  0.75533  0.66103  Biso   1.000  H
  H49      1.0000 0.96707  0.82783  0.66543  Biso   1.000  H
  C57      1.0000 0.07807  0.86513  0.65243  Biso   1.000  C
  H50      1.0000 0.05797  0.85933  0.63553  Biso   1.000  H
  H51      1.0000 0.10147  0.92283  0.65773  Biso   1.000  H
  H52      1.0000 0.12097  0.84923  0.65323  Biso   1.000  H
  C58      1.0000 0.02257  0.73623  0.70833  Biso   1.000  C
  H53      1.0000 0.07257  0.73983  0.70063  Biso   1.000  H
  H54      1.0000 0.03777  0.75683  0.72523  Biso   1.000  H
  C59      1.0000 0.95917  0.64843  0.70953  Biso   1.000  C
  H55      1.0000 0.98067  0.61823  0.71883  Biso   1.000  H
  H56      1.0000 0.90967  0.64273  0.71773  Biso   1.000  H
  H57      1.0000 0.94467  0.62563  0.69293  Biso   1.000  H
  O27      1.0000 0.41767  0.89733  0.75943  Biso   1.000  O
  O28      1.0000 0.46867  0.01833  0.73933  Biso   1.000  O
  C60      1.0000 0.52767  0.06833  0.75883  Biso   1.000  C
  H58      1.0000 0.56657  0.12473  0.75273  Biso   1.000  H
  H59      1.0000 0.56107  0.04213  0.76383  Biso   1.000  H
  C61      1.0000 0.48067  0.07233  0.78003  Biso   1.000  C
  H60      1.0000 0.46377  0.02293  0.79063  Biso   1.000  H
  H61      1.0000 0.42937  0.07023  0.77403  Biso   1.000  H
  C62      1.0000 0.53267  0.15363  0.79553  Biso   1.000  C
  O29      1.0000 0.58797  0.21813  0.78593  Biso   1.000  O
  O30      1.0000 0.50467  0.14633  0.81693  Biso   1.000  O
  O31      1.0000 0.46267  0.90333  0.75063  Biso   1.000  O
  O32      1.0000 0.44657  0.01263  0.74633  Biso   1.000  O
  C63      1.0000 0.50667  0.04893  0.76693  Biso   1.000  C
  H62      1.0000 0.50867  0.00423  0.77613  Biso   1.000  H
  H63      1.0000 0.56277  0.08703  0.76043  Biso   1.000  H
  C64      1.0000 0.48067  0.09433  0.78323  Biso   1.000  C
  H64      1.0000 0.42587  0.05583  0.79053  Biso   1.000  H
  H65      1.0000 0.47467  0.13683  0.77373  Biso   1.000  H
  C65      1.0000 0.54757  0.13863  0.80423  Biso   1.000  C
  O33      1.0000 0.62187  0.17243  0.79953  Biso   1.000  O
  O34      1.0000 0.51057  0.13233  0.82423  Biso   1.000  O
  C66      1.0000 0.96527  0.85893  0.69383  Biso   1.000  C
  H66      1.0000 0.90987  0.84303  0.69813  Biso   1.000  H
  N4       1.0000 0.97387  0.80723  0.67873  Biso   1.000  N
  C67      1.0000 0.05647  0.82153  0.67253  Biso   1.000  C
  H67      1.0000 0.08337  0.82333  0.68833  Biso   1.000  H
  H68      1.0000 0.04707  0.77023  0.66413  Biso   1.000  H
  C68      1.0000 0.12007  0.89003  0.65803  Biso   1.000  C
  H69      1.0000 0.16927  0.88393  0.65673  Biso   1.000  H
  H70      1.0000 0.09837  0.88913  0.64163  Biso   1.000  H
  H71      1.0000 0.13507  0.94283  0.66603  Biso   1.000  H
  C69      1.0000 0.90277  0.73993  0.66513  Biso   1.000  C
  H72      1.0000 0.91767  0.74253  0.64763  Biso   1.000  H
  H73      1.0000 0.85417  0.74793  0.66633  Biso   1.000  H
  C70      1.0000 0.88067  0.65673  0.67523  Biso   1.000  C
  H74      1.0000 0.83387  0.61343  0.66603  Biso   1.000  H
  H75      1.0000 0.92857  0.64843  0.67383  Biso   1.000  H
  H76      1.0000 0.86527  0.65393  0.69253  Biso   1.000  H
  C71      1.0000 0.85920  0.06519  0.96959  Biso   1.000  C
  C72      1.0000 0.83395  0.04447  0.99597  Biso   1.000  C
  C73      1.0000 0.89297  0.11073  0.01098  Biso   1.000  C
  C74      1.0000 0.90655  0.09459  0.03523  Biso   1.000  C
  C75      1.0000 0.86431  0.01080  0.04423  Biso   1.000  C
  C76      1.0000 0.80629  0.94554  0.02956  Biso   1.000  C
  C77      1.0000 0.79338  0.96312  0.00474  Biso   1.000  C
  C78      1.0000 0.92398  0.00007  0.05984  Biso   1.000  C
  C79      1.0000 0.00095  0.07716  0.06040  Biso   1.000  C
  C80      1.0000 0.98987  0.14161  0.04755  Biso   1.000  C
  C81      1.0000 0.03673  0.23541  0.05251  Biso   1.000  C
  O35      1.0000 0.98263  0.31157  0.03000  Biso   1.000  O
  C82      1.0000 0.98653  0.27887  0.04846  Biso   1.000  C
  O36      1.0000 0.94523  0.27297  0.06873  Biso   1.000  O
  C83      1.0000 0.89213  0.31097  0.06853  Biso   1.000  C
  H77      1.0000 0.84693  0.28307  0.05637  Biso   1.000  H
  H78      1.0000 0.92513  0.37067  0.06437  Biso   1.000  H
  C84      1.0000 0.85773  0.29977  0.09368  Biso   1.000  C
  H79      1.0000 0.90283  0.33627  0.10507  Biso   1.000  H
  H80      1.0000 0.83683  0.24167  0.09887  Biso   1.000  H
  C85      1.0000 0.78703  0.31947  0.09567  Biso   1.000  C
  O37      1.0000 0.76863  0.34627  0.07756  Biso   1.000  O
  O38      1.0000 0.75343  0.30767  0.11667  Biso   1.000  O
  O39      1.0000 0.10763  0.23127  0.08977  Biso   1.000  O
  C86      1.0000 0.09543  0.26997  0.07438  Biso   1.000  C
  O40      1.0000 0.14033  0.35157  0.07187  Biso   1.000  O
  C87      1.0000 0.19223  0.40377  0.09237  Biso   1.000  C
  H81      1.0000 0.24313  0.45217  0.08587  Biso   1.000  H
  H82      1.0000 0.20883  0.37137  0.10287  Biso   1.000  H
  C88      1.0000 0.14413  0.43277  0.10687  Biso   1.000  C
  H83      1.0000 0.09833  0.38507  0.11557  Biso   1.000  H
  H84      1.0000 0.11943  0.45667  0.09577  Biso   1.000  H
  C89      1.0000 0.20233  0.50107  0.12637  Biso   1.000  C
  O41      1.0000 0.27093  0.50807  0.13107  Biso   1.000  O
  O42      1.0000 0.17133  0.54237  0.13567  Biso   1.000  O
  O43      1.0000 0.68023  0.25087  0.03517  Biso   1.000  O
  Zn3      1.0000 0.24455  0.55473  0.17716  Biso   1.000  Zn
  C90      1.0000 0.65483  0.17987  0.04157  Biso   1.000  C
  H85      1.0000 0.62373  0.16047  0.05627  Biso   1.000  H
  N5       1.0000 0.66993  0.12827  0.02817  Biso   1.000  N
  C91      1.0000 0.67573  0.14437  0.00187  Biso   1.000  C
  H86      1.0000 0.65283  0.08867  0.99437  Biso   1.000  H
  H87      1.0000 0.63373  0.16117  0.99877  Biso   1.000  H
  C92      1.0000 0.74473  0.19847  0.98577  Biso   1.000  C
  H88      1.0000 0.72463  0.19267  0.96887  Biso   1.000  H
  H89      1.0000 0.76813  0.25617  0.99107  Biso   1.000  H
  H90      1.0000 0.78763  0.18257  0.98657  Biso   1.000  H
  C93      1.0000 0.68923  0.06957  0.04167  Biso   1.000  C
  H91      1.0000 0.73923  0.07317  0.03397  Biso   1.000  H
  H92      1.0000 0.70443  0.09017  0.05857  Biso   1.000  H
  C94      1.0000 0.62583  0.98177  0.04287  Biso   1.000  C
  H93      1.0000 0.64733  0.95157  0.05217  Biso   1.000  H
  H94      1.0000 0.57633  0.97607  0.05107  Biso   1.000  H
  H95      1.0000 0.61133  0.95897  0.02627  Biso   1.000  H
  O44      1.0000 0.08433  0.23067  0.09277  Biso   1.000  O
  O45      1.0000 0.13533  0.35167  0.07267  Biso   1.000  O
  C95      1.0000 0.19433  0.40167  0.09217  Biso   1.000  C
  H96      1.0000 0.23323  0.45807  0.08607  Biso   1.000  H
  H97      1.0000 0.22773  0.37547  0.09717  Biso   1.000  H
  C96      1.0000 0.14733  0.40567  0.11337  Biso   1.000  C
  H98      1.0000 0.13043  0.35627  0.12397  Biso   1.000  H
  H99      1.0000 0.09603  0.40357  0.10737  Biso   1.000  H
  C97      1.0000 0.19933  0.48697  0.12887  Biso   1.000  C
  O46      1.0000 0.25463  0.55147  0.11927  Biso   1.000  O
  O47      1.0000 0.17133  0.47967  0.15027  Biso   1.000  O
  O48      1.0000 0.12933  0.23667  0.08397  Biso   1.000  O
  O49      1.0000 0.11323  0.34597  0.07967  Biso   1.000  O
  C98      1.0000 0.17333  0.38227  0.10027  Biso   1.000  C
  H100     1.0000 0.17533  0.33757  0.10947  Biso   1.000  H
  H101     1.0000 0.22943  0.42037  0.09377  Biso   1.000  H
  C99      1.0000 0.14733  0.42767  0.11657  Biso   1.000  C
  H102     1.0000 0.09253  0.38917  0.12387  Biso   1.000  H
  H103     1.0000 0.14133  0.47017  0.10707  Biso   1.000  H
  C100     1.0000 0.21423  0.47197  0.13757  Biso   1.000  C
  O50      1.0000 0.28853  0.50577  0.13287  Biso   1.000  O
  O51      1.0000 0.17723  0.46567  0.15757  Biso   1.000  O
  C101     1.0000 0.63193  0.19227  0.02717  Biso   1.000  C
  H104     1.0000 0.57653  0.17637  0.03147  Biso   1.000  H
  N6       1.0000 0.64053  0.14057  0.01207  Biso   1.000  N
  C102     1.0000 0.72313  0.15487  0.00587  Biso   1.000  C
  H105     1.0000 0.75003  0.15667  0.02167  Biso   1.000  H
  H106     1.0000 0.71373  0.10357  0.99747  Biso   1.000  H
  C103     1.0000 0.78673  0.22337  0.99137  Biso   1.000  C
  H107     1.0000 0.83593  0.21727  0.99007  Biso   1.000  H
  H108     1.0000 0.76503  0.22247  0.97497  Biso   1.000  H
  H109     1.0000 0.80173  0.27617  0.99937  Biso   1.000  H
  C104     1.0000 0.56943  0.07327  0.99847  Biso   1.000  C
  H110     1.0000 0.58433  0.07587  0.98097  Biso   1.000  H
  H111     1.0000 0.52083  0.08127  0.99967  Biso   1.000  H
  C105     1.0000 0.54733  0.99007  0.00857  Biso   1.000  C
  H112     1.0000 0.50053  0.94677  0.99937  Biso   1.000  H
  H113     1.0000 0.59523  0.98177  0.00717  Biso   1.000  H
  H114     1.0000 0.53193  0.98727  0.02587  Biso   1.000  H
  C106     1.0000 0.60148  0.12735  0.30292  Biso   1.000  C
  C107     1.0000 0.62220  0.12282  0.32930  Biso   1.000  C
  C108     1.0000 0.55594  0.11558  0.34431  Biso   1.000  C
  C109     1.0000 0.57208  0.14530  0.36856  Biso   1.000  C
  C110     1.0000 0.65587  0.18685  0.37756  Biso   1.000  C
  C111     1.0000 0.72113  0.19409  0.36289  Biso   1.000  C
  C112     1.0000 0.70355  0.16360  0.33807  Biso   1.000  C
  C113     1.0000 0.66660  0.25725  0.39317  Biso   1.000  C
  C114     1.0000 0.58951  0.25713  0.39373  Biso   1.000  C
  C115     1.0000 0.52506  0.18160  0.38088  Biso   1.000  C
  C116     1.0000 0.43126  0.13466  0.38584  Biso   1.000  C
  O52      1.0000 0.35510  0.00440  0.36333  Biso   1.000  O
  C117     1.0000 0.38780  0.04100  0.38179  Biso   1.000  C
  O53      1.0000 0.39370  0.00560  0.40206  Biso   1.000  O
  C118     1.0000 0.35570  0.91450  0.40186  Biso   1.000  C
  H115     1.0000 0.38360  0.89720  0.38970  Biso   1.000  H
  H116     1.0000 0.29600  0.88780  0.39770  Biso   1.000  H
  C119     1.0000 0.36690  0.89130  0.42701  Biso   1.000  C
  H117     1.0000 0.33040  0.89990  0.43840  Biso   1.000  H
  H118     1.0000 0.42500  0.92850  0.43220  Biso   1.000  H
  C120     1.0000 0.34720  0.80090  0.42900  Biso   1.000  C
  O54      1.0000 0.32040  0.75570  0.41089  Biso   1.000  O
  O55      1.0000 0.35900  0.77910  0.45000  Biso   1.000  O
  O56      1.0000 0.43540  0.20970  0.42310  Biso   1.000  O
  C121     1.0000 0.39670  0.15880  0.40771  Biso   1.000  C
  O57      1.0000 0.31510  0.12210  0.40520  Biso   1.000  O
  C122     1.0000 0.26290  0.12180  0.42570  Biso   1.000  C
  H119     1.0000 0.21450  0.12430  0.41920  Biso   1.000  H
  H120     1.0000 0.29530  0.17080  0.43620  Biso   1.000  H
  C123     1.0000 0.23390  0.04470  0.44020  Biso   1.000  C
  H121     1.0000 0.28160  0.04660  0.44890  Biso   1.000  H
  H122     1.0000 0.21000  0.99610  0.42910  Biso   1.000  H
  C124     1.0000 0.16560  0.03460  0.45970  Biso   1.000  C
  O58      1.0000 0.15860  0.09620  0.46440  Biso   1.000  O
  O59      1.0000 0.12430  0.96230  0.46900  Biso   1.000  O
  O60      1.0000 0.41580  0.76270  0.36850  Biso   1.000  O
  Zn4      1.0000 0.11194  0.02316  0.51049  Biso   1.000  Zn
  C125     1.0000 0.48680  0.80830  0.37490  Biso   1.000  C
  H123     1.0000 0.50620  0.79660  0.38960  Biso   1.000  H
  N7       1.0000 0.53840  0.87500  0.36150  Biso   1.000  N
  C126     1.0000 0.52230  0.86470  0.33520  Biso   1.000  C
  H124     1.0000 0.57800  0.89750  0.32770  Biso   1.000  H
  H125     1.0000 0.50550  0.80590  0.33210  Biso   1.000  H
  C127     1.0000 0.46820  0.87960  0.31910  Biso   1.000  C
  H126     1.0000 0.47400  0.86530  0.30220  Biso   1.000  H
  H127     1.0000 0.41050  0.84530  0.32440  Biso   1.000  H
  H128     1.0000 0.48410  0.93840  0.31990  Biso   1.000  H
  C128     1.0000 0.59710  0.95300  0.37500  Biso   1.000  C
  H129     1.0000 0.59350  0.99940  0.36730  Biso   1.000  H
  H130     1.0000 0.57650  0.94760  0.39190  Biso   1.000  H
  C129     1.0000 0.68490  0.97740  0.37620  Biso   1.000  C
  H131     1.0000 0.71510  0.02910  0.38550  Biso   1.000  H
  H132     1.0000 0.69060  0.93360  0.38440  Biso   1.000  H
  H133     1.0000 0.70770  0.98570  0.35960  Biso   1.000  H
  O61      1.0000 0.43600  0.18700  0.42610  Biso   1.000  O
  O62      1.0000 0.31500  0.11700  0.40600  Biso   1.000  O
  C130     1.0000 0.26500  0.12600  0.42550  Biso   1.000  C
  H134     1.0000 0.20860  0.10850  0.41940  Biso   1.000  H
  H135     1.0000 0.29120  0.18560  0.43050  Biso   1.000  H
  C131     1.0000 0.26100  0.07500  0.44670  Biso   1.000  C
  H136     1.0000 0.31040  0.10750  0.45730  Biso   1.000  H
  H137     1.0000 0.26310  0.02580  0.44070  Biso   1.000  H
  C132     1.0000 0.17970  0.04570  0.46220  Biso   1.000  C
  O63      1.0000 0.11520  0.03650  0.45260  Biso   1.000  O
  O64      1.0000 0.18700  0.02500  0.48360  Biso   1.000  O
  O65      1.0000 0.43000  0.22600  0.41730  Biso   1.000  O
  O66      1.0000 0.32070  0.10060  0.41300  Biso   1.000  O
  C133     1.0000 0.28440  0.12440  0.43360  Biso   1.000  C
  H138     1.0000 0.32910  0.17110  0.44280  Biso   1.000  H
  H139     1.0000 0.24630  0.14240  0.42710  Biso   1.000  H
  C134     1.0000 0.23900  0.05300  0.44990  Biso   1.000  C
  H140     1.0000 0.27750  0.03670  0.45720  Biso   1.000  H
  H141     1.0000 0.19650  0.00450  0.44040  Biso   1.000  H
  C135     1.0000 0.19470  0.07560  0.47090  Biso   1.000  C
  O67      1.0000 0.16090  0.11610  0.46620  Biso   1.000  O
  O68      1.0000 0.20100  0.04490  0.49090  Biso   1.000  O
  C136     1.0000 0.47440  0.77300  0.36050  Biso   1.000  C
  H142     1.0000 0.49030  0.73350  0.36480  Biso   1.000  H
  N8       1.0000 0.52610  0.83330  0.34540  Biso   1.000  N
  C137     1.0000 0.51180  0.90160  0.33920  Biso   1.000  C
  H143     1.0000 0.51000  0.92670  0.35500  Biso   1.000  H
  H144     1.0000 0.56310  0.94350  0.33080  Biso   1.000  H
  C138     1.0000 0.44330  0.89670  0.32470  Biso   1.000  C
  H145     1.0000 0.44940  0.95200  0.32340  Biso   1.000  H
  H146     1.0000 0.44420  0.87590  0.30830  Biso   1.000  H
  H147     1.0000 0.39050  0.85890  0.33270  Biso   1.000  H
  C139     1.0000 0.59340  0.82950  0.33180  Biso   1.000  C
  H148     1.0000 0.59080  0.84180  0.31430  Biso   1.000  H
  H149     1.0000 0.58540  0.77290  0.33300  Biso   1.000  H
  C140     1.0000 0.67660  0.89060  0.34190  Biso   1.000  C
  H150     1.0000 0.71990  0.88710  0.33270  Biso   1.000  H
  H151     1.0000 0.68490  0.94680  0.34050  Biso   1.000  H
  H152     1.0000 0.67940  0.87800  0.35920  Biso   1.000  H
  C141     1.0000 0.26815  0.46068  0.63625  Biso   1.000  C
  C142     1.0000 0.28887  0.45615  0.66263  Biso   1.000  C
  C143     1.0000 0.22261  0.44891  0.67764  Biso   1.000  C
  C144     1.0000 0.23875  0.47863  0.70189  Biso   1.000  C
  C145     1.0000 0.32254  0.52018  0.71089  Biso   1.000  C
  C146     1.0000 0.38780  0.52742  0.69622  Biso   1.000  C
  C147     1.0000 0.37022  0.49693  0.67140  Biso   1.000  C
  C148     1.0000 0.33327  0.59058  0.72650  Biso   1.000  C
  C149     1.0000 0.25618  0.59046  0.72706  Biso   1.000  C
  C150     1.0000 0.19173  0.51493  0.71421  Biso   1.000  C
  C151     1.0000 0.09793  0.46799  0.71917  Biso   1.000  C
  O69      1.0000 0.02177  0.33773  0.69666  Biso   1.000  O
  C152     1.0000 0.05447  0.37433  0.71512  Biso   1.000  C
  O70      1.0000 0.06037  0.33893  0.73539  Biso   1.000  O
  C153     1.0000 0.02237  0.24783  0.73519  Biso   1.000  C
  H153     1.0000 0.05027  0.23053  0.72303  Biso   1.000  H
  H154     1.0000 0.96267  0.22113  0.73103  Biso   1.000  H
  C154     1.0000 0.03357  0.22463  0.76034  Biso   1.000  C
  H155     1.0000 0.99707  0.23323  0.77173  Biso   1.000  H
  H156     1.0000 0.09167  0.26183  0.76553  Biso   1.000  H
  C155     1.0000 0.01387  0.13423  0.76233  Biso   1.000  C
  O71      1.0000 0.98707  0.08903  0.74422  Biso   1.000  O
  O72      1.0000 0.02567  0.11243  0.78333  Biso   1.000  O
  O73      1.0000 0.10207  0.54303  0.75643  Biso   1.000  O
  C156     1.0000 0.06337  0.49213  0.74104  Biso   1.000  C
  O74      1.0000 0.98177  0.45543  0.73853  Biso   1.000  O
  C157     1.0000 0.92957  0.45513  0.75903  Biso   1.000  C
  H157     1.0000 0.88117  0.45763  0.75253  Biso   1.000  H
  H158     1.0000 0.96197  0.50413  0.76953  Biso   1.000  H
  C158     1.0000 0.90057  0.37803  0.77353  Biso   1.000  C
  H159     1.0000 0.94827  0.37993  0.78223  Biso   1.000  H
  H160     1.0000 0.87667  0.32943  0.76243  Biso   1.000  H
  C159     1.0000 0.83227  0.36793  0.79303  Biso   1.000  C
  O75      1.0000 0.82527  0.42953  0.79773  Biso   1.000  O
  O76      1.0000 0.79097  0.29563  0.80233  Biso   1.000  O
  O77      1.0000 0.08247  0.09603  0.70183  Biso   1.000  O
  Zn5      1.0000 0.77861  0.35649  0.84382  Biso   1.000  Zn
  C160     1.0000 0.15347  0.14163  0.70823  Biso   1.000  C
  H161     1.0000 0.17287  0.12993  0.72293  Biso   1.000  H
  N9       1.0000 0.20507  0.20833  0.69483  Biso   1.000  N
  C161     1.0000 0.18897  0.19803  0.66853  Biso   1.000  C
  H162     1.0000 0.24467  0.23083  0.66103  Biso   1.000  H
  H163     1.0000 0.17217  0.13923  0.66543  Biso   1.000  H
  C162     1.0000 0.13487  0.21293  0.65243  Biso   1.000  C
  H164     1.0000 0.14067  0.19863  0.63553  Biso   1.000  H
  H165     1.0000 0.07717  0.17863  0.65773  Biso   1.000  H
  H166     1.0000 0.15077  0.27173  0.65323  Biso   1.000  H
  C163     1.0000 0.26377  0.28633  0.70833  Biso   1.000  C
  H167     1.0000 0.26017  0.33273  0.70063  Biso   1.000  H
  H168     1.0000 0.24317  0.28093  0.72523  Biso   1.000  H
  C164     1.0000 0.35157  0.31073  0.70953  Biso   1.000  C
  H169     1.0000 0.38177  0.36243  0.71883  Biso   1.000  H
  H170     1.0000 0.35727  0.26693  0.71773  Biso   1.000  H
  H171     1.0000 0.37437  0.31903  0.69293  Biso   1.000  H
  O78      1.0000 0.10267  0.52033  0.75943  Biso   1.000  O
  O79      1.0000 0.98167  0.45033  0.73933  Biso   1.000  O
  C165     1.0000 0.93167  0.45933  0.75883  Biso   1.000  C
  H172     1.0000 0.87527  0.44183  0.75273  Biso   1.000  H
  H173     1.0000 0.95787  0.51893  0.76383  Biso   1.000  H
  C166     1.0000 0.92767  0.40833  0.78003  Biso   1.000  C
  H174     1.0000 0.97707  0.44083  0.79063  Biso   1.000  H
  H175     1.0000 0.92977  0.35913  0.77403  Biso   1.000  H
  C167     1.0000 0.84637  0.37903  0.79553  Biso   1.000  C
  O80      1.0000 0.78187  0.36983  0.78593  Biso   1.000  O
  O81      1.0000 0.85367  0.35833  0.81693  Biso   1.000  O
  O82      1.0000 0.09667  0.55933  0.75063  Biso   1.000  O
  O83      1.0000 0.98737  0.43393  0.74633  Biso   1.000  O
  C168     1.0000 0.95107  0.45773  0.76693  Biso   1.000  C
  H176     1.0000 0.99577  0.50443  0.77613  Biso   1.000  H
  H177     1.0000 0.91297  0.47573  0.76043  Biso   1.000  H
  C169     1.0000 0.90567  0.38633  0.78323  Biso   1.000  C
  H178     1.0000 0.94417  0.37003  0.79053  Biso   1.000  H
  H179     1.0000 0.86317  0.33783  0.77373  Biso   1.000  H
  C170     1.0000 0.86137  0.40893  0.80423  Biso   1.000  C
  O84      1.0000 0.82757  0.44943  0.79953  Biso   1.000  O
  O85      1.0000 0.86767  0.37823  0.82423  Biso   1.000  O
  C171     1.0000 0.14107  0.10633  0.69383  Biso   1.000  C
  H180     1.0000 0.15697  0.06683  0.69813  Biso   1.000  H
  N10      1.0000 0.19277  0.16663  0.67873  Biso   1.000  N
  C172     1.0000 0.17847  0.23493  0.67253  Biso   1.000  C
  H181     1.0000 0.17667  0.26003  0.68833  Biso   1.000  H
  H182     1.0000 0.22977  0.27683  0.66413  Biso   1.000  H
  C173     1.0000 0.10997  0.23003  0.65803  Biso   1.000  C
  H183     1.0000 0.11607  0.28533  0.65673  Biso   1.000  H
  H184     1.0000 0.11087  0.20923  0.64163  Biso   1.000  H
  H185     1.0000 0.05717  0.19223  0.66603  Biso   1.000  H
  C174     1.0000 0.26007  0.16283  0.66513  Biso   1.000  C
  H186     1.0000 0.25747  0.17513  0.64763  Biso   1.000  H
  H187     1.0000 0.25207  0.10623  0.66633  Biso   1.000  H
  C175     1.0000 0.34327  0.22393  0.67523  Biso   1.000  C
  H188     1.0000 0.38657  0.22043  0.66603  Biso   1.000  H
  H189     1.0000 0.35157  0.28013  0.67383  Biso   1.000  H
  H190     1.0000 0.34607  0.21133  0.69253  Biso   1.000  H
  C176     1.0000 0.93481  0.79402  0.96959  Biso   1.000  C
  C177     1.0000 0.95553  0.78949  0.99597  Biso   1.000  C
  C178     1.0000 0.88927  0.78225  0.01098  Biso   1.000  C
  C179     1.0000 0.90541  0.81197  0.03523  Biso   1.000  C
  C180     1.0000 0.98920  0.85352  0.04423  Biso   1.000  C
  C181     1.0000 0.05446  0.86076  0.02956  Biso   1.000  C
  C182     1.0000 0.03688  0.83027  0.00474  Biso   1.000  C
  C183     1.0000 0.99993  0.92392  0.05984  Biso   1.000  C
  C184     1.0000 0.92284  0.92380  0.06040  Biso   1.000  C
  C185     1.0000 0.85839  0.84827  0.04755  Biso   1.000  C
  C186     1.0000 0.76459  0.80133  0.05251  Biso   1.000  C
  O86      1.0000 0.68843  0.67107  0.03000  Biso   1.000  O
  C187     1.0000 0.72113  0.70767  0.04846  Biso   1.000  C
  O87      1.0000 0.72703  0.67227  0.06873  Biso   1.000  O
  C188     1.0000 0.68903  0.58117  0.06853  Biso   1.000  C
  H191     1.0000 0.71693  0.56387  0.05637  Biso   1.000  H
  H192     1.0000 0.62933  0.55447  0.06437  Biso   1.000  H
  C189     1.0000 0.70023  0.55797  0.09368  Biso   1.000  C
  H193     1.0000 0.66373  0.56657  0.10507  Biso   1.000  H
  H194     1.0000 0.75833  0.59517  0.09887  Biso   1.000  H
  C190     1.0000 0.68053  0.46757  0.09567  Biso   1.000  C
  O88      1.0000 0.65373  0.42237  0.07756  Biso   1.000  O
  O89      1.0000 0.69233  0.44577  0.11667  Biso   1.000  O
  O90      1.0000 0.76873  0.87637  0.08977  Biso   1.000  O
  C191     1.0000 0.73003  0.82547  0.07438  Biso   1.000  C
  O91      1.0000 0.64843  0.78877  0.07187  Biso   1.000  O
  C192     1.0000 0.59623  0.78847  0.09237  Biso   1.000  C
  H195     1.0000 0.54783  0.79097  0.08587  Biso   1.000  H
  H196     1.0000 0.62863  0.83747  0.10287  Biso   1.000  H
  C193     1.0000 0.56723  0.71137  0.10687  Biso   1.000  C
  H197     1.0000 0.61493  0.71327  0.11557  Biso   1.000  H
  H198     1.0000 0.54333  0.66277  0.09577  Biso   1.000  H
  C194     1.0000 0.49893  0.70127  0.12637  Biso   1.000  C
  O92      1.0000 0.49193  0.76287  0.13107  Biso   1.000  O
  O93      1.0000 0.45763  0.62897  0.13567  Biso   1.000  O
  O94      1.0000 0.74913  0.42937  0.03517  Biso   1.000  O
  Zn6      1.0000 0.44527  0.68983  0.17716  Biso   1.000  Zn
  C195     1.0000 0.82013  0.47497  0.04157  Biso   1.000  C
  H199     1.0000 0.83953  0.46327  0.05627  Biso   1.000  H
  N11      1.0000 0.87173  0.54167  0.02817  Biso   1.000  N
  C196     1.0000 0.85563  0.53137  0.00187  Biso   1.000  C
  H200     1.0000 0.91133  0.56417  0.99437  Biso   1.000  H
  H201     1.0000 0.83883  0.47257  0.99877  Biso   1.000  H
  C197     1.0000 0.80153  0.54627  0.98577  Biso   1.000  C
  H202     1.0000 0.80733  0.53197  0.96887  Biso   1.000  H
  H203     1.0000 0.74383  0.51197  0.99107  Biso   1.000  H
  H204     1.0000 0.81743  0.60507  0.98657  Biso   1.000  H
  C198     1.0000 0.93043  0.61967  0.04167  Biso   1.000  C
  H205     1.0000 0.92683  0.66607  0.03397  Biso   1.000  H
  H206     1.0000 0.90983  0.61427  0.05857  Biso   1.000  H
  C199     1.0000 0.01823  0.64407  0.04287  Biso   1.000  C
  H207     1.0000 0.04843  0.69577  0.05217  Biso   1.000  H
  H208     1.0000 0.02393  0.60027  0.05107  Biso   1.000  H
  H209     1.0000 0.04103  0.65237  0.02627  Biso   1.000  H
  O95      1.0000 0.76933  0.85367  0.09277  Biso   1.000  O
  O96      1.0000 0.64833  0.78367  0.07267  Biso   1.000  O
  C200     1.0000 0.59833  0.79267  0.09217  Biso   1.000  C
  H210     1.0000 0.54193  0.77517  0.08607  Biso   1.000  H
  H211     1.0000 0.62453  0.85227  0.09717  Biso   1.000  H
  C201     1.0000 0.59433  0.74167  0.11337  Biso   1.000  C
  H212     1.0000 0.64373  0.77417  0.12397  Biso   1.000  H
  H213     1.0000 0.59643  0.69247  0.10737  Biso   1.000  H
  C202     1.0000 0.51303  0.71237  0.12887  Biso   1.000  C
  O97      1.0000 0.44853  0.70317  0.11927  Biso   1.000  O
  O98      1.0000 0.52033  0.69167  0.15027  Biso   1.000  O
  O99      1.0000 0.76333  0.89267  0.08397  Biso   1.000  O
  O100     1.0000 0.65403  0.76727  0.07967  Biso   1.000  O
  C203     1.0000 0.61773  0.79107  0.10027  Biso   1.000  C
  H214     1.0000 0.66243  0.83777  0.10947  Biso   1.000  H
  H215     1.0000 0.57963  0.80907  0.09377  Biso   1.000  H
  C204     1.0000 0.57233  0.71967  0.11657  Biso   1.000  C
  H216     1.0000 0.61083  0.70337  0.12387  Biso   1.000  H
  H217     1.0000 0.52983  0.67117  0.10707  Biso   1.000  H
  C205     1.0000 0.52803  0.74227  0.13757  Biso   1.000  C
  O101     1.0000 0.49423  0.78277  0.13287  Biso   1.000  O
  O102     1.0000 0.53433  0.71157  0.15757  Biso   1.000  O
  C206     1.0000 0.80773  0.43967  0.02717  Biso   1.000  C
  H218     1.0000 0.82363  0.40017  0.03147  Biso   1.000  H
  N12      1.0000 0.85943  0.49997  0.01207  Biso   1.000  N
  C207     1.0000 0.84513  0.56827  0.00587  Biso   1.000  C
  H219     1.0000 0.84333  0.59337  0.02167  Biso   1.000  H
  H220     1.0000 0.89643  0.61017  0.99747  Biso   1.000  H
  C208     1.0000 0.77663  0.56337  0.99137  Biso   1.000  C
  H221     1.0000 0.78273  0.61867  0.99007  Biso   1.000  H
  H222     1.0000 0.77753  0.54257  0.97497  Biso   1.000  H
  H223     1.0000 0.72383  0.52557  0.99937  Biso   1.000  H
  C209     1.0000 0.92673  0.49617  0.99847  Biso   1.000  C
  H224     1.0000 0.92413  0.50847  0.98097  Biso   1.000  H
  H225     1.0000 0.91873  0.43957  0.99967  Biso   1.000  H
  C210     1.0000 0.00993  0.55727  0.00857  Biso   1.000  C
  H226     1.0000 0.05323  0.55377  0.99937  Biso   1.000  H
  H227     1.0000 0.01823  0.61347  0.00717  Biso   1.000  H
  H228     1.0000 0.01273  0.54467  0.02587  Biso   1.000  H
  C211     1.0000 0.87265  0.47413  0.30292  Biso   1.000  C
  C212     1.0000 0.87718  0.49938  0.32930  Biso   1.000  C
  C213     1.0000 0.88442  0.44036  0.34431  Biso   1.000  C
  C214     1.0000 0.85470  0.42678  0.36856  Biso   1.000  C
  C215     1.0000 0.81315  0.46902  0.37756  Biso   1.000  C
  C216     1.0000 0.80591  0.52704  0.36289  Biso   1.000  C
  C217     1.0000 0.83640  0.53995  0.33807  Biso   1.000  C
  C218     1.0000 0.74275  0.40935  0.39317  Biso   1.000  C
  C219     1.0000 0.74287  0.33238  0.39373  Biso   1.000  C
  C220     1.0000 0.81840  0.34346  0.38088  Biso   1.000  C
  C221     1.0000 0.86534  0.29660  0.38584  Biso   1.000  C
  O103     1.0000 0.99560  0.35070  0.36333  Biso   1.000  O
  C222     1.0000 0.95900  0.34680  0.38179  Biso   1.000  C
  O104     1.0000 0.99440  0.38810  0.40206  Biso   1.000  O
  C223     1.0000 0.08550  0.44120  0.40186  Biso   1.000  C
  H229     1.0000 0.10280  0.48640  0.38970  Biso   1.000  H
  H230     1.0000 0.11220  0.40820  0.39770  Biso   1.000  H
  C224     1.0000 0.10870  0.47560  0.42701  Biso   1.000  C
  H231     1.0000 0.10010  0.43050  0.43840  Biso   1.000  H
  H232     1.0000 0.07150  0.49650  0.43220  Biso   1.000  H
  C225     1.0000 0.19910  0.54630  0.42900  Biso   1.000  C
  O105     1.0000 0.24430  0.56470  0.41089  Biso   1.000  O
  O106     1.0000 0.22090  0.57990  0.45000  Biso   1.000  O
  O107     1.0000 0.79030  0.22570  0.42310  Biso   1.000  O
  C226     1.0000 0.84120  0.23790  0.40771  Biso   1.000  C
  O108     1.0000 0.87790  0.19300  0.40520  Biso   1.000  O
  C227     1.0000 0.87820  0.14110  0.42570  Biso   1.000  C
  H233     1.0000 0.87570  0.09020  0.41920  Biso   1.000  H
  H234     1.0000 0.82920  0.12450  0.43620  Biso   1.000  H
  C228     1.0000 0.95530  0.18920  0.44020  Biso   1.000  C
  H235     1.0000 0.95340  0.23500  0.44890  Biso   1.000  H
  H236     1.0000 0.00390  0.21390  0.42910  Biso   1.000  H
  C229     1.0000 0.96540  0.13100  0.45970  Biso   1.000  C
  O109     1.0000 0.90380  0.06240  0.46440  Biso   1.000  O
  O110     1.0000 0.03770  0.16200  0.46900  Biso   1.000  O
  O111     1.0000 0.23730  0.65310  0.36850  Biso   1.000  O
  Zn7      1.0000 0.97684  0.08878  0.51049  Biso   1.000  Zn
  C230     1.0000 0.19170  0.67850  0.37490  Biso   1.000  C
  H237     1.0000 0.20340  0.70960  0.38960  Biso   1.000  H
  N13      1.0000 0.12500  0.66340  0.36150  Biso   1.000  N
  C231     1.0000 0.13530  0.65760  0.33520  Biso   1.000  C
  H238     1.0000 0.10250  0.68050  0.32770  Biso   1.000  H
  H239     1.0000 0.19410  0.69960  0.33210  Biso   1.000  H
  C232     1.0000 0.12040  0.58860  0.31910  Biso   1.000  C
  H240     1.0000 0.13470  0.60870  0.30220  Biso   1.000  H
  H241     1.0000 0.15470  0.56520  0.32440  Biso   1.000  H
  H242     1.0000 0.06160  0.54570  0.31990  Biso   1.000  H
  C233     1.0000 0.04700  0.64410  0.37500  Biso   1.000  C
  H243     1.0000 0.00060  0.59410  0.36730  Biso   1.000  H
  H244     1.0000 0.05240  0.62890  0.39190  Biso   1.000  H
  C234     1.0000 0.02260  0.70750  0.37620  Biso   1.000  C
  H245     1.0000 0.97090  0.68600  0.38550  Biso   1.000  H
  H246     1.0000 0.06640  0.75700  0.38440  Biso   1.000  H
  H247     1.0000 0.01430  0.72200  0.35960  Biso   1.000  H
  O112     1.0000 0.81300  0.24900  0.42610  Biso   1.000  O
  O113     1.0000 0.88300  0.19800  0.40600  Biso   1.000  O
  C235     1.0000 0.87400  0.13900  0.42550  Biso   1.000  C
  H248     1.0000 0.89150  0.10010  0.41940  Biso   1.000  H
  H249     1.0000 0.81440  0.10560  0.43050  Biso   1.000  H
  C236     1.0000 0.92500  0.18600  0.44670  Biso   1.000  C
  H250     1.0000 0.89250  0.20290  0.45730  Biso   1.000  H
  H251     1.0000 0.97420  0.23730  0.44070  Biso   1.000  H
  C237     1.0000 0.95430  0.13400  0.46220  Biso   1.000  C
  O114     1.0000 0.96350  0.07870  0.45260  Biso   1.000  O
  O115     1.0000 0.97500  0.16200  0.48360  Biso   1.000  O
  O116     1.0000 0.77400  0.20400  0.41730  Biso   1.000  O
  O117     1.0000 0.89940  0.22010  0.41300  Biso   1.000  O
  C238     1.0000 0.87560  0.16000  0.43360  Biso   1.000  C
  H252     1.0000 0.82890  0.15800  0.44280  Biso   1.000  H
  H253     1.0000 0.85760  0.10390  0.42710  Biso   1.000  H
  C239     1.0000 0.94700  0.18600  0.44990  Biso   1.000  C
  H254     1.0000 0.96330  0.24080  0.45720  Biso   1.000  H
  H255     1.0000 0.99550  0.19200  0.44040  Biso   1.000  H
  C240     1.0000 0.92440  0.11910  0.47090  Biso   1.000  C
  O118     1.0000 0.88390  0.04480  0.46620  Biso   1.000  O
  O119     1.0000 0.95510  0.15610  0.49090  Biso   1.000  O
  C241     1.0000 0.22700  0.70140  0.36050  Biso   1.000  C
  H256     1.0000 0.26650  0.75680  0.36480  Biso   1.000  H
  N14      1.0000 0.16670  0.69280  0.34540  Biso   1.000  N
  C242     1.0000 0.09840  0.61020  0.33920  Biso   1.000  C
  H257     1.0000 0.07330  0.58330  0.35500  Biso   1.000  H
  H258     1.0000 0.05650  0.61960  0.33080  Biso   1.000  H
  C243     1.0000 0.10330  0.54660  0.32470  Biso   1.000  C
  H259     1.0000 0.04800  0.49740  0.32340  Biso   1.000  H
  H260     1.0000 0.12410  0.56830  0.30830  Biso   1.000  H
  H261     1.0000 0.14110  0.53160  0.33270  Biso   1.000  H
  C244     1.0000 0.17050  0.76390  0.33180  Biso   1.000  C
  H262     1.0000 0.15820  0.74900  0.31430  Biso   1.000  H
  H263     1.0000 0.22710  0.81250  0.33300  Biso   1.000  H
  C245     1.0000 0.10940  0.78600  0.34190  Biso   1.000  C
  H264     1.0000 0.11290  0.83280  0.33270  Biso   1.000  H
  H265     1.0000 0.05320  0.73810  0.34050  Biso   1.000  H
  H266     1.0000 0.12200  0.80140  0.35920  Biso   1.000  H
  C246     1.0000 0.53932  0.80746  0.63625  Biso   1.000  C
  C247     1.0000 0.54385  0.83271  0.66263  Biso   1.000  C
  C248     1.0000 0.55109  0.77369  0.67764  Biso   1.000  C
  C249     1.0000 0.52137  0.76011  0.70189  Biso   1.000  C
  C250     1.0000 0.47982  0.80235  0.71089  Biso   1.000  C
  C251     1.0000 0.47258  0.86037  0.69622  Biso   1.000  C
  C252     1.0000 0.50307  0.87328  0.67140  Biso   1.000  C
  C253     1.0000 0.40942  0.74268  0.72650  Biso   1.000  C
  C254     1.0000 0.40954  0.66571  0.72706  Biso   1.000  C
  C255     1.0000 0.48507  0.67679  0.71421  Biso   1.000  C
  C256     1.0000 0.53201  0.62993  0.71917  Biso   1.000  C
  O120     1.0000 0.66227  0.68403  0.69666  Biso   1.000  O
  C257     1.0000 0.62567  0.68013  0.71512  Biso   1.000  C
  O121     1.0000 0.66107  0.72143  0.73539  Biso   1.000  O
  C258     1.0000 0.75217  0.77453  0.73519  Biso   1.000  C
  H267     1.0000 0.76947  0.81973  0.72303  Biso   1.000  H
  H268     1.0000 0.77887  0.74153  0.73103  Biso   1.000  H
  C259     1.0000 0.77537  0.80893  0.76034  Biso   1.000  C
  H269     1.0000 0.76677  0.76383  0.77173  Biso   1.000  H
  H270     1.0000 0.73817  0.82983  0.76553  Biso   1.000  H
  C260     1.0000 0.86577  0.87963  0.76233  Biso   1.000  C
  O122     1.0000 0.91097  0.89803  0.74422  Biso   1.000  O
  O123     1.0000 0.88757  0.91323  0.78333  Biso   1.000  O
  O124     1.0000 0.45697  0.55903  0.75643  Biso   1.000  O
  C261     1.0000 0.50787  0.57123  0.74104  Biso   1.000  C
  O125     1.0000 0.54457  0.52633  0.73853  Biso   1.000  O
  C262     1.0000 0.54487  0.47443  0.75903  Biso   1.000  C
  H271     1.0000 0.54237  0.42353  0.75253  Biso   1.000  H
  H272     1.0000 0.49587  0.45783  0.76953  Biso   1.000  H
  C263     1.0000 0.62197  0.52253  0.77353  Biso   1.000  C
  H273     1.0000 0.62007  0.56833  0.78223  Biso   1.000  H
  H274     1.0000 0.67057  0.54723  0.76243  Biso   1.000  H
  C264     1.0000 0.63207  0.46433  0.79303  Biso   1.000  C
  O126     1.0000 0.57047  0.39573  0.79773  Biso   1.000  O
  O127     1.0000 0.70437  0.49533  0.80233  Biso   1.000  O
  O128     1.0000 0.90397  0.98643  0.70183  Biso   1.000  O
  Zn8      1.0000 0.64351  0.42211  0.84382  Biso   1.000  Zn
  C265     1.0000 0.85837  0.01183  0.70823  Biso   1.000  C
  H275     1.0000 0.87007  0.04293  0.72293  Biso   1.000  H
  N15      1.0000 0.79167  0.99673  0.69483  Biso   1.000  N
  C266     1.0000 0.80197  0.99093  0.66853  Biso   1.000  C
  H276     1.0000 0.76917  0.01383  0.66103  Biso   1.000  H
  H277     1.0000 0.86077  0.03293  0.66543  Biso   1.000  H
  C267     1.0000 0.78707  0.92193  0.65243  Biso   1.000  C
  H278     1.0000 0.80137  0.94203  0.63553  Biso   1.000  H
  H279     1.0000 0.82137  0.89853  0.65773  Biso   1.000  H
  H280     1.0000 0.72827  0.87903  0.65323  Biso   1.000  H
  C268     1.0000 0.71367  0.97743  0.70833  Biso   1.000  C
  H281     1.0000 0.66727  0.92743  0.70063  Biso   1.000  H
  H282     1.0000 0.71907  0.96223  0.72523  Biso   1.000  H
  C269     1.0000 0.68927  0.04083  0.70953  Biso   1.000  C
  H283     1.0000 0.63757  0.01933  0.71883  Biso   1.000  H
  H284     1.0000 0.73307  0.09033  0.71773  Biso   1.000  H
  H285     1.0000 0.68097  0.05533  0.69293  Biso   1.000  H
  O129     1.0000 0.47967  0.58233  0.75943  Biso   1.000  O
  O130     1.0000 0.54967  0.53133  0.73933  Biso   1.000  O
  C270     1.0000 0.54067  0.47233  0.75883  Biso   1.000  C
  H286     1.0000 0.55817  0.43343  0.75273  Biso   1.000  H
  H287     1.0000 0.48107  0.43893  0.76383  Biso   1.000  H
  C271     1.0000 0.59167  0.51933  0.78003  Biso   1.000  C
  H288     1.0000 0.55917  0.53623  0.79063  Biso   1.000  H
  H289     1.0000 0.64087  0.57063  0.77403  Biso   1.000  H
  C272     1.0000 0.62097  0.46733  0.79553  Biso   1.000  C
  O131     1.0000 0.63017  0.41203  0.78593  Biso   1.000  O
  O132     1.0000 0.64167  0.49533  0.81693  Biso   1.000  O
  O133     1.0000 0.44067  0.53733  0.75063  Biso   1.000  O
  O134     1.0000 0.56607  0.55343  0.74633  Biso   1.000  O
  C273     1.0000 0.54227  0.49333  0.76693  Biso   1.000  C
  H290     1.0000 0.49557  0.49133  0.77613  Biso   1.000  H
  H291     1.0000 0.52427  0.43723  0.76043  Biso   1.000  H
  C274     1.0000 0.61367  0.51933  0.78323  Biso   1.000  C
  H292     1.0000 0.62997  0.57413  0.79053  Biso   1.000  H
  H293     1.0000 0.66217  0.52533  0.77373  Biso   1.000  H
  C275     1.0000 0.59107  0.45243  0.80423  Biso   1.000  C
  O135     1.0000 0.55057  0.37813  0.79953  Biso   1.000  O
  O136     1.0000 0.62177  0.48943  0.82423  Biso   1.000  O
  C276     1.0000 0.89367  0.03473  0.69383  Biso   1.000  C
  H294     1.0000 0.93317  0.09013  0.69813  Biso   1.000  H
  N16      1.0000 0.83337  0.02613  0.67873  Biso   1.000  N
  C277     1.0000 0.76507  0.94353  0.67253  Biso   1.000  C
  H295     1.0000 0.73997  0.91663  0.68833  Biso   1.000  H
  H296     1.0000 0.72317  0.95293  0.66413  Biso   1.000  H
  C278     1.0000 0.76997  0.87993  0.65803  Biso   1.000  C
  H297     1.0000 0.71467  0.83073  0.65673  Biso   1.000  H
  H298     1.0000 0.79077  0.90163  0.64163  Biso   1.000  H
  H299     1.0000 0.80777  0.86493  0.66603  Biso   1.000  H
  C279     1.0000 0.83717  0.09723  0.66513  Biso   1.000  C
  H300     1.0000 0.82487  0.08233  0.64763  Biso   1.000  H
  H301     1.0000 0.89377  0.14583  0.66633  Biso   1.000  H
  C280     1.0000 0.77607  0.11933  0.67523  Biso   1.000  C
  H302     1.0000 0.77957  0.16613  0.66603  Biso   1.000  H
  H303     1.0000 0.71987  0.07143  0.67383  Biso   1.000  H
  H304     1.0000 0.78867  0.13473  0.69253  Biso   1.000  H
  C281     1.0000 0.20598  0.14080  0.96959  Biso   1.000  C
  C282     1.0000 0.21051  0.16605  0.99597  Biso   1.000  C
  C283     1.0000 0.21775  0.10703  0.01098  Biso   1.000  C
  C284     1.0000 0.18803  0.09345  0.03523  Biso   1.000  C
  C285     1.0000 0.14648  0.13569  0.04423  Biso   1.000  C
  C286     1.0000 0.13924  0.19371  0.02956  Biso   1.000  C
  C287     1.0000 0.16973  0.20662  0.00474  Biso   1.000  C
  C288     1.0000 0.07608  0.07602  0.05984  Biso   1.000  C
  C289     1.0000 0.07620  0.99905  0.06040  Biso   1.000  C
  C290     1.0000 0.15173  0.01013  0.04755  Biso   1.000  C
  C291     1.0000 0.19867  0.96327  0.05251  Biso   1.000  C
  O137     1.0000 0.32893  0.01737  0.03000  Biso   1.000  O
  C292     1.0000 0.29233  0.01347  0.04846  Biso   1.000  C
  O138     1.0000 0.32773  0.05477  0.06873  Biso   1.000  O
  C293     1.0000 0.41883  0.10787  0.06853  Biso   1.000  C
  H305     1.0000 0.43613  0.15307  0.05637  Biso   1.000  H
  H306     1.0000 0.44553  0.07487  0.06437  Biso   1.000  H
  C294     1.0000 0.44203  0.14227  0.09368  Biso   1.000  C
  H307     1.0000 0.43343  0.09717  0.10507  Biso   1.000  H
  H308     1.0000 0.40483  0.16317  0.09887  Biso   1.000  H
  C295     1.0000 0.53243  0.21297  0.09567  Biso   1.000  C
  O139     1.0000 0.57763  0.23137  0.07756  Biso   1.000  O
  O140     1.0000 0.55423  0.24657  0.11667  Biso   1.000  O
  O141     1.0000 0.12363  0.89237  0.08977  Biso   1.000  O
  C296     1.0000 0.17453  0.90457  0.07438  Biso   1.000  C
  O142     1.0000 0.21123  0.85967  0.07187  Biso   1.000  O
  C297     1.0000 0.21153  0.80777  0.09237  Biso   1.000  C
  H309     1.0000 0.20903  0.75687  0.08587  Biso   1.000  H
  H310     1.0000 0.16253  0.79117  0.10287  Biso   1.000  H
  C298     1.0000 0.28863  0.85587  0.10687  Biso   1.000  C
  H311     1.0000 0.28673  0.90167  0.11557  Biso   1.000  H
  H312     1.0000 0.33723  0.88057  0.09577  Biso   1.000  H
  C299     1.0000 0.29873  0.79767  0.12637  Biso   1.000  C
  O143     1.0000 0.23713  0.72907  0.13107  Biso   1.000  O
  O144     1.0000 0.37103  0.82867  0.13567  Biso   1.000  O
  O145     1.0000 0.57063  0.31977  0.03517  Biso   1.000  O
  Zn9      1.0000 0.31017  0.75545  0.17716  Biso   1.000  Zn
  C300     1.0000 0.52503  0.34517  0.04157  Biso   1.000  C
  H313     1.0000 0.53673  0.37627  0.05627  Biso   1.000  H
  N17      1.0000 0.45833  0.33007  0.02817  Biso   1.000  N
  C301     1.0000 0.46863  0.32427  0.00187  Biso   1.000  C
  H314     1.0000 0.43583  0.34717  0.99437  Biso   1.000  H
  H315     1.0000 0.52743  0.36627  0.99877  Biso   1.000  H
  C302     1.0000 0.45373  0.25527  0.98577  Biso   1.000  C
  H316     1.0000 0.46803  0.27537  0.96887  Biso   1.000  H
  H317     1.0000 0.48803  0.23187  0.99107  Biso   1.000  H
  H318     1.0000 0.39493  0.21237  0.98657  Biso   1.000  H
  C303     1.0000 0.38033  0.31077  0.04167  Biso   1.000  C
  H319     1.0000 0.33393  0.26077  0.03397  Biso   1.000  H
  H320     1.0000 0.38573  0.29557  0.05857  Biso   1.000  H
  C304     1.0000 0.35593  0.37417  0.04287  Biso   1.000  C
  H321     1.0000 0.30423  0.35267  0.05217  Biso   1.000  H
  H322     1.0000 0.39973  0.42367  0.05107  Biso   1.000  H
  H323     1.0000 0.34763  0.38867  0.02627  Biso   1.000  H
  O146     1.0000 0.14633  0.91567  0.09277  Biso   1.000  O
  O147     1.0000 0.21633  0.86467  0.07267  Biso   1.000  O
  C305     1.0000 0.20733  0.80567  0.09217  Biso   1.000  C
  H324     1.0000 0.22483  0.76677  0.08607  Biso   1.000  H
  H325     1.0000 0.14773  0.77227  0.09717  Biso   1.000  H
  C306     1.0000 0.25833  0.85267  0.11337  Biso   1.000  C
  H326     1.0000 0.22583  0.86957  0.12397  Biso   1.000  H
  H327     1.0000 0.30753  0.90397  0.10737  Biso   1.000  H
  C307     1.0000 0.28763  0.80067  0.12887  Biso   1.000  C
  O148     1.0000 0.29683  0.74537  0.11927  Biso   1.000  O
  O149     1.0000 0.30833  0.82867  0.15027  Biso   1.000  O
  O150     1.0000 0.10733  0.87067  0.08397  Biso   1.000  O
  O151     1.0000 0.23273  0.88677  0.07967  Biso   1.000  O
  C308     1.0000 0.20893  0.82667  0.10027  Biso   1.000  C
  H328     1.0000 0.16223  0.82467  0.10947  Biso   1.000  H
  H329     1.0000 0.19093  0.77057  0.09377  Biso   1.000  H
  C309     1.0000 0.28033  0.85267  0.11657  Biso   1.000  C
  H330     1.0000 0.29663  0.90747  0.12387  Biso   1.000  H
  H331     1.0000 0.32883  0.85867  0.10707  Biso   1.000  H
  C310     1.0000 0.25773  0.78577  0.13757  Biso   1.000  C
  O152     1.0000 0.21723  0.71147  0.13287  Biso   1.000  O
  O153     1.0000 0.28843  0.82277  0.15757  Biso   1.000  O
  C311     1.0000 0.56033  0.36807  0.02717  Biso   1.000  C
  H332     1.0000 0.59983  0.42347  0.03147  Biso   1.000  H
  N18      1.0000 0.50003  0.35947  0.01207  Biso   1.000  N
  C312     1.0000 0.43173  0.27687  0.00587  Biso   1.000  C
  H333     1.0000 0.40663  0.24997  0.02167  Biso   1.000  H
  H334     1.0000 0.38983  0.28627  0.99747  Biso   1.000  H
  C313     1.0000 0.43663  0.21327  0.99137  Biso   1.000  C
  H335     1.0000 0.38133  0.16407  0.99007  Biso   1.000  H
  H336     1.0000 0.45743  0.23497  0.97497  Biso   1.000  H
  H337     1.0000 0.47443  0.19827  0.99937  Biso   1.000  H
  C314     1.0000 0.50383  0.43057  0.99847  Biso   1.000  C
  H338     1.0000 0.49153  0.41567  0.98097  Biso   1.000  H
  H339     1.0000 0.56043  0.47917  0.99967  Biso   1.000  H
  C315     1.0000 0.44273  0.45267  0.00857  Biso   1.000  C
  H340     1.0000 0.44623  0.49947  0.99937  Biso   1.000  H
  H341     1.0000 0.38653  0.40477  0.00717  Biso   1.000  H
  H342     1.0000 0.45533  0.46807  0.02587  Biso   1.000  H
  C316     1.0000 0.47413  0.60148  0.69708  Biso   1.000  C
  C317     1.0000 0.49938  0.62220  0.67070  Biso   1.000  C
  C318     1.0000 0.44036  0.55594  0.65569  Biso   1.000  C
  C319     1.0000 0.42678  0.57208  0.63144  Biso   1.000  C
  C320     1.0000 0.46902  0.65587  0.62244  Biso   1.000  C
  C321     1.0000 0.52704  0.72113  0.63711  Biso   1.000  C
  C322     1.0000 0.53995  0.70355  0.66193  Biso   1.000  C
  C323     1.0000 0.40935  0.66660  0.60683  Biso   1.000  C
  C324     1.0000 0.33238  0.58951  0.60627  Biso   1.000  C
  C325     1.0000 0.34346  0.52506  0.61912  Biso   1.000  C
  C326     1.0000 0.29660  0.43126  0.61416  Biso   1.000  C
  O154     1.0000 0.35070  0.35510  0.63667  Biso   1.000  O
  C327     1.0000 0.34680  0.38780  0.61821  Biso   1.000  C
  O155     1.0000 0.38810  0.39370  0.59794  Biso   1.000  O
  C328     1.0000 0.44120  0.35570  0.59814  Biso   1.000  C
  H343     1.0000 0.48640  0.38360  0.61030  Biso   1.000  H
  H344     1.0000 0.40820  0.29600  0.60230  Biso   1.000  H
  C329     1.0000 0.47560  0.36690  0.57299  Biso   1.000  C
  H345     1.0000 0.43050  0.33040  0.56160  Biso   1.000  H
  H346     1.0000 0.49650  0.42500  0.56780  Biso   1.000  H
  C330     1.0000 0.54630  0.34720  0.57100  Biso   1.000  C
  O156     1.0000 0.56470  0.32040  0.58911  Biso   1.000  O
  O157     1.0000 0.57990  0.35900  0.55000  Biso   1.000  O
  O158     1.0000 0.22570  0.43540  0.57690  Biso   1.000  O
  C331     1.0000 0.23790  0.39670  0.59229  Biso   1.000  C
  O159     1.0000 0.19300  0.31510  0.59480  Biso   1.000  O
  C332     1.0000 0.14110  0.26290  0.57430  Biso   1.000  C
  H347     1.0000 0.09020  0.21450  0.58080  Biso   1.000  H
  H348     1.0000 0.12450  0.29530  0.56380  Biso   1.000  H
  C333     1.0000 0.18920  0.23390  0.55980  Biso   1.000  C
  H349     1.0000 0.23500  0.28160  0.55110  Biso   1.000  H
  H350     1.0000 0.21390  0.21000  0.57090  Biso   1.000  H
  C334     1.0000 0.13100  0.16560  0.54030  Biso   1.000  C
  O160     1.0000 0.06240  0.15860  0.53560  Biso   1.000  O
  O161     1.0000 0.16200  0.12430  0.53100  Biso   1.000  O
  O162     1.0000 0.65310  0.41580  0.63150  Biso   1.000  O
  Zn10     1.0000 0.08878  0.11194  0.48951  Biso   1.000  Zn
  C335     1.0000 0.67850  0.48680  0.62510  Biso   1.000  C
  H351     1.0000 0.70960  0.50620  0.61040  Biso   1.000  H
  N19      1.0000 0.66340  0.53840  0.63850  Biso   1.000  N
  C336     1.0000 0.65760  0.52230  0.66480  Biso   1.000  C
  H352     1.0000 0.68050  0.57800  0.67230  Biso   1.000  H
  H353     1.0000 0.69960  0.50550  0.66790  Biso   1.000  H
  C337     1.0000 0.58860  0.46820  0.68090  Biso   1.000  C
  H354     1.0000 0.60870  0.47400  0.69780  Biso   1.000  H
  H355     1.0000 0.56520  0.41050  0.67560  Biso   1.000  H
  H356     1.0000 0.54570  0.48410  0.68010  Biso   1.000  H
  C338     1.0000 0.64410  0.59710  0.62500  Biso   1.000  C
  H357     1.0000 0.59410  0.59350  0.63270  Biso   1.000  H
  H358     1.0000 0.62890  0.57650  0.60810  Biso   1.000  H
  C339     1.0000 0.70750  0.68490  0.62380  Biso   1.000  C
  H359     1.0000 0.68600  0.71510  0.61450  Biso   1.000  H
  H360     1.0000 0.75700  0.69060  0.61560  Biso   1.000  H
  H361     1.0000 0.72200  0.70770  0.64040  Biso   1.000  H
  O163     1.0000 0.24900  0.43600  0.57390  Biso   1.000  O
  O164     1.0000 0.19800  0.31500  0.59400  Biso   1.000  O
  C340     1.0000 0.13900  0.26500  0.57450  Biso   1.000  C
  H362     1.0000 0.10010  0.20860  0.58060  Biso   1.000  H
  H363     1.0000 0.10560  0.29120  0.56950  Biso   1.000  H
  C341     1.0000 0.18600  0.26100  0.55330  Biso   1.000  C
  H364     1.0000 0.20290  0.31040  0.54270  Biso   1.000  H
  H365     1.0000 0.23730  0.26310  0.55930  Biso   1.000  H
  C342     1.0000 0.13400  0.17970  0.53780  Biso   1.000  C
  O165     1.0000 0.07870  0.11520  0.54740  Biso   1.000  O
  O166     1.0000 0.16200  0.18700  0.51640  Biso   1.000  O
  O167     1.0000 0.20400  0.43000  0.58270  Biso   1.000  O
  O168     1.0000 0.22010  0.32070  0.58700  Biso   1.000  O
  C343     1.0000 0.16000  0.28440  0.56640  Biso   1.000  C
  H366     1.0000 0.15800  0.32910  0.55720  Biso   1.000  H
  H367     1.0000 0.10390  0.24630  0.57290  Biso   1.000  H
  C344     1.0000 0.18600  0.23900  0.55010  Biso   1.000  C
  H368     1.0000 0.24080  0.27750  0.54280  Biso   1.000  H
  H369     1.0000 0.19200  0.19650  0.55960  Biso   1.000  H
  C345     1.0000 0.11910  0.19470  0.52910  Biso   1.000  C
  O169     1.0000 0.04480  0.16090  0.53380  Biso   1.000  O
  O170     1.0000 0.15610  0.20100  0.50910  Biso   1.000  O
  C346     1.0000 0.70140  0.47440  0.63950  Biso   1.000  C
  H370     1.0000 0.75680  0.49030  0.63520  Biso   1.000  H
  N20      1.0000 0.69280  0.52610  0.65460  Biso   1.000  N
  C347     1.0000 0.61020  0.51180  0.66080  Biso   1.000  C
  H371     1.0000 0.58330  0.51000  0.64500  Biso   1.000  H
  H372     1.0000 0.61960  0.56310  0.66920  Biso   1.000  H
  C348     1.0000 0.54660  0.44330  0.67530  Biso   1.000  C
  H373     1.0000 0.49740  0.44940  0.67660  Biso   1.000  H
  H374     1.0000 0.56830  0.44420  0.69170  Biso   1.000  H
  H375     1.0000 0.53160  0.39050  0.66730  Biso   1.000  H
  C349     1.0000 0.76390  0.59340  0.66820  Biso   1.000  C
  H376     1.0000 0.74900  0.59080  0.68570  Biso   1.000  H
  H377     1.0000 0.81250  0.58540  0.66700  Biso   1.000  H
  C350     1.0000 0.78600  0.67660  0.65810  Biso   1.000  C
  H378     1.0000 0.83280  0.71990  0.66730  Biso   1.000  H
  H379     1.0000 0.73810  0.68490  0.65950  Biso   1.000  H
  H380     1.0000 0.80140  0.67940  0.64080  Biso   1.000  H
  C351     1.0000 0.14080  0.93481  0.03041  Biso   1.000  C
  C352     1.0000 0.16605  0.95553  0.00403  Biso   1.000  C
  C353     1.0000 0.10703  0.88927  0.98902  Biso   1.000  C
  C354     1.0000 0.09345  0.90541  0.96477  Biso   1.000  C
  C355     1.0000 0.13569  0.98920  0.95577  Biso   1.000  C
  C356     1.0000 0.19371  0.05446  0.97044  Biso   1.000  C
  C357     1.0000 0.20662  0.03688  0.99526  Biso   1.000  C
  C358     1.0000 0.07602  0.99993  0.94016  Biso   1.000  C
  C359     1.0000 0.99905  0.92284  0.93960  Biso   1.000  C
  C360     1.0000 0.01013  0.85839  0.95245  Biso   1.000  C
  C361     1.0000 0.96327  0.76459  0.94749  Biso   1.000  C
  O171     1.0000 0.01737  0.68843  0.97000  Biso   1.000  O
  C362     1.0000 0.01347  0.72113  0.95154  Biso   1.000  C
  O172     1.0000 0.05477  0.72703  0.93127  Biso   1.000  O
  C363     1.0000 0.10787  0.68903  0.93147  Biso   1.000  C
  H381     1.0000 0.15307  0.71693  0.94363  Biso   1.000  H
  H382     1.0000 0.07487  0.62933  0.93563  Biso   1.000  H
  C364     1.0000 0.14227  0.70023  0.90632  Biso   1.000  C
  H383     1.0000 0.09717  0.66373  0.89493  Biso   1.000  H
  H384     1.0000 0.16317  0.75833  0.90113  Biso   1.000  H
  C365     1.0000 0.21297  0.68053  0.90433  Biso   1.000  C
  O173     1.0000 0.23137  0.65373  0.92244  Biso   1.000  O
  O174     1.0000 0.24657  0.69233  0.88333  Biso   1.000  O
  O175     1.0000 0.89237  0.76873  0.91023  Biso   1.000  O
  C366     1.0000 0.90457  0.73003  0.92562  Biso   1.000  C
  O176     1.0000 0.85967  0.64843  0.92813  Biso   1.000  O
  C367     1.0000 0.80777  0.59623  0.90763  Biso   1.000  C
  H385     1.0000 0.75687  0.54783  0.91413  Biso   1.000  H
  H386     1.0000 0.79117  0.62863  0.89713  Biso   1.000  H
  C368     1.0000 0.85587  0.56723  0.89313  Biso   1.000  C
  H387     1.0000 0.90167  0.61493  0.88443  Biso   1.000  H
  H388     1.0000 0.88057  0.54333  0.90423  Biso   1.000  H
  C369     1.0000 0.79767  0.49893  0.87363  Biso   1.000  C
  O177     1.0000 0.72907  0.49193  0.86893  Biso   1.000  O
  O178     1.0000 0.82867  0.45763  0.86433  Biso   1.000  O
  O179     1.0000 0.31977  0.74913  0.96483  Biso   1.000  O
  Zn11     1.0000 0.75545  0.44527  0.82284  Biso   1.000  Zn
  C370     1.0000 0.34517  0.82013  0.95843  Biso   1.000  C
  H389     1.0000 0.37627  0.83953  0.94373  Biso   1.000  H
  N21      1.0000 0.33007  0.87173  0.97183  Biso   1.000  N
  C371     1.0000 0.32427  0.85563  0.99813  Biso   1.000  C
  H390     1.0000 0.34717  0.91133  0.00563  Biso   1.000  H
  H391     1.0000 0.36627  0.83883  0.00123  Biso   1.000  H
  C372     1.0000 0.25527  0.80153  0.01423  Biso   1.000  C
  H392     1.0000 0.27537  0.80733  0.03113  Biso   1.000  H
  H393     1.0000 0.23187  0.74383  0.00893  Biso   1.000  H
  H394     1.0000 0.21237  0.81743  0.01343  Biso   1.000  H
  C373     1.0000 0.31077  0.93043  0.95833  Biso   1.000  C
  H395     1.0000 0.26077  0.92683  0.96603  Biso   1.000  H
  H396     1.0000 0.29557  0.90983  0.94143  Biso   1.000  H
  C374     1.0000 0.37417  0.01823  0.95713  Biso   1.000  C
  H397     1.0000 0.35267  0.04843  0.94783  Biso   1.000  H
  H398     1.0000 0.42367  0.02393  0.94893  Biso   1.000  H
  H399     1.0000 0.38867  0.04103  0.97373  Biso   1.000  H
  O180     1.0000 0.91567  0.76933  0.90723  Biso   1.000  O
  O181     1.0000 0.86467  0.64833  0.92733  Biso   1.000  O
  C375     1.0000 0.80567  0.59833  0.90783  Biso   1.000  C
  H400     1.0000 0.76677  0.54193  0.91393  Biso   1.000  H
  H401     1.0000 0.77227  0.62453  0.90283  Biso   1.000  H
  C376     1.0000 0.85267  0.59433  0.88663  Biso   1.000  C
  H402     1.0000 0.86957  0.64373  0.87603  Biso   1.000  H
  H403     1.0000 0.90397  0.59643  0.89263  Biso   1.000  H
  C377     1.0000 0.80067  0.51303  0.87113  Biso   1.000  C
  O182     1.0000 0.74537  0.44853  0.88073  Biso   1.000  O
  O183     1.0000 0.82867  0.52033  0.84973  Biso   1.000  O
  O184     1.0000 0.87067  0.76333  0.91603  Biso   1.000  O
  O185     1.0000 0.88677  0.65403  0.92033  Biso   1.000  O
  C378     1.0000 0.82667  0.61773  0.89973  Biso   1.000  C
  H404     1.0000 0.82467  0.66243  0.89053  Biso   1.000  H
  H405     1.0000 0.77057  0.57963  0.90623  Biso   1.000  H
  C379     1.0000 0.85267  0.57233  0.88343  Biso   1.000  C
  H406     1.0000 0.90747  0.61083  0.87613  Biso   1.000  H
  H407     1.0000 0.85867  0.52983  0.89293  Biso   1.000  H
  C380     1.0000 0.78577  0.52803  0.86243  Biso   1.000  C
  O186     1.0000 0.71147  0.49423  0.86713  Biso   1.000  O
  O187     1.0000 0.82277  0.53433  0.84243  Biso   1.000  O
  C381     1.0000 0.36807  0.80773  0.97283  Biso   1.000  C
  H408     1.0000 0.42347  0.82363  0.96853  Biso   1.000  H
  N22      1.0000 0.35947  0.85943  0.98793  Biso   1.000  N
  C382     1.0000 0.27687  0.84513  0.99413  Biso   1.000  C
  H409     1.0000 0.24997  0.84333  0.97833  Biso   1.000  H
  H410     1.0000 0.28627  0.89643  0.00253  Biso   1.000  H
  C383     1.0000 0.21327  0.77663  0.00863  Biso   1.000  C
  H411     1.0000 0.16407  0.78273  0.00993  Biso   1.000  H
  H412     1.0000 0.23497  0.77753  0.02503  Biso   1.000  H
  H413     1.0000 0.19827  0.72383  0.00063  Biso   1.000  H
  C384     1.0000 0.43057  0.92673  0.00153  Biso   1.000  C
  H414     1.0000 0.41567  0.92413  0.01903  Biso   1.000  H
  H415     1.0000 0.47917  0.91873  0.00033  Biso   1.000  H
  C385     1.0000 0.45267  0.00993  0.99143  Biso   1.000  C
  H416     1.0000 0.49947  0.05323  0.00063  Biso   1.000  H
  H417     1.0000 0.40477  0.01823  0.99283  Biso   1.000  H
  H418     1.0000 0.46807  0.01273  0.97413  Biso   1.000  H
  C386     1.0000 0.80746  0.26815  0.36375  Biso   1.000  C
  C387     1.0000 0.83271  0.28887  0.33737  Biso   1.000  C
  C388     1.0000 0.77369  0.22261  0.32236  Biso   1.000  C
  C389     1.0000 0.76011  0.23875  0.29811  Biso   1.000  C
  C390     1.0000 0.80235  0.32254  0.28911  Biso   1.000  C
  C391     1.0000 0.86037  0.38780  0.30378  Biso   1.000  C
  C392     1.0000 0.87328  0.37022  0.32860  Biso   1.000  C
  C393     1.0000 0.74268  0.33327  0.27350  Biso   1.000  C
  C394     1.0000 0.66571  0.25618  0.27294  Biso   1.000  C
  C395     1.0000 0.67679  0.19173  0.28579  Biso   1.000  C
  C396     1.0000 0.62993  0.09793  0.28083  Biso   1.000  C
  O188     1.0000 0.68403  0.02177  0.30334  Biso   1.000  O
  C397     1.0000 0.68013  0.05447  0.28488  Biso   1.000  C
  O189     1.0000 0.72143  0.06037  0.26461  Biso   1.000  O
  C398     1.0000 0.77453  0.02237  0.26481  Biso   1.000  C
  H419     1.0000 0.81973  0.05027  0.27697  Biso   1.000  H
  H420     1.0000 0.74153  0.96267  0.26897  Biso   1.000  H
  C399     1.0000 0.80893  0.03357  0.23966  Biso   1.000  C
  H421     1.0000 0.76383  0.99707  0.22827  Biso   1.000  H
  H422     1.0000 0.82983  0.09167  0.23447  Biso   1.000  H
  C400     1.0000 0.87963  0.01387  0.23767  Biso   1.000  C
  O190     1.0000 0.89803  0.98707  0.25578  Biso   1.000  O
  O191     1.0000 0.91323  0.02567  0.21667  Biso   1.000  O
  O192     1.0000 0.55903  0.10207  0.24357  Biso   1.000  O
  C401     1.0000 0.57123  0.06337  0.25896  Biso   1.000  C
  O193     1.0000 0.52633  0.98177  0.26147  Biso   1.000  O
  C402     1.0000 0.47443  0.92957  0.24097  Biso   1.000  C
  H423     1.0000 0.42353  0.88117  0.24747  Biso   1.000  H
  H424     1.0000 0.45783  0.96197  0.23047  Biso   1.000  H
  C403     1.0000 0.52253  0.90057  0.22647  Biso   1.000  C
  H425     1.0000 0.56833  0.94827  0.21777  Biso   1.000  H
  H426     1.0000 0.54723  0.87667  0.23757  Biso   1.000  H
  C404     1.0000 0.46433  0.83227  0.20697  Biso   1.000  C
  O194     1.0000 0.39573  0.82527  0.20227  Biso   1.000  O
  O195     1.0000 0.49533  0.79097  0.19767  Biso   1.000  O
  O196     1.0000 0.98643  0.08247  0.29817  Biso   1.000  O
  Zn12     1.0000 0.42211  0.77861  0.15618  Biso   1.000  Zn
  C405     1.0000 0.01183  0.15347  0.29177  Biso   1.000  C
  H427     1.0000 0.04293  0.17287  0.27707  Biso   1.000  H
  N23      1.0000 0.99673  0.20507  0.30517  Biso   1.000  N
  C406     1.0000 0.99093  0.18897  0.33147  Biso   1.000  C
  H428     1.0000 0.01383  0.24467  0.33897  Biso   1.000  H
  H429     1.0000 0.03293  0.17217  0.33457  Biso   1.000  H
  C407     1.0000 0.92193  0.13487  0.34757  Biso   1.000  C
  H430     1.0000 0.94203  0.14067  0.36447  Biso   1.000  H
  H431     1.0000 0.89853  0.07717  0.34227  Biso   1.000  H
  H432     1.0000 0.87903  0.15077  0.34677  Biso   1.000  H
  C408     1.0000 0.97743  0.26377  0.29167  Biso   1.000  C
  H433     1.0000 0.92743  0.26017  0.29937  Biso   1.000  H
  H434     1.0000 0.96223  0.24317  0.27477  Biso   1.000  H
  C409     1.0000 0.04083  0.35157  0.29047  Biso   1.000  C
  H435     1.0000 0.01933  0.38177  0.28117  Biso   1.000  H
  H436     1.0000 0.09033  0.35727  0.28227  Biso   1.000  H
  H437     1.0000 0.05533  0.37437  0.30707  Biso   1.000  H
  O197     1.0000 0.58233  0.10267  0.24057  Biso   1.000  O
  O198     1.0000 0.53133  0.98167  0.26067  Biso   1.000  O
  C410     1.0000 0.47233  0.93167  0.24117  Biso   1.000  C
  H438     1.0000 0.43343  0.87527  0.24727  Biso   1.000  H
  H439     1.0000 0.43893  0.95787  0.23617  Biso   1.000  H
  C411     1.0000 0.51933  0.92767  0.21997  Biso   1.000  C
  H440     1.0000 0.53623  0.97707  0.20937  Biso   1.000  H
  H441     1.0000 0.57063  0.92977  0.22597  Biso   1.000  H
  C412     1.0000 0.46733  0.84637  0.20447  Biso   1.000  C
  O199     1.0000 0.41203  0.78187  0.21407  Biso   1.000  O
  O200     1.0000 0.49533  0.85367  0.18307  Biso   1.000  O
  O201     1.0000 0.53733  0.09667  0.24937  Biso   1.000  O
  O202     1.0000 0.55343  0.98737  0.25367  Biso   1.000  O
  C413     1.0000 0.49333  0.95107  0.23307  Biso   1.000  C
  H442     1.0000 0.49133  0.99577  0.22387  Biso   1.000  H
  H443     1.0000 0.43723  0.91297  0.23957  Biso   1.000  H
  C414     1.0000 0.51933  0.90567  0.21677  Biso   1.000  C
  H444     1.0000 0.57413  0.94417  0.20947  Biso   1.000  H
  H445     1.0000 0.52533  0.86317  0.22627  Biso   1.000  H
  C415     1.0000 0.45243  0.86137  0.19577  Biso   1.000  C
  O203     1.0000 0.37813  0.82757  0.20047  Biso   1.000  O
  O204     1.0000 0.48943  0.86767  0.17577  Biso   1.000  O
  C416     1.0000 0.03473  0.14107  0.30617  Biso   1.000  C
  H446     1.0000 0.09013  0.15697  0.30187  Biso   1.000  H
  N24      1.0000 0.02613  0.19277  0.32127  Biso   1.000  N
  C417     1.0000 0.94353  0.17847  0.32747  Biso   1.000  C
  H447     1.0000 0.91663  0.17667  0.31167  Biso   1.000  H
  H448     1.0000 0.95293  0.22977  0.33587  Biso   1.000  H
  C418     1.0000 0.87993  0.10997  0.34197  Biso   1.000  C
  H449     1.0000 0.83073  0.11607  0.34327  Biso   1.000  H
  H450     1.0000 0.90163  0.11087  0.35837  Biso   1.000  H
  H451     1.0000 0.86493  0.05717  0.33397  Biso   1.000  H
  C419     1.0000 0.09723  0.26007  0.33487  Biso   1.000  C
  H452     1.0000 0.08233  0.25747  0.35237  Biso   1.000  H
  H453     1.0000 0.14583  0.25207  0.33367  Biso   1.000  H
  C420     1.0000 0.11933  0.34327  0.32477  Biso   1.000  C
  H454     1.0000 0.16613  0.38657  0.33397  Biso   1.000  H
  H455     1.0000 0.07143  0.35157  0.32617  Biso   1.000  H
  H456     1.0000 0.13473  0.34607  0.30747  Biso   1.000  H
  C421     1.0000 0.39852  0.87265  0.69708  Biso   1.000  C
  C422     1.0000 0.37780  0.87718  0.67070  Biso   1.000  C
  C423     1.0000 0.44406  0.88442  0.65569  Biso   1.000  C
  C424     1.0000 0.42792  0.85470  0.63144  Biso   1.000  C
  C425     1.0000 0.34413  0.81315  0.62244  Biso   1.000  C
  C426     1.0000 0.27887  0.80591  0.63711  Biso   1.000  C
  C427     1.0000 0.29645  0.83640  0.66193  Biso   1.000  C
  C428     1.0000 0.33340  0.74275  0.60683  Biso   1.000  C
  C429     1.0000 0.41049  0.74287  0.60627  Biso   1.000  C
  C430     1.0000 0.47494  0.81840  0.61912  Biso   1.000  C
  C431     1.0000 0.56874  0.86534  0.61416  Biso   1.000  C
  O205     1.0000 0.64490  0.99560  0.63667  Biso   1.000  O
  C432     1.0000 0.61220  0.95900  0.61821  Biso   1.000  C
  O206     1.0000 0.60630  0.99440  0.59794  Biso   1.000  O
  C433     1.0000 0.64430  0.08550  0.59814  Biso   1.000  C
  H457     1.0000 0.61640  0.10280  0.61030  Biso   1.000  H
  H458     1.0000 0.70400  0.11220  0.60230  Biso   1.000  H
  C434     1.0000 0.63310  0.10870  0.57299  Biso   1.000  C
  H459     1.0000 0.66960  0.10010  0.56160  Biso   1.000  H
  H460     1.0000 0.57500  0.07150  0.56780  Biso   1.000  H
  C435     1.0000 0.65280  0.19910  0.57100  Biso   1.000  C
  O207     1.0000 0.67960  0.24430  0.58911  Biso   1.000  O
  O208     1.0000 0.64100  0.22090  0.55000  Biso   1.000  O
  O209     1.0000 0.56460  0.79030  0.57690  Biso   1.000  O
  C436     1.0000 0.60330  0.84120  0.59229  Biso   1.000  C
  O210     1.0000 0.68490  0.87790  0.59480  Biso   1.000  O
  C437     1.0000 0.73710  0.87820  0.57430  Biso   1.000  C
  H461     1.0000 0.78550  0.87570  0.58080  Biso   1.000  H
  H462     1.0000 0.70470  0.82920  0.56380  Biso   1.000  H
  C438     1.0000 0.76610  0.95530  0.55980  Biso   1.000  C
  H463     1.0000 0.71840  0.95340  0.55110  Biso   1.000  H
  H464     1.0000 0.79000  0.00390  0.57090  Biso   1.000  H
  C439     1.0000 0.83440  0.96540  0.54030  Biso   1.000  C
  O211     1.0000 0.84140  0.90380  0.53560  Biso   1.000  O
  O212     1.0000 0.87570  0.03770  0.53100  Biso   1.000  O
  O213     1.0000 0.58420  0.23730  0.63150  Biso   1.000  O
  Zn13     1.0000 0.88806  0.97684  0.48951  Biso   1.000  Zn
  C440     1.0000 0.51320  0.19170  0.62510  Biso   1.000  C
  H465     1.0000 0.49380  0.20340  0.61040  Biso   1.000  H
  N25      1.0000 0.46160  0.12500  0.63850  Biso   1.000  N
  C441     1.0000 0.47770  0.13530  0.66480  Biso   1.000  C
  H466     1.0000 0.42200  0.10250  0.67230  Biso   1.000  H
  H467     1.0000 0.49450  0.19410  0.66790  Biso   1.000  H
  C442     1.0000 0.53180  0.12040  0.68090  Biso   1.000  C
  H468     1.0000 0.52600  0.13470  0.69780  Biso   1.000  H
  H469     1.0000 0.58950  0.15470  0.67560  Biso   1.000  H
  H470     1.0000 0.51590  0.06160  0.68010  Biso   1.000  H
  C443     1.0000 0.40290  0.04700  0.62500  Biso   1.000  C
  H471     1.0000 0.40650  0.00060  0.63270  Biso   1.000  H
  H472     1.0000 0.42350  0.05240  0.60810  Biso   1.000  H
  C444     1.0000 0.31510  0.02260  0.62380  Biso   1.000  C
  H473     1.0000 0.28490  0.97090  0.61450  Biso   1.000  H
  H474     1.0000 0.30940  0.06640  0.61560  Biso   1.000  H
  H475     1.0000 0.29230  0.01430  0.64040  Biso   1.000  H
  O214     1.0000 0.56400  0.81300  0.57390  Biso   1.000  O
  O215     1.0000 0.68500  0.88300  0.59400  Biso   1.000  O
  C445     1.0000 0.73500  0.87400  0.57450  Biso   1.000  C
  H476     1.0000 0.79140  0.89150  0.58060  Biso   1.000  H
  H477     1.0000 0.70880  0.81440  0.56950  Biso   1.000  H
  C446     1.0000 0.73900  0.92500  0.55330  Biso   1.000  C
  H478     1.0000 0.68960  0.89250  0.54270  Biso   1.000  H
  H479     1.0000 0.73690  0.97420  0.55930  Biso   1.000  H
  C447     1.0000 0.82030  0.95430  0.53780  Biso   1.000  C
  O216     1.0000 0.88480  0.96350  0.54740  Biso   1.000  O
  O217     1.0000 0.81300  0.97500  0.51640  Biso   1.000  O
  O218     1.0000 0.57000  0.77400  0.58270  Biso   1.000  O
  O219     1.0000 0.67930  0.89940  0.58700  Biso   1.000  O
  C448     1.0000 0.71560  0.87560  0.56640  Biso   1.000  C
  H480     1.0000 0.67090  0.82890  0.55720  Biso   1.000  H
  H481     1.0000 0.75370  0.85760  0.57290  Biso   1.000  H
  C449     1.0000 0.76100  0.94700  0.55010  Biso   1.000  C
  H482     1.0000 0.72250  0.96330  0.54280  Biso   1.000  H
  H483     1.0000 0.80350  0.99550  0.55960  Biso   1.000  H
  C450     1.0000 0.80530  0.92440  0.52910  Biso   1.000  C
  O220     1.0000 0.83910  0.88390  0.53380  Biso   1.000  O
  O221     1.0000 0.79900  0.95510  0.50910  Biso   1.000  O
  C451     1.0000 0.52560  0.22700  0.63950  Biso   1.000  C
  H484     1.0000 0.50970  0.26650  0.63520  Biso   1.000  H
  N26      1.0000 0.47390  0.16670  0.65460  Biso   1.000  N
  C452     1.0000 0.48820  0.09840  0.66080  Biso   1.000  C
  H485     1.0000 0.49000  0.07330  0.64500  Biso   1.000  H
  H486     1.0000 0.43690  0.05650  0.66920  Biso   1.000  H
  C453     1.0000 0.55670  0.10330  0.67530  Biso   1.000  C
  H487     1.0000 0.55060  0.04800  0.67660  Biso   1.000  H
  H488     1.0000 0.55580  0.12410  0.69170  Biso   1.000  H
  H489     1.0000 0.60950  0.14110  0.66730  Biso   1.000  H
  C454     1.0000 0.40660  0.17050  0.66820  Biso   1.000  C
  H490     1.0000 0.40920  0.15820  0.68570  Biso   1.000  H
  H491     1.0000 0.41460  0.22710  0.66700  Biso   1.000  H
  C455     1.0000 0.32340  0.10940  0.65810  Biso   1.000  C
  H492     1.0000 0.28010  0.11290  0.66730  Biso   1.000  H
  H493     1.0000 0.31510  0.05320  0.65950  Biso   1.000  H
  H494     1.0000 0.32060  0.12200  0.64080  Biso   1.000  H
  C456     1.0000 0.06519  0.20598  0.03041  Biso   1.000  C
  C457     1.0000 0.04447  0.21051  0.00403  Biso   1.000  C
  C458     1.0000 0.11073  0.21775  0.98902  Biso   1.000  C
  C459     1.0000 0.09459  0.18803  0.96477  Biso   1.000  C
  C460     1.0000 0.01080  0.14648  0.95577  Biso   1.000  C
  C461     1.0000 0.94554  0.13924  0.97044  Biso   1.000  C
  C462     1.0000 0.96312  0.16973  0.99526  Biso   1.000  C
  C463     1.0000 0.00007  0.07608  0.94016  Biso   1.000  C
  C464     1.0000 0.07716  0.07620  0.93960  Biso   1.000  C
  C465     1.0000 0.14161  0.15173  0.95245  Biso   1.000  C
  C466     1.0000 0.23541  0.19867  0.94749  Biso   1.000  C
  O222     1.0000 0.31157  0.32893  0.97000  Biso   1.000  O
  C467     1.0000 0.27887  0.29233  0.95154  Biso   1.000  C
  O223     1.0000 0.27297  0.32773  0.93127  Biso   1.000  O
  C468     1.0000 0.31097  0.41883  0.93147  Biso   1.000  C
  H495     1.0000 0.28307  0.43613  0.94363  Biso   1.000  H
  H496     1.0000 0.37067  0.44553  0.93563  Biso   1.000  H
  C469     1.0000 0.29977  0.44203  0.90632  Biso   1.000  C
  H497     1.0000 0.33627  0.43343  0.89493  Biso   1.000  H
  H498     1.0000 0.24167  0.40483  0.90113  Biso   1.000  H
  C470     1.0000 0.31947  0.53243  0.90433  Biso   1.000  C
  O224     1.0000 0.34627  0.57763  0.92244  Biso   1.000  O
  O225     1.0000 0.30767  0.55423  0.88333  Biso   1.000  O
  O226     1.0000 0.23127  0.12363  0.91023  Biso   1.000  O
  C471     1.0000 0.26997  0.17453  0.92562  Biso   1.000  C
  O227     1.0000 0.35157  0.21123  0.92813  Biso   1.000  O
  C472     1.0000 0.40377  0.21153  0.90763  Biso   1.000  C
  H499     1.0000 0.45217  0.20903  0.91413  Biso   1.000  H
  H500     1.0000 0.37137  0.16253  0.89713  Biso   1.000  H
  C473     1.0000 0.43277  0.28863  0.89313  Biso   1.000  C
  H501     1.0000 0.38507  0.28673  0.88443  Biso   1.000  H
  H502     1.0000 0.45667  0.33723  0.90423  Biso   1.000  H
  C474     1.0000 0.50107  0.29873  0.87363  Biso   1.000  C
  O228     1.0000 0.50807  0.23713  0.86893  Biso   1.000  O
  O229     1.0000 0.54237  0.37103  0.86433  Biso   1.000  O
  O230     1.0000 0.25087  0.57063  0.96483  Biso   1.000  O
  Zn14     1.0000 0.55473  0.31017  0.82284  Biso   1.000  Zn
  C475     1.0000 0.17987  0.52503  0.95843  Biso   1.000  C
  H503     1.0000 0.16047  0.53673  0.94373  Biso   1.000  H
  N27      1.0000 0.12827  0.45833  0.97183  Biso   1.000  N
  C476     1.0000 0.14437  0.46863  0.99813  Biso   1.000  C
  H504     1.0000 0.08867  0.43583  0.00563  Biso   1.000  H
  H505     1.0000 0.16117  0.52743  0.00123  Biso   1.000  H
  C477     1.0000 0.19847  0.45373  0.01423  Biso   1.000  C
  H506     1.0000 0.19267  0.46803  0.03113  Biso   1.000  H
  H507     1.0000 0.25617  0.48803  0.00893  Biso   1.000  H
  H508     1.0000 0.18257  0.39493  0.01343  Biso   1.000  H
  C478     1.0000 0.06957  0.38033  0.95833  Biso   1.000  C
  H509     1.0000 0.07317  0.33393  0.96603  Biso   1.000  H
  H510     1.0000 0.09017  0.38573  0.94143  Biso   1.000  H
  C479     1.0000 0.98177  0.35593  0.95713  Biso   1.000  C
  H511     1.0000 0.95157  0.30423  0.94783  Biso   1.000  H
  H512     1.0000 0.97607  0.39973  0.94893  Biso   1.000  H
  H513     1.0000 0.95897  0.34763  0.97373  Biso   1.000  H
  O231     1.0000 0.23067  0.14633  0.90723  Biso   1.000  O
  O232     1.0000 0.35167  0.21633  0.92733  Biso   1.000  O
  C480     1.0000 0.40167  0.20733  0.90783  Biso   1.000  C
  H514     1.0000 0.45807  0.22483  0.91393  Biso   1.000  H
  H515     1.0000 0.37547  0.14773  0.90283  Biso   1.000  H
  C481     1.0000 0.40567  0.25833  0.88663  Biso   1.000  C
  H516     1.0000 0.35627  0.22583  0.87603  Biso   1.000  H
  H517     1.0000 0.40357  0.30753  0.89263  Biso   1.000  H
  C482     1.0000 0.48697  0.28763  0.87113  Biso   1.000  C
  O233     1.0000 0.55147  0.29683  0.88073  Biso   1.000  O
  O234     1.0000 0.47967  0.30833  0.84973  Biso   1.000  O
  O235     1.0000 0.23667  0.10733  0.91603  Biso   1.000  O
  O236     1.0000 0.34597  0.23273  0.92033  Biso   1.000  O
  C483     1.0000 0.38227  0.20893  0.89973  Biso   1.000  C
  H518     1.0000 0.33757  0.16223  0.89053  Biso   1.000  H
  H519     1.0000 0.42037  0.19093  0.90623  Biso   1.000  H
  C484     1.0000 0.42767  0.28033  0.88343  Biso   1.000  C
  H520     1.0000 0.38917  0.29663  0.87613  Biso   1.000  H
  H521     1.0000 0.47017  0.32883  0.89293  Biso   1.000  H
  C485     1.0000 0.47197  0.25773  0.86243  Biso   1.000  C
  O237     1.0000 0.50577  0.21723  0.86713  Biso   1.000  O
  O238     1.0000 0.46567  0.28843  0.84243  Biso   1.000  O
  C486     1.0000 0.19227  0.56033  0.97283  Biso   1.000  C
  H522     1.0000 0.17637  0.59983  0.96853  Biso   1.000  H
  N28      1.0000 0.14057  0.50003  0.98793  Biso   1.000  N
  C487     1.0000 0.15487  0.43173  0.99413  Biso   1.000  C
  H523     1.0000 0.15667  0.40663  0.97833  Biso   1.000  H
  H524     1.0000 0.10357  0.38983  0.00253  Biso   1.000  H
  C488     1.0000 0.22337  0.43663  0.00863  Biso   1.000  C
  H525     1.0000 0.21727  0.38133  0.00993  Biso   1.000  H
  H526     1.0000 0.22247  0.45743  0.02503  Biso   1.000  H
  H527     1.0000 0.27617  0.47443  0.00063  Biso   1.000  H
  C489     1.0000 0.07327  0.50383  0.00153  Biso   1.000  C
  H528     1.0000 0.07587  0.49153  0.01903  Biso   1.000  H
  H529     1.0000 0.08127  0.56043  0.00033  Biso   1.000  H
  C490     1.0000 0.99007  0.44273  0.99143  Biso   1.000  C
  H530     1.0000 0.94677  0.44623  0.00063  Biso   1.000  H
  H531     1.0000 0.98177  0.38653  0.99283  Biso   1.000  H
  H532     1.0000 0.98727  0.45533  0.97413  Biso   1.000  H
  C491     1.0000 0.73185  0.53932  0.36375  Biso   1.000  C
  C492     1.0000 0.71113  0.54385  0.33737  Biso   1.000  C
  C493     1.0000 0.77739  0.55109  0.32236  Biso   1.000  C
  C494     1.0000 0.76125  0.52137  0.29811  Biso   1.000  C
  C495     1.0000 0.67746  0.47982  0.28911  Biso   1.000  C
  C496     1.0000 0.61220  0.47258  0.30378  Biso   1.000  C
  C497     1.0000 0.62978  0.50307  0.32860  Biso   1.000  C
  C498     1.0000 0.66673  0.40942  0.27350  Biso   1.000  C
  C499     1.0000 0.74382  0.40954  0.27294  Biso   1.000  C
  C500     1.0000 0.80827  0.48507  0.28579  Biso   1.000  C
  C501     1.0000 0.90207  0.53201  0.28083  Biso   1.000  C
  O239     1.0000 0.97823  0.66227  0.30334  Biso   1.000  O
  C502     1.0000 0.94553  0.62567  0.28488  Biso   1.000  C
  O240     1.0000 0.93963  0.66107  0.26461  Biso   1.000  O
  C503     1.0000 0.97763  0.75217  0.26481  Biso   1.000  C
  H533     1.0000 0.94973  0.76947  0.27697  Biso   1.000  H
  H534     1.0000 0.03733  0.77887  0.26897  Biso   1.000  H
  C504     1.0000 0.96643  0.77537  0.23966  Biso   1.000  C
  H535     1.0000 0.00293  0.76677  0.22827  Biso   1.000  H
  H536     1.0000 0.90833  0.73817  0.23447  Biso   1.000  H
  C505     1.0000 0.98613  0.86577  0.23767  Biso   1.000  C
  O241     1.0000 0.01293  0.91097  0.25578  Biso   1.000  O
  O242     1.0000 0.97433  0.88757  0.21667  Biso   1.000  O
  O243     1.0000 0.89793  0.45697  0.24357  Biso   1.000  O
  C506     1.0000 0.93663  0.50787  0.25896  Biso   1.000  C
  O244     1.0000 0.01823  0.54457  0.26147  Biso   1.000  O
  C507     1.0000 0.07043  0.54487  0.24097  Biso   1.000  C
  H537     1.0000 0.11883  0.54237  0.24747  Biso   1.000  H
  H538     1.0000 0.03803  0.49587  0.23047  Biso   1.000  H
  C508     1.0000 0.09943  0.62197  0.22647  Biso   1.000  C
  H539     1.0000 0.05173  0.62007  0.21777  Biso   1.000  H
  H540     1.0000 0.12333  0.67057  0.23757  Biso   1.000  H
  C509     1.0000 0.16773  0.63207  0.20697  Biso   1.000  C
  O245     1.0000 0.17473  0.57047  0.20227  Biso   1.000  O
  O246     1.0000 0.20903  0.70437  0.19767  Biso   1.000  O
  O247     1.0000 0.91753  0.90397  0.29817  Biso   1.000  O
  Zn15     1.0000 0.22139  0.64351  0.15618  Biso   1.000  Zn
  C510     1.0000 0.84653  0.85837  0.29177  Biso   1.000  C
  H541     1.0000 0.82713  0.87007  0.27707  Biso   1.000  H
  N29      1.0000 0.79493  0.79167  0.30517  Biso   1.000  N
  C511     1.0000 0.81103  0.80197  0.33147  Biso   1.000  C
  H542     1.0000 0.75533  0.76917  0.33897  Biso   1.000  H
  H543     1.0000 0.82783  0.86077  0.33457  Biso   1.000  H
  C512     1.0000 0.86513  0.78707  0.34757  Biso   1.000  C
  H544     1.0000 0.85933  0.80137  0.36447  Biso   1.000  H
  H545     1.0000 0.92283  0.82137  0.34227  Biso   1.000  H
  H546     1.0000 0.84923  0.72827  0.34677  Biso   1.000  H
  C513     1.0000 0.73623  0.71367  0.29167  Biso   1.000  C
  H547     1.0000 0.73983  0.66727  0.29937  Biso   1.000  H
  H548     1.0000 0.75683  0.71907  0.27477  Biso   1.000  H
  C514     1.0000 0.64843  0.68927  0.29047  Biso   1.000  C
  H549     1.0000 0.61823  0.63757  0.28117  Biso   1.000  H
  H550     1.0000 0.64273  0.73307  0.28227  Biso   1.000  H
  H551     1.0000 0.62563  0.68097  0.30707  Biso   1.000  H
  O248     1.0000 0.89733  0.47967  0.24057  Biso   1.000  O
  O249     1.0000 0.01833  0.54967  0.26067  Biso   1.000  O
  C515     1.0000 0.06833  0.54067  0.24117  Biso   1.000  C
  H552     1.0000 0.12473  0.55817  0.24727  Biso   1.000  H
  H553     1.0000 0.04213  0.48107  0.23617  Biso   1.000  H
  C516     1.0000 0.07233  0.59167  0.21997  Biso   1.000  C
  H554     1.0000 0.02293  0.55917  0.20937  Biso   1.000  H
  H555     1.0000 0.07023  0.64087  0.22597  Biso   1.000  H
  C517     1.0000 0.15363  0.62097  0.20447  Biso   1.000  C
  O250     1.0000 0.21813  0.63017  0.21407  Biso   1.000  O
  O251     1.0000 0.14633  0.64167  0.18307  Biso   1.000  O
  O252     1.0000 0.90333  0.44067  0.24937  Biso   1.000  O
  O253     1.0000 0.01263  0.56607  0.25367  Biso   1.000  O
  C518     1.0000 0.04893  0.54227  0.23307  Biso   1.000  C
  H556     1.0000 0.00423  0.49557  0.22387  Biso   1.000  H
  H557     1.0000 0.08703  0.52427  0.23957  Biso   1.000  H
  C519     1.0000 0.09433  0.61367  0.21677  Biso   1.000  C
  H558     1.0000 0.05583  0.62997  0.20947  Biso   1.000  H
  H559     1.0000 0.13683  0.66217  0.22627  Biso   1.000  H
  C520     1.0000 0.13863  0.59107  0.19577  Biso   1.000  C
  O254     1.0000 0.17243  0.55057  0.20047  Biso   1.000  O
  O255     1.0000 0.13233  0.62177  0.17577  Biso   1.000  O
  C521     1.0000 0.85893  0.89367  0.30617  Biso   1.000  C
  H560     1.0000 0.84303  0.93317  0.30187  Biso   1.000  H
  N30      1.0000 0.80723  0.83337  0.32127  Biso   1.000  N
  C522     1.0000 0.82153  0.76507  0.32747  Biso   1.000  C
  H561     1.0000 0.82333  0.73997  0.31167  Biso   1.000  H
  H562     1.0000 0.77023  0.72317  0.33587  Biso   1.000  H
  C523     1.0000 0.89003  0.76997  0.34197  Biso   1.000  C
  H563     1.0000 0.88393  0.71467  0.34327  Biso   1.000  H
  H564     1.0000 0.88913  0.79077  0.35837  Biso   1.000  H
  H565     1.0000 0.94283  0.80777  0.33397  Biso   1.000  H
  C524     1.0000 0.73993  0.83717  0.33487  Biso   1.000  C
  H566     1.0000 0.74253  0.82487  0.35237  Biso   1.000  H
  H567     1.0000 0.74793  0.89377  0.33367  Biso   1.000  H
  C525     1.0000 0.65673  0.77607  0.32477  Biso   1.000  C
  H568     1.0000 0.61343  0.77957  0.33397  Biso   1.000  H
  H569     1.0000 0.64843  0.71987  0.32617  Biso   1.000  H
  H570     1.0000 0.65393  0.78867  0.30747  Biso   1.000  H
  C526     1.0000 0.12735  0.52587  0.69708  Biso   1.000  C
  C527     1.0000 0.12282  0.50062  0.67070  Biso   1.000  C
  C528     1.0000 0.11558  0.55964  0.65569  Biso   1.000  C
  C529     1.0000 0.14530  0.57322  0.63144  Biso   1.000  C
  C530     1.0000 0.18685  0.53098  0.62244  Biso   1.000  C
  C531     1.0000 0.19409  0.47296  0.63711  Biso   1.000  C
  C532     1.0000 0.16360  0.46005  0.66193  Biso   1.000  C
  C533     1.0000 0.25725  0.59065  0.60683  Biso   1.000  C
  C534     1.0000 0.25713  0.66762  0.60627  Biso   1.000  C
  C535     1.0000 0.18160  0.65654  0.61912  Biso   1.000  C
  C536     1.0000 0.13466  0.70340  0.61416  Biso   1.000  C
  O256     1.0000 0.00440  0.64930  0.63667  Biso   1.000  O
  C537     1.0000 0.04100  0.65320  0.61821  Biso   1.000  C
  O257     1.0000 0.00560  0.61190  0.59794  Biso   1.000  O
  C538     1.0000 0.91450  0.55880  0.59814  Biso   1.000  C
  H571     1.0000 0.89720  0.51360  0.61030  Biso   1.000  H
  H572     1.0000 0.88780  0.59180  0.60230  Biso   1.000  H
  C539     1.0000 0.89130  0.52440  0.57299  Biso   1.000  C
  H573     1.0000 0.89990  0.56950  0.56160  Biso   1.000  H
  H574     1.0000 0.92850  0.50350  0.56780  Biso   1.000  H
  C540     1.0000 0.80090  0.45370  0.57100  Biso   1.000  C
  O258     1.0000 0.75570  0.43530  0.58911  Biso   1.000  O
  O259     1.0000 0.77910  0.42010  0.55000  Biso   1.000  O
  O260     1.0000 0.20970  0.77430  0.57690  Biso   1.000  O
  C541     1.0000 0.15880  0.76210  0.59229  Biso   1.000  C
  O261     1.0000 0.12210  0.80700  0.59480  Biso   1.000  O
  C542     1.0000 0.12180  0.85890  0.57430  Biso   1.000  C
  H575     1.0000 0.12430  0.90980  0.58080  Biso   1.000  H
  H576     1.0000 0.17080  0.87550  0.56380  Biso   1.000  H
  C543     1.0000 0.04470  0.81080  0.55980  Biso   1.000  C
  H577     1.0000 0.04660  0.76500  0.55110  Biso   1.000  H
  H578     1.0000 0.99610  0.78610  0.57090  Biso   1.000  H
  C544     1.0000 0.03460  0.86900  0.54030  Biso   1.000  C
  O262     1.0000 0.09620  0.93760  0.53560  Biso   1.000  O
  O263     1.0000 0.96230  0.83800  0.53100  Biso   1.000  O
  O264     1.0000 0.76270  0.34690  0.63150  Biso   1.000  O
  Zn16     1.0000 0.02316  0.91122  0.48951  Biso   1.000  Zn
  C545     1.0000 0.80830  0.32150  0.62510  Biso   1.000  C
  H579     1.0000 0.79660  0.29040  0.61040  Biso   1.000  H
  N31      1.0000 0.87500  0.33660  0.63850  Biso   1.000  N
  C546     1.0000 0.86470  0.34240  0.66480  Biso   1.000  C
  H580     1.0000 0.89750  0.31950  0.67230  Biso   1.000  H
  H581     1.0000 0.80590  0.30040  0.66790  Biso   1.000  H
  C547     1.0000 0.87960  0.41140  0.68090  Biso   1.000  C
  H582     1.0000 0.86530  0.39130  0.69780  Biso   1.000  H
  H583     1.0000 0.84530  0.43480  0.67560  Biso   1.000  H
  H584     1.0000 0.93840  0.45430  0.68010  Biso   1.000  H
  C548     1.0000 0.95300  0.35590  0.62500  Biso   1.000  C
  H585     1.0000 0.99940  0.40590  0.63270  Biso   1.000  H
  H586     1.0000 0.94760  0.37110  0.60810  Biso   1.000  H
  C549     1.0000 0.97740  0.29250  0.62380  Biso   1.000  C
  H587     1.0000 0.02910  0.31400  0.61450  Biso   1.000  H
  H588     1.0000 0.93360  0.24300  0.61560  Biso   1.000  H
  H589     1.0000 0.98570  0.27800  0.64040  Biso   1.000  H
  O265     1.0000 0.18700  0.75100  0.57390  Biso   1.000  O
  O266     1.0000 0.11700  0.80200  0.59400  Biso   1.000  O
  C550     1.0000 0.12600  0.86100  0.57450  Biso   1.000  C
  H590     1.0000 0.10850  0.89990  0.58060  Biso   1.000  H
  H591     1.0000 0.18560  0.89440  0.56950  Biso   1.000  H
  C551     1.0000 0.07500  0.81400  0.55330  Biso   1.000  C
  H592     1.0000 0.10750  0.79710  0.54270  Biso   1.000  H
  H593     1.0000 0.02580  0.76270  0.55930  Biso   1.000  H
  C552     1.0000 0.04570  0.86600  0.53780  Biso   1.000  C
  O267     1.0000 0.03650  0.92130  0.54740  Biso   1.000  O
  O268     1.0000 0.02500  0.83800  0.51640  Biso   1.000  O
  O269     1.0000 0.22600  0.79600  0.58270  Biso   1.000  O
  O270     1.0000 0.10060  0.77990  0.58700  Biso   1.000  O
  C553     1.0000 0.12440  0.84000  0.56640  Biso   1.000  C
  H594     1.0000 0.17110  0.84200  0.55720  Biso   1.000  H
  H595     1.0000 0.14240  0.89610  0.57290  Biso   1.000  H
  C554     1.0000 0.05300  0.81400  0.55010  Biso   1.000  C
  H596     1.0000 0.03670  0.75920  0.54280  Biso   1.000  H
  H597     1.0000 0.00450  0.80800  0.55960  Biso   1.000  H
  C555     1.0000 0.07560  0.88090  0.52910  Biso   1.000  C
  O271     1.0000 0.11610  0.95520  0.53380  Biso   1.000  O
  O272     1.0000 0.04490  0.84390  0.50910  Biso   1.000  O
  C556     1.0000 0.77300  0.29860  0.63950  Biso   1.000  C
  H598     1.0000 0.73350  0.24320  0.63520  Biso   1.000  H
  N32      1.0000 0.83330  0.30720  0.65460  Biso   1.000  N
  C557     1.0000 0.90160  0.38980  0.66080  Biso   1.000  C
  H599     1.0000 0.92670  0.41670  0.64500  Biso   1.000  H
  H600     1.0000 0.94350  0.38040  0.66920  Biso   1.000  H
  C558     1.0000 0.89670  0.45340  0.67530  Biso   1.000  C
  H601     1.0000 0.95200  0.50260  0.67660  Biso   1.000  H
  H602     1.0000 0.87590  0.43170  0.69170  Biso   1.000  H
  H603     1.0000 0.85890  0.46840  0.66730  Biso   1.000  H
  C559     1.0000 0.82950  0.23610  0.66820  Biso   1.000  C
  H604     1.0000 0.84180  0.25100  0.68570  Biso   1.000  H
  H605     1.0000 0.77290  0.18750  0.66700  Biso   1.000  H
  C560     1.0000 0.89060  0.21400  0.65810  Biso   1.000  C
  H606     1.0000 0.88710  0.16720  0.66730  Biso   1.000  H
  H607     1.0000 0.94680  0.26190  0.65950  Biso   1.000  H
  H608     1.0000 0.87800  0.19860  0.64080  Biso   1.000  H
  C561     1.0000 0.79402  0.85920  0.03041  Biso   1.000  C
  C562     1.0000 0.78949  0.83395  0.00403  Biso   1.000  C
  C563     1.0000 0.78225  0.89297  0.98902  Biso   1.000  C
  C564     1.0000 0.81197  0.90655  0.96477  Biso   1.000  C
  C565     1.0000 0.85352  0.86431  0.95577  Biso   1.000  C
  C566     1.0000 0.86076  0.80629  0.97044  Biso   1.000  C
  C567     1.0000 0.83027  0.79338  0.99526  Biso   1.000  C
  C568     1.0000 0.92392  0.92398  0.94016  Biso   1.000  C
  C569     1.0000 0.92380  0.00095  0.93960  Biso   1.000  C
  C570     1.0000 0.84827  0.98987  0.95245  Biso   1.000  C
  C571     1.0000 0.80133  0.03673  0.94749  Biso   1.000  C
  O273     1.0000 0.67107  0.98263  0.97000  Biso   1.000  O
  C572     1.0000 0.70767  0.98653  0.95154  Biso   1.000  C
  O274     1.0000 0.67227  0.94523  0.93127  Biso   1.000  O
  C573     1.0000 0.58117  0.89213  0.93147  Biso   1.000  C
  H609     1.0000 0.56387  0.84693  0.94363  Biso   1.000  H
  H610     1.0000 0.55447  0.92513  0.93563  Biso   1.000  H
  C574     1.0000 0.55797  0.85773  0.90632  Biso   1.000  C
  H611     1.0000 0.56657  0.90283  0.89493  Biso   1.000  H
  H612     1.0000 0.59517  0.83683  0.90113  Biso   1.000  H
  C575     1.0000 0.46757  0.78703  0.90433  Biso   1.000  C
  O275     1.0000 0.42237  0.76863  0.92244  Biso   1.000  O
  O276     1.0000 0.44577  0.75343  0.88333  Biso   1.000  O
  O277     1.0000 0.87637  0.10763  0.91023  Biso   1.000  O
  C576     1.0000 0.82547  0.09543  0.92562  Biso   1.000  C
  O278     1.0000 0.78877  0.14033  0.92813  Biso   1.000  O
  C577     1.0000 0.78847  0.19223  0.90763  Biso   1.000  C
  H613     1.0000 0.79097  0.24313  0.91413  Biso   1.000  H
  H614     1.0000 0.83747  0.20883  0.89713  Biso   1.000  H
  C578     1.0000 0.71137  0.14413  0.89313  Biso   1.000  C
  H615     1.0000 0.71327  0.09833  0.88443  Biso   1.000  H
  H616     1.0000 0.66277  0.11943  0.90423  Biso   1.000  H
  C579     1.0000 0.70127  0.20233  0.87363  Biso   1.000  C
  O279     1.0000 0.76287  0.27093  0.86893  Biso   1.000  O
  O280     1.0000 0.62897  0.17133  0.86433  Biso   1.000  O
  O281     1.0000 0.42937  0.68023  0.96483  Biso   1.000  O
  Zn17     1.0000 0.68983  0.24455  0.82284  Biso   1.000  Zn
  C580     1.0000 0.47497  0.65483  0.95843  Biso   1.000  C
  H617     1.0000 0.46327  0.62373  0.94373  Biso   1.000  H
  N33      1.0000 0.54167  0.66993  0.97183  Biso   1.000  N
  C581     1.0000 0.53137  0.67573  0.99813  Biso   1.000  C
  H618     1.0000 0.56417  0.65283  0.00563  Biso   1.000  H
  H619     1.0000 0.47257  0.63373  0.00123  Biso   1.000  H
  C582     1.0000 0.54627  0.74473  0.01423  Biso   1.000  C
  H620     1.0000 0.53197  0.72463  0.03113  Biso   1.000  H
  H621     1.0000 0.51197  0.76813  0.00893  Biso   1.000  H
  H622     1.0000 0.60507  0.78763  0.01343  Biso   1.000  H
  C583     1.0000 0.61967  0.68923  0.95833  Biso   1.000  C
  H623     1.0000 0.66607  0.73923  0.96603  Biso   1.000  H
  H624     1.0000 0.61427  0.70443  0.94143  Biso   1.000  H
  C584     1.0000 0.64407  0.62583  0.95713  Biso   1.000  C
  H625     1.0000 0.69577  0.64733  0.94783  Biso   1.000  H
  H626     1.0000 0.60027  0.57633  0.94893  Biso   1.000  H
  H627     1.0000 0.65237  0.61133  0.97373  Biso   1.000  H
  O282     1.0000 0.85367  0.08433  0.90723  Biso   1.000  O
  O283     1.0000 0.78367  0.13533  0.92733  Biso   1.000  O
  C585     1.0000 0.79267  0.19433  0.90783  Biso   1.000  C
  H628     1.0000 0.77517  0.23323  0.91393  Biso   1.000  H
  H629     1.0000 0.85227  0.22773  0.90283  Biso   1.000  H
  C586     1.0000 0.74167  0.14733  0.88663  Biso   1.000  C
  H630     1.0000 0.77417  0.13043  0.87603  Biso   1.000  H
  H631     1.0000 0.69247  0.09603  0.89263  Biso   1.000  H
  C587     1.0000 0.71237  0.19933  0.87113  Biso   1.000  C
  O284     1.0000 0.70317  0.25463  0.88073  Biso   1.000  O
  O285     1.0000 0.69167  0.17133  0.84973  Biso   1.000  O
  O286     1.0000 0.89267  0.12933  0.91603  Biso   1.000  O
  O287     1.0000 0.76727  0.11323  0.92033  Biso   1.000  O
  C588     1.0000 0.79107  0.17333  0.89973  Biso   1.000  C
  H632     1.0000 0.83777  0.17533  0.89053  Biso   1.000  H
  H633     1.0000 0.80907  0.22943  0.90623  Biso   1.000  H
  C589     1.0000 0.71967  0.14733  0.88343  Biso   1.000  C
  H634     1.0000 0.70337  0.09253  0.87613  Biso   1.000  H
  H635     1.0000 0.67117  0.14133  0.89293  Biso   1.000  H
  C590     1.0000 0.74227  0.21423  0.86243  Biso   1.000  C
  O288     1.0000 0.78277  0.28853  0.86713  Biso   1.000  O
  O289     1.0000 0.71157  0.17723  0.84243  Biso   1.000  O
  C591     1.0000 0.43967  0.63193  0.97283  Biso   1.000  C
  H636     1.0000 0.40017  0.57653  0.96853  Biso   1.000  H
  N34      1.0000 0.49997  0.64053  0.98793  Biso   1.000  N
  C592     1.0000 0.56827  0.72313  0.99413  Biso   1.000  C
  H637     1.0000 0.59337  0.75003  0.97833  Biso   1.000  H
  H638     1.0000 0.61017  0.71373  0.00253  Biso   1.000  H
  C593     1.0000 0.56337  0.78673  0.00863  Biso   1.000  C
  H639     1.0000 0.61867  0.83593  0.00993  Biso   1.000  H
  H640     1.0000 0.54257  0.76503  0.02503  Biso   1.000  H
  H641     1.0000 0.52557  0.80173  0.00063  Biso   1.000  H
  C594     1.0000 0.49617  0.56943  0.00153  Biso   1.000  C
  H642     1.0000 0.50847  0.58433  0.01903  Biso   1.000  H
  H643     1.0000 0.43957  0.52083  0.00033  Biso   1.000  H
  C595     1.0000 0.55727  0.54733  0.99143  Biso   1.000  C
  H644     1.0000 0.55377  0.50053  0.00063  Biso   1.000  H
  H645     1.0000 0.61347  0.59523  0.99283  Biso   1.000  H
  H646     1.0000 0.54467  0.53193  0.97413  Biso   1.000  H
  C596     1.0000 0.46068  0.19254  0.36375  Biso   1.000  C
  C597     1.0000 0.45615  0.16729  0.33737  Biso   1.000  C
  C598     1.0000 0.44891  0.22631  0.32236  Biso   1.000  C
  C599     1.0000 0.47863  0.23989  0.29811  Biso   1.000  C
  C600     1.0000 0.52018  0.19765  0.28911  Biso   1.000  C
  C601     1.0000 0.52742  0.13963  0.30378  Biso   1.000  C
  C602     1.0000 0.49693  0.12672  0.32860  Biso   1.000  C
  C603     1.0000 0.59058  0.25732  0.27350  Biso   1.000  C
  C604     1.0000 0.59046  0.33429  0.27294  Biso   1.000  C
  C605     1.0000 0.51493  0.32321  0.28579  Biso   1.000  C
  C606     1.0000 0.46799  0.37007  0.28083  Biso   1.000  C
  O290     1.0000 0.33773  0.31597  0.30334  Biso   1.000  O
  C607     1.0000 0.37433  0.31987  0.28488  Biso   1.000  C
  O291     1.0000 0.33893  0.27857  0.26461  Biso   1.000  O
  C608     1.0000 0.24783  0.22547  0.26481  Biso   1.000  C
  H647     1.0000 0.23053  0.18027  0.27697  Biso   1.000  H
  H648     1.0000 0.22113  0.25847  0.26897  Biso   1.000  H
  C609     1.0000 0.22463  0.19107  0.23966  Biso   1.000  C
  H649     1.0000 0.23323  0.23617  0.22827  Biso   1.000  H
  H650     1.0000 0.26183  0.17017  0.23447  Biso   1.000  H
  C610     1.0000 0.13423  0.12037  0.23767  Biso   1.000  C
  O292     1.0000 0.08903  0.10197  0.25578  Biso   1.000  O
  O293     1.0000 0.11243  0.08677  0.21667  Biso   1.000  O
  O294     1.0000 0.54303  0.44097  0.24357  Biso   1.000  O
  C611     1.0000 0.49213  0.42877  0.25896  Biso   1.000  C
  O295     1.0000 0.45543  0.47367  0.26147  Biso   1.000  O
  C612     1.0000 0.45513  0.52557  0.24097  Biso   1.000  C
  H651     1.0000 0.45763  0.57647  0.24747  Biso   1.000  H
  H652     1.0000 0.50413  0.54217  0.23047  Biso   1.000  H
  C613     1.0000 0.37803  0.47747  0.22647  Biso   1.000  C
  H653     1.0000 0.37993  0.43167  0.21777  Biso   1.000  H
  H654     1.0000 0.32943  0.45277  0.23757  Biso   1.000  H
  C614     1.0000 0.36793  0.53567  0.20697  Biso   1.000  C
  O296     1.0000 0.42953  0.60427  0.20227  Biso   1.000  O
  O297     1.0000 0.29563  0.50467  0.19767  Biso   1.000  O
  O298     1.0000 0.09603  0.01357  0.29817  Biso   1.000  O
  Zn18     1.0000 0.35649  0.57789  0.15618  Biso   1.000  Zn
  C615     1.0000 0.14163  0.98817  0.29177  Biso   1.000  C
  H655     1.0000 0.12993  0.95707  0.27707  Biso   1.000  H
  N35      1.0000 0.20833  0.00327  0.30517  Biso   1.000  N
  C616     1.0000 0.19803  0.00907  0.33147  Biso   1.000  C
  H656     1.0000 0.23083  0.98617  0.33897  Biso   1.000  H
  H657     1.0000 0.13923  0.96707  0.33457  Biso   1.000  H
  C617     1.0000 0.21293  0.07807  0.34757  Biso   1.000  C
  H658     1.0000 0.19863  0.05797  0.36447  Biso   1.000  H
  H659     1.0000 0.17863  0.10147  0.34227  Biso   1.000  H
  H660     1.0000 0.27173  0.12097  0.34677  Biso   1.000  H
  C618     1.0000 0.28633  0.02257  0.29167  Biso   1.000  C
  H661     1.0000 0.33273  0.07257  0.29937  Biso   1.000  H
  H662     1.0000 0.28093  0.03777  0.27477  Biso   1.000  H
  C619     1.0000 0.31073  0.95917  0.29047  Biso   1.000  C
  H663     1.0000 0.36243  0.98067  0.28117  Biso   1.000  H
  H664     1.0000 0.26693  0.90967  0.28227  Biso   1.000  H
  H665     1.0000 0.31903  0.94467  0.30707  Biso   1.000  H
  O299     1.0000 0.52033  0.41767  0.24057  Biso   1.000  O
  O300     1.0000 0.45033  0.46867  0.26067  Biso   1.000  O
  C620     1.0000 0.45933  0.52767  0.24117  Biso   1.000  C
  H666     1.0000 0.44183  0.56657  0.24727  Biso   1.000  H
  H667     1.0000 0.51893  0.56107  0.23617  Biso   1.000  H
  C621     1.0000 0.40833  0.48067  0.21997  Biso   1.000  C
  H668     1.0000 0.44083  0.46377  0.20937  Biso   1.000  H
  H669     1.0000 0.35913  0.42937  0.22597  Biso   1.000  H
  C622     1.0000 0.37903  0.53267  0.20447  Biso   1.000  C
  O301     1.0000 0.36983  0.58797  0.21407  Biso   1.000  O
  O302     1.0000 0.35833  0.50467  0.18307  Biso   1.000  O
  O303     1.0000 0.55933  0.46267  0.24937  Biso   1.000  O
  O304     1.0000 0.43393  0.44657  0.25367  Biso   1.000  O
  C623     1.0000 0.45773  0.50667  0.23307  Biso   1.000  C
  H670     1.0000 0.50443  0.50867  0.22387  Biso   1.000  H
  H671     1.0000 0.47573  0.56277  0.23957  Biso   1.000  H
  C624     1.0000 0.38633  0.48067  0.21677  Biso   1.000  C
  H672     1.0000 0.37003  0.42587  0.20947  Biso   1.000  H
  H673     1.0000 0.33783  0.47467  0.22627  Biso   1.000  H
  C625     1.0000 0.40893  0.54757  0.19577  Biso   1.000  C
  O305     1.0000 0.44943  0.62187  0.20047  Biso   1.000  O
  O306     1.0000 0.37823  0.51057  0.17577  Biso   1.000  O
  C626     1.0000 0.10633  0.96527  0.30617  Biso   1.000  C
  H674     1.0000 0.06683  0.90987  0.30187  Biso   1.000  H
  N36      1.0000 0.16663  0.97387  0.32127  Biso   1.000  N
  C627     1.0000 0.23493  0.05647  0.32747  Biso   1.000  C
  H675     1.0000 0.26003  0.08337  0.31167  Biso   1.000  H
  H676     1.0000 0.27683  0.04707  0.33587  Biso   1.000  H
  C628     1.0000 0.23003  0.12007  0.34197  Biso   1.000  C
  H677     1.0000 0.28533  0.16927  0.34327  Biso   1.000  H
  H678     1.0000 0.20923  0.09837  0.35837  Biso   1.000  H
  H679     1.0000 0.19223  0.13507  0.33397  Biso   1.000  H
  C629     1.0000 0.16283  0.90277  0.33487  Biso   1.000  C
  H680     1.0000 0.17513  0.91767  0.35237  Biso   1.000  H
  H681     1.0000 0.10623  0.85417  0.33367  Biso   1.000  H
  C630     1.0000 0.22393  0.88067  0.32477  Biso   1.000  C
  H682     1.0000 0.22043  0.83387  0.33397  Biso   1.000  H
  H683     1.0000 0.28013  0.92857  0.32617  Biso   1.000  H
  H684     1.0000 0.21133  0.86527  0.30747  Biso   1.000  H
  Zn19     1.0000 0.33333  0.66667  0.45621  Biso   1.000  Zn
  Zn20     1.0000 0.33333  0.66667  0.39076  Biso   1.000  Zn
  Zn21     1.0000 0.00000  0.00000  0.78954  Biso   1.000  Zn
  Zn22     1.0000 0.00000  0.00000  0.72409  Biso   1.000  Zn
  Zn23     1.0000 0.66667  0.33333  0.12288  Biso   1.000  Zn
  Zn24     1.0000 0.66667  0.33333  0.05743  Biso   1.000  Zn
  Zn25     1.0000 0.66667  0.33333  0.54379  Biso   1.000  Zn
  Zn26     1.0000 0.66667  0.33333  0.60924  Biso   1.000  Zn
  Zn27     1.0000 0.33333  0.66667  0.87712  Biso   1.000  Zn
  Zn28     1.0000 0.33333  0.66667  0.94257  Biso   1.000  Zn
  Zn29     1.0000 0.00000  0.00000  0.21046  Biso   1.000  Zn
  Zn30     1.0000 0.00000  0.00000  0.27591  Biso   1.000  Zn
  O307     1.0000 0.00000  0.00000  0.50000  Biso   1.000  O
  O308     1.0000 0.66667  0.33333  0.83333  Biso   1.000  O
  O309     1.0000 0.33333  0.66667  0.16667  Biso   1.000  O
  Zn31     1.0000 0.00000  0.00000  0.46201  Biso   1.000  Zn
  Zn32     1.0000 0.66667  0.33333  0.79534  Biso   1.000  Zn
  Zn33     1.0000 0.33333  0.66667  0.12868  Biso   1.000  Zn
  Zn34     1.0000 0.00000  0.00000  0.53799  Biso   1.000  Zn
  Zn35     1.0000 0.66667  0.33333  0.87132  Biso   1.000  Zn
  Zn36     1.0000 0.33333  0.66667  0.20466  Biso   1.000  Zn
