data_image0
_cell_length_a       32.4109
_cell_length_b       19.2358
_cell_length_c       31.4795
_cell_angle_alpha    90
_cell_angle_beta     109.208
_cell_angle_gamma    90

_symmetry_space_group_name_H-M    "P 1"
_symmetry_int_tables_number       1

loop_
  _symmetry_equiv_pos_as_xyz
  'x, y, z'

loop_
  _atom_site_label
  _atom_site_occupancy
  _atom_site_fract_x
  _atom_site_fract_y
  _atom_site_fract_z
  _atom_site_thermal_displace_type
  _atom_site_B_iso_or_equiv
  _atom_site_type_symbol
  C1       1.0000 0.35752  0.29037  0.56809  Biso   1.000  C
  C2       1.0000 0.35278  0.22273  0.58445  Biso   1.000  C
  C3       1.0000 0.34925  0.16549  0.55644  Biso   1.000  C
  C4       1.0000 0.35292  0.17400  0.51287  Biso   1.000  C
  C5       1.0000 0.14254  0.25971  0.50281  Biso   1.000  C
  C6       1.0000 0.36099  0.29881  0.52557  Biso   1.000  C
  C7       1.0000 0.15668  0.13928  0.50298  Biso   1.000  C
  C8       1.0000 0.31585  0.41339  0.51608  Biso   1.000  C
  C9       1.0000 0.31001  0.39467  0.55948  Biso   1.000  C
  C10      1.0000 0.33138  0.33854  0.58516  Biso   1.000  C
  C11      1.0000 0.31137  0.30032  0.61160  Biso   1.000  C
  C12      1.0000 0.32823  0.22804  0.61634  Biso   1.000  C
  C13      1.0000 0.29380  0.16666  0.61406  Biso   1.000  C
  C14      1.0000 0.28959  0.11289  0.57918  Biso   1.000  C
  C15      1.0000 0.31720  0.11016  0.55385  Biso   1.000  C
  C16      1.0000 0.30153  0.08538  0.50871  Biso   1.000  C
  C17      1.0000 0.32725  0.11832  0.48317  Biso   1.000  C
  C18      1.0000 0.19874  0.35828  0.56780  Biso   1.000  C
  C19      1.0000 0.19507  0.28416  0.57896  Biso   1.000  C
  C20      1.0000 0.16724  0.23836  0.54926  Biso   1.000  C
  C21      1.0000 0.17829  0.16730  0.54882  Biso   1.000  C
  C22      1.0000 0.21899  0.14421  0.57611  Biso   1.000  C
  C23      1.0000 0.24443  0.09559  0.55891  Biso   1.000  C
  C24      1.0000 0.22896  0.07100  0.51495  Biso   1.000  C
  C25      1.0000 0.25781  0.06806  0.48926  Biso   1.000  C
  C26      1.0000 0.26647  0.41074  0.55731  Biso   1.000  C
  C27      1.0000 0.24633  0.37349  0.58336  Biso   1.000  C
  C28      1.0000 0.26898  0.31625  0.60962  Biso   1.000  C
  C29      1.0000 0.23697  0.26028  0.60726  Biso   1.000  C
  C30      1.0000 0.24827  0.19050  0.60702  Biso   1.000  C
  C31      1.0000 0.35899  0.43415  0.50979  Biso   1.000  C
  C32      1.0000 0.33751  0.08876  0.44343  Biso   1.000  C
  C33      1.0000 0.33240  0.17965  0.65499  Biso   1.000  C
  O1       1.0000 0.40095  0.45410  0.58806  Biso   1.000  O
  C34      1.0000 0.39972  0.43954  0.55073  Biso   1.000  C
  O2       1.0000 0.43385  0.42309  0.53814  Biso   1.000  O
  C35      1.0000 0.47581  0.42067  0.57333  Biso   1.000  C
  H1       1.0000 0.47520  0.45140  0.59830  Biso   1.000  H
  H2       1.0000 0.49860  0.43830  0.56150  Biso   1.000  H
  C36      1.0000 0.48754  0.34756  0.59111  Biso   1.000  C
  O3       1.0000 0.46279  0.29868  0.57114  Biso   1.000  O
  O4       1.0000 0.52137  0.34032  0.62416  Biso   1.000  O
  O5       1.0000 0.33378  0.48356  0.43566  Biso   1.000  O
  C37      1.0000 0.35592  0.48747  0.47418  Biso   1.000  C
  O6       1.0000 0.38033  0.54246  0.49288  Biso   1.000  O
  C38      1.0000 0.38114  0.59628  0.46155  Biso   1.000  C
  H3       1.0000 0.39610  0.63770  0.47840  Biso   1.000  H
  H4       1.0000 0.35080  0.60970  0.44420  Biso   1.000  H
  C39      1.0000 0.40452  0.57353  0.42900  Biso   1.000  C
  O7       1.0000 0.42402  0.51765  0.43405  Biso   1.000  O
  O8       1.0000 0.40134  0.61783  0.39827  Biso   1.000  O
  O9       1.0000 0.39233  0.15631  0.42478  Biso   1.000  O
  C40      1.0000 0.38258  0.10781  0.44253  Biso   1.000  C
  O10      1.0000 0.40985  0.05948  0.46721  Biso   1.000  O
  C41      1.0000 0.45535  0.06730  0.47251  Biso   1.000  C
  H5       1.0000 0.45810  0.08810  0.44480  Biso   1.000  H
  H6       1.0000 0.46920  0.02080  0.47640  Biso   1.000  H
  C42      1.0000 0.47954  0.11297  0.51286  Biso   1.000  C
  O11      1.0000 0.45765  0.14422  0.53330  Biso   1.000  O
  O12      1.0000 0.51984  0.11538  0.52055  Biso   1.000  O
  O13      1.0000 0.30930  0.97560  0.44750  Biso   1.000  O
  C43      1.0000 0.32423  0.01565  0.42768  Biso   1.000  C
  O14      1.0000 0.32650  0.00860  0.38640  Biso   1.000  O
  C44      1.0000 0.32000  0.93950  0.36720  Biso   1.000  C
  H7       1.0000 0.30470  0.94220  0.33430  Biso   1.000  H
  H8       1.0000 0.30200  0.91150  0.38080  Biso   1.000  H
  C45      1.0000 0.36510  0.90550  0.37670  Biso   1.000  C
  O15      1.0000 0.38830  0.89973  0.41619  Biso   1.000  O
  O16      1.0000 0.37081  0.88170  0.34290  Biso   1.000  O
  O17      1.0000 0.36834  0.06894  0.65801  Biso   1.000  O
  C46      1.0000 0.37068  0.12965  0.66627  Biso   1.000  C
  O18      1.0000 0.40687  0.16498  0.68475  Biso   1.000  O
  C47      1.0000 0.44799  0.12830  0.69856  Biso   1.000  C
  H9       1.0000 0.44250  0.07760  0.69600  Biso   1.000  H
  H10      1.0000 0.46420  0.13910  0.73040  Biso   1.000  H
  C48      1.0000 0.47522  0.14887  0.66967  Biso   1.000  C
  O19      1.0000 0.45538  0.17112  0.63078  Biso   1.000  O
  O20      1.0000 0.51520  0.13888  0.68702  Biso   1.000  O
  O21      1.0000 0.30065  0.17920  0.71336  Biso   1.000  O
  C49      1.0000 0.32433  0.20724  0.69677  Biso   1.000  C
  O22      1.0000 0.34700  0.26429  0.71049  Biso   1.000  O
  C50      1.0000 0.34787  0.29170  0.75368  Biso   1.000  C
  H11      1.0000 0.31920  0.28380  0.75770  Biso   1.000  H
  H12      1.0000 0.35320  0.34250  0.75450  Biso   1.000  H
  C51      1.0000 0.38357  0.25680  0.79177  Biso   1.000  C
  O23      1.0000 0.39600  0.19821  0.78480  Biso   1.000  O
  O24      1.0000 0.39634  0.28899  0.82852  Biso   1.000  O
  Zn1      1.0000 0.48268  0.20253  0.58728  Biso   1.000  Zn
  Zn2      1.0000 0.58128  0.39082  0.65820  Biso   1.000  Zn
  Zn3      1.0000 0.57069  0.18291  0.55420  Biso   1.000  Zn
  Zn4      1.0000 0.56812  0.13607  0.66473  Biso   1.000  Zn
  O25      1.0000 0.54642  0.19601  0.60839  Biso   1.000  O
  O26      1.0000 0.56954  0.39205  0.71878  Biso   1.000  O
  O27      1.0000 0.59071  0.17440  0.49730  Biso   1.000  O
  C52      1.0000 0.62830  0.15470  0.49790  Biso   1.000  C
  H13      1.0000 0.64440  0.12720  0.52290  Biso   1.000  H
  N1       1.0000 0.64790  0.16800  0.46780  Biso   1.000  N
  C53      1.0000 0.62590  0.21380  0.42880  Biso   1.000  C
  H14      1.0000 0.59390  0.21070  0.42220  Biso   1.000  H
  H15      1.0000 0.63250  0.19660  0.40210  Biso   1.000  H
  C54      1.0000 0.63950  0.28810  0.43660  Biso   1.000  C
  H16      1.0000 0.62480  0.31510  0.40940  Biso   1.000  H
  H17      1.0000 0.67120  0.29150  0.44360  Biso   1.000  H
  H18      1.0000 0.63140  0.30640  0.46180  Biso   1.000  H
  C55      1.0000 0.69600  0.15050  0.47770  Biso   1.000  C
  H19      1.0000 0.71290  0.19360  0.47850  Biso   1.000  H
  H20      1.0000 0.70770  0.12720  0.50730  Biso   1.000  H
  C56      1.0000 0.69970  0.10290  0.44090  Biso   1.000  C
  H21      1.0000 0.73030  0.08920  0.44740  Biso   1.000  H
  H22      1.0000 0.68950  0.12740  0.41200  Biso   1.000  H
  H23      1.0000 0.68180  0.06140  0.43940  Biso   1.000  H
  O28      1.0000 0.58850  0.05280  0.71830  Biso   1.000  O
  O29      1.0000 0.53182  0.04890  0.61971  Biso   1.000  O
  C57      1.0000 0.52360  0.99530  0.63620  Biso   1.000  C
  H24      1.0000 0.54100  0.98390  0.66610  Biso   1.000  H
  N2       1.0000 0.49160  0.95190  0.61430  Biso   1.000  N
  C58      1.0000 0.45820  0.97070  0.57310  Biso   1.000  C
  H25      1.0000 0.47000  0.00620  0.55740  Biso   1.000  H
  H26      1.0000 0.45030  0.92930  0.55340  Biso   1.000  H
  C59      1.0000 0.41880  0.99820  0.58010  Biso   1.000  C
  H27      1.0000 0.40510  0.03270  0.55690  Biso   1.000  H
  H28      1.0000 0.39820  0.96010  0.57840  Biso   1.000  H
  H29      1.0000 0.42670  0.02010  0.60980  Biso   1.000  H
  C60      1.0000 0.48930  0.88330  0.63450  Biso   1.000  C
  H30      1.0000 0.50870  0.88330  0.66620  Biso   1.000  H
  H31      1.0000 0.45910  0.87510  0.63420  Biso   1.000  H
  C61      1.0000 0.50280  0.82440  0.60940  Biso   1.000  C
  H32      1.0000 0.50660  0.78160  0.62710  Biso   1.000  H
  H33      1.0000 0.48010  0.81740  0.58020  Biso   1.000  H
  H34      1.0000 0.53040  0.83640  0.60480  Biso   1.000  H
  O30      1.0000 0.31200  0.96730  0.44400  Biso   1.000  O
  O31      1.0000 0.33440  0.01020  0.38980  Biso   1.000  O
  C62      1.0000 0.32200  0.94800  0.36360  Biso   1.000  C
  H35      1.0000 0.32070  0.95780  0.33230  Biso   1.000  H
  H36      1.0000 0.29230  0.93410  0.36280  Biso   1.000  H
  C63      1.0000 0.35340  0.88750  0.38190  Biso   1.000  C
  O32      1.0000 0.33650  0.83240  0.36230  Biso   1.000  O
  H37      1.0000 0.35330  0.79880  0.37290  Biso   1.000  H
  C64      1.0000 0.55480  0.43970  0.73610  Biso   1.000  C
  H38      1.0000 0.54190  0.47820  0.71750  Biso   1.000  H
  N3       1.0000 0.55550  0.44100  0.77850  Biso   1.000  N
  C65      1.0000 0.58120  0.38430  0.81000  Biso   1.000  C
  H39      1.0000 0.60420  0.36540  0.79900  Biso   1.000  H
  H40      1.0000 0.59520  0.40330  0.84060  Biso   1.000  H
  C66      1.0000 0.55060  0.33070  0.81080  Biso   1.000  C
  H41      1.0000 0.56650  0.28870  0.82460  Biso   1.000  H
  H42      1.0000 0.53200  0.32030  0.78000  Biso   1.000  H
  H43      1.0000 0.53240  0.34650  0.82840  Biso   1.000  H
  C67      1.0000 0.52680  0.49160  0.79280  Biso   1.000  C
  H44      1.0000 0.51350  0.46820  0.81320  Biso   1.000  H
  H45      1.0000 0.50300  0.50850  0.76620  Biso   1.000  H
  C68      1.0000 0.55470  0.55230  0.81690  Biso   1.000  C
  H46      1.0000 0.53650  0.58560  0.82620  Biso   1.000  H
  H47      1.0000 0.56770  0.57530  0.79660  Biso   1.000  H
  H48      1.0000 0.57800  0.53530  0.84350  Biso   1.000  H
  C69      1.0000 0.58530  0.44110  0.74610  Biso   1.000  C
  H49      1.0000 0.59670  0.48090  0.73580  Biso   1.000  H
  N4       1.0000 0.58640  0.43880  0.78820  Biso   1.000  N
  C70      1.0000 0.55240  0.39380  0.79770  Biso   1.000  C
  H50      1.0000 0.56760  0.36220  0.82280  Biso   1.000  H
  H51      1.0000 0.53330  0.42430  0.80830  Biso   1.000  H
  C71      1.0000 0.52450  0.35110  0.76060  Biso   1.000  C
  H52      1.0000 0.52540  0.36940  0.73190  Biso   1.000  H
  H53      1.0000 0.49440  0.35240  0.76100  Biso   1.000  H
  H54      1.0000 0.53500  0.30300  0.76430  Biso   1.000  H
  C72      1.0000 0.60370  0.50450  0.81670  Biso   1.000  C
  H55      1.0000 0.59190  0.54670  0.79890  Biso   1.000  H
  H56      1.0000 0.59460  0.50450  0.84370  Biso   1.000  H
  C73      1.0000 0.65380  0.50370  0.83040  Biso   1.000  C
  H57      1.0000 0.66560  0.54610  0.84730  Biso   1.000  H
  H58      1.0000 0.66240  0.50150  0.80340  Biso   1.000  H
  H59      1.0000 0.66520  0.46300  0.84940  Biso   1.000  H
  C74      1.0000 0.59470  0.11520  0.48480  Biso   1.000  C
  H60      1.0000 0.59870  0.07760  0.50530  Biso   1.000  H
  N5       1.0000 0.59360  0.10330  0.44330  Biso   1.000  N
  C75      1.0000 0.57410  0.15520  0.40780  Biso   1.000  C
  H61      1.0000 0.58910  0.20010  0.41770  Biso   1.000  H
  H62      1.0000 0.58050  0.14080  0.38040  Biso   1.000  H
  C76      1.0000 0.52710  0.16720  0.39520  Biso   1.000  C
  H63      1.0000 0.51640  0.18840  0.36530  Biso   1.000  H
  H64      1.0000 0.52120  0.19840  0.41720  Biso   1.000  H
  H65      1.0000 0.51220  0.12280  0.39480  Biso   1.000  H
  C77      1.0000 0.60260  0.03010  0.43030  Biso   1.000  C
  H66      1.0000 0.62200  0.03210  0.41170  Biso   1.000  H
  H67      1.0000 0.61750  0.00280  0.45770  Biso   1.000  H
  C78      1.0000 0.55980  0.99560  0.40410  Biso   1.000  C
  H68      1.0000 0.56560  0.94950  0.39410  Biso   1.000  H
  H69      1.0000 0.54450  0.02410  0.37780  Biso   1.000  H
  H70      1.0000 0.54160  0.99090  0.42330  Biso   1.000  H
  O33      1.0000 0.58590  0.04170  0.67170  Biso   1.000  O
  C79      1.0000 0.56350  0.00930  0.63880  Biso   1.000  C
  H71      1.0000 0.54170  0.03170  0.61480  Biso   1.000  H
  O34      1.0000 0.57120  0.94040  0.63780  Biso   1.000  O
  C80      1.0000 0.85752  0.79037  0.56809  Biso   1.000  C
  C81      1.0000 0.85278  0.72273  0.58445  Biso   1.000  C
  C82      1.0000 0.84925  0.66549  0.55644  Biso   1.000  C
  C83      1.0000 0.85292  0.67400  0.51287  Biso   1.000  C
  C84      1.0000 0.64254  0.75971  0.50281  Biso   1.000  C
  C85      1.0000 0.86099  0.79881  0.52557  Biso   1.000  C
  C86      1.0000 0.65668  0.63928  0.50298  Biso   1.000  C
  C87      1.0000 0.81585  0.91339  0.51608  Biso   1.000  C
  C88      1.0000 0.81001  0.89467  0.55948  Biso   1.000  C
  C89      1.0000 0.83138  0.83854  0.58516  Biso   1.000  C
  C90      1.0000 0.81137  0.80032  0.61160  Biso   1.000  C
  C91      1.0000 0.82823  0.72804  0.61634  Biso   1.000  C
  C92      1.0000 0.79380  0.66666  0.61406  Biso   1.000  C
  C93      1.0000 0.78959  0.61289  0.57918  Biso   1.000  C
  C94      1.0000 0.81720  0.61016  0.55385  Biso   1.000  C
  C95      1.0000 0.80153  0.58538  0.50871  Biso   1.000  C
  C96      1.0000 0.82725  0.61832  0.48317  Biso   1.000  C
  C97      1.0000 0.69874  0.85828  0.56780  Biso   1.000  C
  C98      1.0000 0.69507  0.78416  0.57896  Biso   1.000  C
  C99      1.0000 0.66724  0.73836  0.54926  Biso   1.000  C
  C100     1.0000 0.67829  0.66730  0.54882  Biso   1.000  C
  C101     1.0000 0.71899  0.64421  0.57611  Biso   1.000  C
  C102     1.0000 0.74443  0.59559  0.55891  Biso   1.000  C
  C103     1.0000 0.72896  0.57100  0.51495  Biso   1.000  C
  C104     1.0000 0.75781  0.56806  0.48926  Biso   1.000  C
  C105     1.0000 0.76647  0.91074  0.55731  Biso   1.000  C
  C106     1.0000 0.74633  0.87349  0.58336  Biso   1.000  C
  C107     1.0000 0.76898  0.81625  0.60962  Biso   1.000  C
  C108     1.0000 0.73697  0.76028  0.60726  Biso   1.000  C
  C109     1.0000 0.74827  0.69050  0.60702  Biso   1.000  C
  C110     1.0000 0.85899  0.93415  0.50979  Biso   1.000  C
  C111     1.0000 0.83751  0.58876  0.44343  Biso   1.000  C
  C112     1.0000 0.83240  0.67965  0.65499  Biso   1.000  C
  O35      1.0000 0.90095  0.95410  0.58806  Biso   1.000  O
  C113     1.0000 0.89972  0.93954  0.55073  Biso   1.000  C
  O36      1.0000 0.93385  0.92309  0.53814  Biso   1.000  O
  C114     1.0000 0.97581  0.92067  0.57333  Biso   1.000  C
  H72      1.0000 0.97520  0.95140  0.59830  Biso   1.000  H
  H73      1.0000 0.99860  0.93830  0.56150  Biso   1.000  H
  C115     1.0000 0.98754  0.84756  0.59111  Biso   1.000  C
  O37      1.0000 0.96279  0.79868  0.57114  Biso   1.000  O
  O38      1.0000 0.02137  0.84032  0.62416  Biso   1.000  O
  O39      1.0000 0.83378  0.98356  0.43566  Biso   1.000  O
  C116     1.0000 0.85592  0.98747  0.47418  Biso   1.000  C
  O40      1.0000 0.88033  0.04246  0.49288  Biso   1.000  O
  C117     1.0000 0.88114  0.09628  0.46155  Biso   1.000  C
  H74      1.0000 0.89610  0.13770  0.47840  Biso   1.000  H
  H75      1.0000 0.85080  0.10970  0.44420  Biso   1.000  H
  C118     1.0000 0.90452  0.07353  0.42900  Biso   1.000  C
  O41      1.0000 0.92402  0.01765  0.43405  Biso   1.000  O
  O42      1.0000 0.90134  0.11783  0.39827  Biso   1.000  O
  O43      1.0000 0.89233  0.65631  0.42478  Biso   1.000  O
  C119     1.0000 0.88258  0.60781  0.44253  Biso   1.000  C
  O44      1.0000 0.90985  0.55948  0.46721  Biso   1.000  O
  C120     1.0000 0.95535  0.56730  0.47251  Biso   1.000  C
  H76      1.0000 0.95810  0.58810  0.44480  Biso   1.000  H
  H77      1.0000 0.96920  0.52080  0.47640  Biso   1.000  H
  C121     1.0000 0.97954  0.61297  0.51286  Biso   1.000  C
  O45      1.0000 0.95765  0.64422  0.53330  Biso   1.000  O
  O46      1.0000 0.01984  0.61538  0.52055  Biso   1.000  O
  O47      1.0000 0.80930  0.47560  0.44750  Biso   1.000  O
  C122     1.0000 0.82423  0.51565  0.42768  Biso   1.000  C
  O48      1.0000 0.82650  0.50860  0.38640  Biso   1.000  O
  C123     1.0000 0.82000  0.43950  0.36720  Biso   1.000  C
  H78      1.0000 0.80470  0.44220  0.33430  Biso   1.000  H
  H79      1.0000 0.80200  0.41150  0.38080  Biso   1.000  H
  C124     1.0000 0.86510  0.40550  0.37670  Biso   1.000  C
  O49      1.0000 0.88830  0.39973  0.41619  Biso   1.000  O
  O50      1.0000 0.87081  0.38170  0.34290  Biso   1.000  O
  O51      1.0000 0.86834  0.56894  0.65801  Biso   1.000  O
  C125     1.0000 0.87068  0.62965  0.66627  Biso   1.000  C
  O52      1.0000 0.90687  0.66498  0.68475  Biso   1.000  O
  C126     1.0000 0.94799  0.62830  0.69856  Biso   1.000  C
  H80      1.0000 0.94250  0.57760  0.69600  Biso   1.000  H
  H81      1.0000 0.96420  0.63910  0.73040  Biso   1.000  H
  C127     1.0000 0.97522  0.64887  0.66967  Biso   1.000  C
  O53      1.0000 0.95538  0.67112  0.63078  Biso   1.000  O
  O54      1.0000 0.01520  0.63888  0.68702  Biso   1.000  O
  O55      1.0000 0.80065  0.67920  0.71336  Biso   1.000  O
  C128     1.0000 0.82433  0.70724  0.69677  Biso   1.000  C
  O56      1.0000 0.84700  0.76429  0.71049  Biso   1.000  O
  C129     1.0000 0.84787  0.79170  0.75368  Biso   1.000  C
  H82      1.0000 0.81920  0.78380  0.75770  Biso   1.000  H
  H83      1.0000 0.85320  0.84250  0.75450  Biso   1.000  H
  C130     1.0000 0.88357  0.75680  0.79177  Biso   1.000  C
  O57      1.0000 0.89600  0.69821  0.78480  Biso   1.000  O
  O58      1.0000 0.89634  0.78899  0.82852  Biso   1.000  O
  Zn5      1.0000 0.98268  0.70253  0.58728  Biso   1.000  Zn
  Zn6      1.0000 0.08128  0.89082  0.65820  Biso   1.000  Zn
  Zn7      1.0000 0.07069  0.68291  0.55420  Biso   1.000  Zn
  Zn8      1.0000 0.06812  0.63607  0.66473  Biso   1.000  Zn
  O59      1.0000 0.04642  0.69601  0.60839  Biso   1.000  O
  O60      1.0000 0.06954  0.89205  0.71878  Biso   1.000  O
  O61      1.0000 0.09071  0.67440  0.49730  Biso   1.000  O
  C131     1.0000 0.12830  0.65470  0.49790  Biso   1.000  C
  H84      1.0000 0.14440  0.62720  0.52290  Biso   1.000  H
  N6       1.0000 0.14790  0.66800  0.46780  Biso   1.000  N
  C132     1.0000 0.12590  0.71380  0.42880  Biso   1.000  C
  H85      1.0000 0.09390  0.71070  0.42220  Biso   1.000  H
  H86      1.0000 0.13250  0.69660  0.40210  Biso   1.000  H
  C133     1.0000 0.13950  0.78810  0.43660  Biso   1.000  C
  H87      1.0000 0.12480  0.81510  0.40940  Biso   1.000  H
  H88      1.0000 0.17120  0.79150  0.44360  Biso   1.000  H
  H89      1.0000 0.13140  0.80640  0.46180  Biso   1.000  H
  C134     1.0000 0.19600  0.65050  0.47770  Biso   1.000  C
  H90      1.0000 0.21290  0.69360  0.47850  Biso   1.000  H
  H91      1.0000 0.20770  0.62720  0.50730  Biso   1.000  H
  C135     1.0000 0.19970  0.60290  0.44090  Biso   1.000  C
  H92      1.0000 0.23030  0.58920  0.44740  Biso   1.000  H
  H93      1.0000 0.18950  0.62740  0.41200  Biso   1.000  H
  H94      1.0000 0.18180  0.56140  0.43940  Biso   1.000  H
  O62      1.0000 0.08850  0.55280  0.71830  Biso   1.000  O
  O63      1.0000 0.03182  0.54890  0.61971  Biso   1.000  O
  C136     1.0000 0.02360  0.49530  0.63620  Biso   1.000  C
  H95      1.0000 0.04100  0.48390  0.66610  Biso   1.000  H
  N7       1.0000 0.99160  0.45190  0.61430  Biso   1.000  N
  C137     1.0000 0.95820  0.47070  0.57310  Biso   1.000  C
  H96      1.0000 0.97000  0.50620  0.55740  Biso   1.000  H
  H97      1.0000 0.95030  0.42930  0.55340  Biso   1.000  H
  C138     1.0000 0.91880  0.49820  0.58010  Biso   1.000  C
  H98      1.0000 0.90510  0.53270  0.55690  Biso   1.000  H
  H99      1.0000 0.89820  0.46010  0.57840  Biso   1.000  H
  H100     1.0000 0.92670  0.52010  0.60980  Biso   1.000  H
  C139     1.0000 0.98930  0.38330  0.63450  Biso   1.000  C
  H101     1.0000 0.00870  0.38330  0.66620  Biso   1.000  H
  H102     1.0000 0.95910  0.37510  0.63420  Biso   1.000  H
  C140     1.0000 0.00280  0.32440  0.60940  Biso   1.000  C
  H103     1.0000 0.00660  0.28160  0.62710  Biso   1.000  H
  H104     1.0000 0.98010  0.31740  0.58020  Biso   1.000  H
  H105     1.0000 0.03040  0.33640  0.60480  Biso   1.000  H
  O64      1.0000 0.81200  0.46730  0.44400  Biso   1.000  O
  O65      1.0000 0.83440  0.51020  0.38980  Biso   1.000  O
  C141     1.0000 0.82200  0.44800  0.36360  Biso   1.000  C
  H106     1.0000 0.82070  0.45780  0.33230  Biso   1.000  H
  H107     1.0000 0.79230  0.43410  0.36280  Biso   1.000  H
  C142     1.0000 0.85340  0.38750  0.38190  Biso   1.000  C
  O66      1.0000 0.83650  0.33240  0.36230  Biso   1.000  O
  H108     1.0000 0.85330  0.29880  0.37290  Biso   1.000  H
  C143     1.0000 0.05480  0.93970  0.73610  Biso   1.000  C
  H109     1.0000 0.04190  0.97820  0.71750  Biso   1.000  H
  N8       1.0000 0.05550  0.94100  0.77850  Biso   1.000  N
  C144     1.0000 0.08120  0.88430  0.81000  Biso   1.000  C
  H110     1.0000 0.10420  0.86540  0.79900  Biso   1.000  H
  H111     1.0000 0.09520  0.90330  0.84060  Biso   1.000  H
  C145     1.0000 0.05060  0.83070  0.81080  Biso   1.000  C
  H112     1.0000 0.06650  0.78870  0.82460  Biso   1.000  H
  H113     1.0000 0.03200  0.82030  0.78000  Biso   1.000  H
  H114     1.0000 0.03240  0.84650  0.82840  Biso   1.000  H
  C146     1.0000 0.02680  0.99160  0.79280  Biso   1.000  C
  H115     1.0000 0.01350  0.96820  0.81320  Biso   1.000  H
  H116     1.0000 0.00300  0.00850  0.76620  Biso   1.000  H
  C147     1.0000 0.05470  0.05230  0.81690  Biso   1.000  C
  H117     1.0000 0.03650  0.08560  0.82620  Biso   1.000  H
  H118     1.0000 0.06770  0.07530  0.79660  Biso   1.000  H
  H119     1.0000 0.07800  0.03530  0.84350  Biso   1.000  H
  C148     1.0000 0.08530  0.94110  0.74610  Biso   1.000  C
  H120     1.0000 0.09670  0.98090  0.73580  Biso   1.000  H
  N9       1.0000 0.08640  0.93880  0.78820  Biso   1.000  N
  C149     1.0000 0.05240  0.89380  0.79770  Biso   1.000  C
  H121     1.0000 0.06760  0.86220  0.82280  Biso   1.000  H
  H122     1.0000 0.03330  0.92430  0.80830  Biso   1.000  H
  C150     1.0000 0.02450  0.85110  0.76060  Biso   1.000  C
  H123     1.0000 0.02540  0.86940  0.73190  Biso   1.000  H
  H124     1.0000 0.99440  0.85240  0.76100  Biso   1.000  H
  H125     1.0000 0.03500  0.80300  0.76430  Biso   1.000  H
  C151     1.0000 0.10370  0.00450  0.81670  Biso   1.000  C
  H126     1.0000 0.09190  0.04670  0.79890  Biso   1.000  H
  H127     1.0000 0.09460  0.00450  0.84370  Biso   1.000  H
  C152     1.0000 0.15380  0.00370  0.83040  Biso   1.000  C
  H128     1.0000 0.16560  0.04610  0.84730  Biso   1.000  H
  H129     1.0000 0.16240  0.00150  0.80340  Biso   1.000  H
  H130     1.0000 0.16520  0.96300  0.84940  Biso   1.000  H
  C153     1.0000 0.09470  0.61520  0.48480  Biso   1.000  C
  H131     1.0000 0.09870  0.57760  0.50530  Biso   1.000  H
  N10      1.0000 0.09360  0.60330  0.44330  Biso   1.000  N
  C154     1.0000 0.07410  0.65520  0.40780  Biso   1.000  C
  H132     1.0000 0.08910  0.70010  0.41770  Biso   1.000  H
  H133     1.0000 0.08050  0.64080  0.38040  Biso   1.000  H
  C155     1.0000 0.02710  0.66720  0.39520  Biso   1.000  C
  H134     1.0000 0.01640  0.68840  0.36530  Biso   1.000  H
  H135     1.0000 0.02120  0.69840  0.41720  Biso   1.000  H
  H136     1.0000 0.01220  0.62280  0.39480  Biso   1.000  H
  C156     1.0000 0.10260  0.53010  0.43030  Biso   1.000  C
  H137     1.0000 0.12200  0.53210  0.41170  Biso   1.000  H
  H138     1.0000 0.11750  0.50280  0.45770  Biso   1.000  H
  C157     1.0000 0.05980  0.49560  0.40410  Biso   1.000  C
  H139     1.0000 0.06560  0.44950  0.39410  Biso   1.000  H
  H140     1.0000 0.04450  0.52410  0.37780  Biso   1.000  H
  H141     1.0000 0.04160  0.49090  0.42330  Biso   1.000  H
  O67      1.0000 0.08590  0.54170  0.67170  Biso   1.000  O
  C158     1.0000 0.06350  0.50930  0.63880  Biso   1.000  C
  H142     1.0000 0.04170  0.53170  0.61480  Biso   1.000  H
  O68      1.0000 0.07120  0.44040  0.63780  Biso   1.000  O
  C159     1.0000 0.64248  0.29037  0.93191  Biso   1.000  C
  C160     1.0000 0.64722  0.22273  0.91555  Biso   1.000  C
  C161     1.0000 0.65075  0.16549  0.94356  Biso   1.000  C
  C162     1.0000 0.64708  0.17400  0.98713  Biso   1.000  C
  C163     1.0000 0.85746  0.25971  0.99719  Biso   1.000  C
  C164     1.0000 0.63901  0.29881  0.97443  Biso   1.000  C
  C165     1.0000 0.84332  0.13928  0.99702  Biso   1.000  C
  C166     1.0000 0.68415  0.41339  0.98392  Biso   1.000  C
  C167     1.0000 0.68999  0.39467  0.94052  Biso   1.000  C
  C168     1.0000 0.66862  0.33854  0.91484  Biso   1.000  C
  C169     1.0000 0.68863  0.30032  0.88840  Biso   1.000  C
  C170     1.0000 0.67177  0.22804  0.88366  Biso   1.000  C
  C171     1.0000 0.70620  0.16666  0.88594  Biso   1.000  C
  C172     1.0000 0.71041  0.11289  0.92082  Biso   1.000  C
  C173     1.0000 0.68280  0.11016  0.94615  Biso   1.000  C
  C174     1.0000 0.69847  0.08538  0.99129  Biso   1.000  C
  C175     1.0000 0.67275  0.11832  0.01683  Biso   1.000  C
  C176     1.0000 0.80126  0.35828  0.93220  Biso   1.000  C
  C177     1.0000 0.80493  0.28416  0.92104  Biso   1.000  C
  C178     1.0000 0.83276  0.23836  0.95074  Biso   1.000  C
  C179     1.0000 0.82171  0.16730  0.95118  Biso   1.000  C
  C180     1.0000 0.78101  0.14421  0.92389  Biso   1.000  C
  C181     1.0000 0.75557  0.09559  0.94109  Biso   1.000  C
  C182     1.0000 0.77104  0.07100  0.98505  Biso   1.000  C
  C183     1.0000 0.74219  0.06806  0.01074  Biso   1.000  C
  C184     1.0000 0.73353  0.41074  0.94269  Biso   1.000  C
  C185     1.0000 0.75367  0.37349  0.91664  Biso   1.000  C
  C186     1.0000 0.73102  0.31625  0.89038  Biso   1.000  C
  C187     1.0000 0.76303  0.26028  0.89274  Biso   1.000  C
  C188     1.0000 0.75173  0.19050  0.89298  Biso   1.000  C
  C189     1.0000 0.64101  0.43415  0.99021  Biso   1.000  C
  C190     1.0000 0.66249  0.08876  0.05657  Biso   1.000  C
  C191     1.0000 0.66760  0.17965  0.84501  Biso   1.000  C
  O69      1.0000 0.59905  0.45410  0.91194  Biso   1.000  O
  C192     1.0000 0.60028  0.43954  0.94927  Biso   1.000  C
  O70      1.0000 0.56615  0.42309  0.96186  Biso   1.000  O
  C193     1.0000 0.52419  0.42067  0.92667  Biso   1.000  C
  H143     1.0000 0.52480  0.45140  0.90170  Biso   1.000  H
  H144     1.0000 0.50140  0.43830  0.93850  Biso   1.000  H
  C194     1.0000 0.51246  0.34756  0.90889  Biso   1.000  C
  O71      1.0000 0.53721  0.29868  0.92886  Biso   1.000  O
  O72      1.0000 0.47863  0.34032  0.87584  Biso   1.000  O
  O73      1.0000 0.66622  0.48356  0.06434  Biso   1.000  O
  C195     1.0000 0.64408  0.48747  0.02582  Biso   1.000  C
  O74      1.0000 0.61967  0.54246  0.00712  Biso   1.000  O
  C196     1.0000 0.61886  0.59628  0.03845  Biso   1.000  C
  H145     1.0000 0.60390  0.63770  0.02160  Biso   1.000  H
  H146     1.0000 0.64920  0.60970  0.05580  Biso   1.000  H
  C197     1.0000 0.59548  0.57353  0.07100  Biso   1.000  C
  O75      1.0000 0.57598  0.51765  0.06595  Biso   1.000  O
  O76      1.0000 0.59866  0.61783  0.10173  Biso   1.000  O
  O77      1.0000 0.60767  0.15631  0.07522  Biso   1.000  O
  C198     1.0000 0.61742  0.10781  0.05747  Biso   1.000  C
  O78      1.0000 0.59015  0.05948  0.03279  Biso   1.000  O
  C199     1.0000 0.54465  0.06730  0.02749  Biso   1.000  C
  H147     1.0000 0.54190  0.08810  0.05520  Biso   1.000  H
  H148     1.0000 0.53080  0.02080  0.02360  Biso   1.000  H
  C200     1.0000 0.52046  0.11297  0.98714  Biso   1.000  C
  O79      1.0000 0.54235  0.14422  0.96670  Biso   1.000  O
  O80      1.0000 0.48016  0.11538  0.97945  Biso   1.000  O
  O81      1.0000 0.69070  0.97560  0.05250  Biso   1.000  O
  C201     1.0000 0.67577  0.01565  0.07232  Biso   1.000  C
  O82      1.0000 0.67350  0.00860  0.11360  Biso   1.000  O
  C202     1.0000 0.68000  0.93950  0.13280  Biso   1.000  C
  H149     1.0000 0.69530  0.94220  0.16570  Biso   1.000  H
  H150     1.0000 0.69800  0.91150  0.11920  Biso   1.000  H
  C203     1.0000 0.63490  0.90550  0.12330  Biso   1.000  C
  O83      1.0000 0.61170  0.89973  0.08381  Biso   1.000  O
  O84      1.0000 0.62919  0.88170  0.15710  Biso   1.000  O
  O85      1.0000 0.63166  0.06894  0.84199  Biso   1.000  O
  C204     1.0000 0.62932  0.12965  0.83373  Biso   1.000  C
  O86      1.0000 0.59313  0.16498  0.81525  Biso   1.000  O
  C205     1.0000 0.55201  0.12830  0.80144  Biso   1.000  C
  H151     1.0000 0.55750  0.07760  0.80400  Biso   1.000  H
  H152     1.0000 0.53580  0.13910  0.76960  Biso   1.000  H
  C206     1.0000 0.52478  0.14887  0.83033  Biso   1.000  C
  O87      1.0000 0.54462  0.17112  0.86922  Biso   1.000  O
  O88      1.0000 0.48480  0.13888  0.81298  Biso   1.000  O
  O89      1.0000 0.69935  0.17920  0.78664  Biso   1.000  O
  C207     1.0000 0.67567  0.20724  0.80323  Biso   1.000  C
  O90      1.0000 0.65300  0.26429  0.78951  Biso   1.000  O
  C208     1.0000 0.65213  0.29170  0.74632  Biso   1.000  C
  H153     1.0000 0.68080  0.28380  0.74230  Biso   1.000  H
  H154     1.0000 0.64680  0.34250  0.74550  Biso   1.000  H
  C209     1.0000 0.61643  0.25680  0.70823  Biso   1.000  C
  O91      1.0000 0.60400  0.19821  0.71520  Biso   1.000  O
  O92      1.0000 0.60366  0.28899  0.67148  Biso   1.000  O
  Zn9      1.0000 0.51732  0.20253  0.91272  Biso   1.000  Zn
  Zn10     1.0000 0.41872  0.39082  0.84180  Biso   1.000  Zn
  Zn11     1.0000 0.42931  0.18291  0.94580  Biso   1.000  Zn
  Zn12     1.0000 0.43188  0.13607  0.83527  Biso   1.000  Zn
  O93      1.0000 0.45358  0.19601  0.89161  Biso   1.000  O
  O94      1.0000 0.43046  0.39205  0.78122  Biso   1.000  O
  O95      1.0000 0.40929  0.17440  0.00270  Biso   1.000  O
  C210     1.0000 0.37170  0.15470  0.00210  Biso   1.000  C
  H155     1.0000 0.35560  0.12720  0.97710  Biso   1.000  H
  N11      1.0000 0.35210  0.16800  0.03220  Biso   1.000  N
  C211     1.0000 0.37410  0.21380  0.07120  Biso   1.000  C
  H156     1.0000 0.40610  0.21070  0.07780  Biso   1.000  H
  H157     1.0000 0.36750  0.19660  0.09790  Biso   1.000  H
  C212     1.0000 0.36050  0.28810  0.06340  Biso   1.000  C
  H158     1.0000 0.37520  0.31510  0.09060  Biso   1.000  H
  H159     1.0000 0.32880  0.29150  0.05640  Biso   1.000  H
  H160     1.0000 0.36860  0.30640  0.03820  Biso   1.000  H
  C213     1.0000 0.30400  0.15050  0.02230  Biso   1.000  C
  H161     1.0000 0.28710  0.19360  0.02150  Biso   1.000  H
  H162     1.0000 0.29230  0.12720  0.99270  Biso   1.000  H
  C214     1.0000 0.30030  0.10290  0.05910  Biso   1.000  C
  H163     1.0000 0.26970  0.08920  0.05260  Biso   1.000  H
  H164     1.0000 0.31050  0.12740  0.08800  Biso   1.000  H
  H165     1.0000 0.31820  0.06140  0.06060  Biso   1.000  H
  O96      1.0000 0.41150  0.05280  0.78170  Biso   1.000  O
  O97      1.0000 0.46818  0.04890  0.88029  Biso   1.000  O
  C215     1.0000 0.47640  0.99530  0.86380  Biso   1.000  C
  H166     1.0000 0.45900  0.98390  0.83390  Biso   1.000  H
  N12      1.0000 0.50840  0.95190  0.88570  Biso   1.000  N
  C216     1.0000 0.54180  0.97070  0.92690  Biso   1.000  C
  H167     1.0000 0.53000  0.00620  0.94260  Biso   1.000  H
  H168     1.0000 0.54970  0.92930  0.94660  Biso   1.000  H
  C217     1.0000 0.58120  0.99820  0.91990  Biso   1.000  C
  H169     1.0000 0.59490  0.03270  0.94310  Biso   1.000  H
  H170     1.0000 0.60180  0.96010  0.92160  Biso   1.000  H
  H171     1.0000 0.57330  0.02010  0.89020  Biso   1.000  H
  C218     1.0000 0.51070  0.88330  0.86550  Biso   1.000  C
  H172     1.0000 0.49130  0.88330  0.83380  Biso   1.000  H
  H173     1.0000 0.54090  0.87510  0.86580  Biso   1.000  H
  C219     1.0000 0.49720  0.82440  0.89060  Biso   1.000  C
  H174     1.0000 0.49340  0.78160  0.87290  Biso   1.000  H
  H175     1.0000 0.51990  0.81740  0.91980  Biso   1.000  H
  H176     1.0000 0.46960  0.83640  0.89520  Biso   1.000  H
  O98      1.0000 0.68800  0.96730  0.05600  Biso   1.000  O
  O99      1.0000 0.66560  0.01020  0.11020  Biso   1.000  O
  C220     1.0000 0.67800  0.94800  0.13640  Biso   1.000  C
  H177     1.0000 0.67930  0.95780  0.16770  Biso   1.000  H
  H178     1.0000 0.70770  0.93410  0.13720  Biso   1.000  H
  C221     1.0000 0.64660  0.88750  0.11810  Biso   1.000  C
  O100     1.0000 0.66350  0.83240  0.13770  Biso   1.000  O
  H179     1.0000 0.64670  0.79880  0.12710  Biso   1.000  H
  C222     1.0000 0.44520  0.43970  0.76390  Biso   1.000  C
  H180     1.0000 0.45810  0.47820  0.78250  Biso   1.000  H
  N13      1.0000 0.44450  0.44100  0.72150  Biso   1.000  N
  C223     1.0000 0.41880  0.38430  0.69000  Biso   1.000  C
  H181     1.0000 0.39580  0.36540  0.70100  Biso   1.000  H
  H182     1.0000 0.40480  0.40330  0.65940  Biso   1.000  H
  C224     1.0000 0.44940  0.33070  0.68920  Biso   1.000  C
  H183     1.0000 0.43350  0.28870  0.67540  Biso   1.000  H
  H184     1.0000 0.46800  0.32030  0.72000  Biso   1.000  H
  H185     1.0000 0.46760  0.34650  0.67160  Biso   1.000  H
  C225     1.0000 0.47320  0.49160  0.70720  Biso   1.000  C
  H186     1.0000 0.48650  0.46820  0.68680  Biso   1.000  H
  H187     1.0000 0.49700  0.50850  0.73380  Biso   1.000  H
  C226     1.0000 0.44530  0.55230  0.68310  Biso   1.000  C
  H188     1.0000 0.46350  0.58560  0.67380  Biso   1.000  H
  H189     1.0000 0.43230  0.57530  0.70340  Biso   1.000  H
  H190     1.0000 0.42200  0.53530  0.65650  Biso   1.000  H
  C227     1.0000 0.41470  0.44110  0.75390  Biso   1.000  C
  H191     1.0000 0.40330  0.48090  0.76420  Biso   1.000  H
  N14      1.0000 0.41360  0.43880  0.71180  Biso   1.000  N
  C228     1.0000 0.44760  0.39380  0.70230  Biso   1.000  C
  H192     1.0000 0.43240  0.36220  0.67720  Biso   1.000  H
  H193     1.0000 0.46670  0.42430  0.69170  Biso   1.000  H
  C229     1.0000 0.47550  0.35110  0.73940  Biso   1.000  C
  H194     1.0000 0.47460  0.36940  0.76810  Biso   1.000  H
  H195     1.0000 0.50560  0.35240  0.73900  Biso   1.000  H
  H196     1.0000 0.46500  0.30300  0.73570  Biso   1.000  H
  C230     1.0000 0.39630  0.50450  0.68330  Biso   1.000  C
  H197     1.0000 0.40810  0.54670  0.70110  Biso   1.000  H
  H198     1.0000 0.40540  0.50450  0.65630  Biso   1.000  H
  C231     1.0000 0.34620  0.50370  0.66960  Biso   1.000  C
  H199     1.0000 0.33440  0.54610  0.65270  Biso   1.000  H
  H200     1.0000 0.33760  0.50150  0.69660  Biso   1.000  H
  H201     1.0000 0.33480  0.46300  0.65060  Biso   1.000  H
  C232     1.0000 0.40530  0.11520  0.01520  Biso   1.000  C
  H202     1.0000 0.40130  0.07760  0.99470  Biso   1.000  H
  N15      1.0000 0.40640  0.10330  0.05670  Biso   1.000  N
  C233     1.0000 0.42590  0.15520  0.09220  Biso   1.000  C
  H203     1.0000 0.41090  0.20010  0.08230  Biso   1.000  H
  H204     1.0000 0.41950  0.14080  0.11960  Biso   1.000  H
  C234     1.0000 0.47290  0.16720  0.10480  Biso   1.000  C
  H205     1.0000 0.48360  0.18840  0.13470  Biso   1.000  H
  H206     1.0000 0.47880  0.19840  0.08280  Biso   1.000  H
  H207     1.0000 0.48780  0.12280  0.10520  Biso   1.000  H
  C235     1.0000 0.39740  0.03010  0.06970  Biso   1.000  C
  H208     1.0000 0.37800  0.03210  0.08830  Biso   1.000  H
  H209     1.0000 0.38250  0.00280  0.04230  Biso   1.000  H
  C236     1.0000 0.44020  0.99560  0.09590  Biso   1.000  C
  H210     1.0000 0.43440  0.94950  0.10590  Biso   1.000  H
  H211     1.0000 0.45550  0.02410  0.12220  Biso   1.000  H
  H212     1.0000 0.45840  0.99090  0.07670  Biso   1.000  H
  O101     1.0000 0.41410  0.04170  0.82830  Biso   1.000  O
  C237     1.0000 0.43650  0.00930  0.86120  Biso   1.000  C
  H213     1.0000 0.45830  0.03170  0.88520  Biso   1.000  H
  O102     1.0000 0.42880  0.94040  0.86220  Biso   1.000  O
  C238     1.0000 0.14248  0.79037  0.93191  Biso   1.000  C
  C239     1.0000 0.14722  0.72273  0.91555  Biso   1.000  C
  C240     1.0000 0.15075  0.66549  0.94356  Biso   1.000  C
  C241     1.0000 0.14708  0.67400  0.98713  Biso   1.000  C
  C242     1.0000 0.35746  0.75971  0.99719  Biso   1.000  C
  C243     1.0000 0.13901  0.79881  0.97443  Biso   1.000  C
  C244     1.0000 0.34332  0.63928  0.99702  Biso   1.000  C
  C245     1.0000 0.18415  0.91339  0.98392  Biso   1.000  C
  C246     1.0000 0.18999  0.89467  0.94052  Biso   1.000  C
  C247     1.0000 0.16862  0.83854  0.91484  Biso   1.000  C
  C248     1.0000 0.18863  0.80032  0.88840  Biso   1.000  C
  C249     1.0000 0.17177  0.72804  0.88366  Biso   1.000  C
  C250     1.0000 0.20620  0.66666  0.88594  Biso   1.000  C
  C251     1.0000 0.21041  0.61289  0.92082  Biso   1.000  C
  C252     1.0000 0.18280  0.61016  0.94615  Biso   1.000  C
  C253     1.0000 0.19847  0.58538  0.99129  Biso   1.000  C
  C254     1.0000 0.17275  0.61832  0.01683  Biso   1.000  C
  C255     1.0000 0.30126  0.85828  0.93220  Biso   1.000  C
  C256     1.0000 0.30493  0.78416  0.92104  Biso   1.000  C
  C257     1.0000 0.33276  0.73836  0.95074  Biso   1.000  C
  C258     1.0000 0.32171  0.66730  0.95118  Biso   1.000  C
  C259     1.0000 0.28101  0.64421  0.92389  Biso   1.000  C
  C260     1.0000 0.25557  0.59559  0.94109  Biso   1.000  C
  C261     1.0000 0.27104  0.57100  0.98505  Biso   1.000  C
  C262     1.0000 0.24219  0.56806  0.01074  Biso   1.000  C
  C263     1.0000 0.23353  0.91074  0.94269  Biso   1.000  C
  C264     1.0000 0.25367  0.87349  0.91664  Biso   1.000  C
  C265     1.0000 0.23102  0.81625  0.89038  Biso   1.000  C
  C266     1.0000 0.26303  0.76028  0.89274  Biso   1.000  C
  C267     1.0000 0.25173  0.69050  0.89298  Biso   1.000  C
  C268     1.0000 0.14101  0.93415  0.99021  Biso   1.000  C
  C269     1.0000 0.16249  0.58876  0.05657  Biso   1.000  C
  C270     1.0000 0.16760  0.67965  0.84501  Biso   1.000  C
  O103     1.0000 0.09905  0.95410  0.91194  Biso   1.000  O
  C271     1.0000 0.10028  0.93954  0.94927  Biso   1.000  C
  O104     1.0000 0.06615  0.92309  0.96186  Biso   1.000  O
  C272     1.0000 0.02419  0.92067  0.92667  Biso   1.000  C
  H214     1.0000 0.02480  0.95140  0.90170  Biso   1.000  H
  H215     1.0000 0.00140  0.93830  0.93850  Biso   1.000  H
  C273     1.0000 0.01246  0.84756  0.90889  Biso   1.000  C
  O105     1.0000 0.03721  0.79868  0.92886  Biso   1.000  O
  O106     1.0000 0.97863  0.84032  0.87584  Biso   1.000  O
  O107     1.0000 0.16622  0.98356  0.06434  Biso   1.000  O
  C274     1.0000 0.14408  0.98747  0.02582  Biso   1.000  C
  O108     1.0000 0.11967  0.04246  0.00712  Biso   1.000  O
  C275     1.0000 0.11886  0.09628  0.03845  Biso   1.000  C
  H216     1.0000 0.10390  0.13770  0.02160  Biso   1.000  H
  H217     1.0000 0.14920  0.10970  0.05580  Biso   1.000  H
  C276     1.0000 0.09548  0.07353  0.07100  Biso   1.000  C
  O109     1.0000 0.07598  0.01765  0.06595  Biso   1.000  O
  O110     1.0000 0.09866  0.11783  0.10173  Biso   1.000  O
  O111     1.0000 0.10767  0.65631  0.07522  Biso   1.000  O
  C277     1.0000 0.11742  0.60781  0.05747  Biso   1.000  C
  O112     1.0000 0.09015  0.55948  0.03279  Biso   1.000  O
  C278     1.0000 0.04465  0.56730  0.02749  Biso   1.000  C
  H218     1.0000 0.04190  0.58810  0.05520  Biso   1.000  H
  H219     1.0000 0.03080  0.52080  0.02360  Biso   1.000  H
  C279     1.0000 0.02046  0.61297  0.98714  Biso   1.000  C
  O113     1.0000 0.04235  0.64422  0.96670  Biso   1.000  O
  O114     1.0000 0.98016  0.61538  0.97945  Biso   1.000  O
  O115     1.0000 0.19070  0.47560  0.05250  Biso   1.000  O
  C280     1.0000 0.17577  0.51565  0.07232  Biso   1.000  C
  O116     1.0000 0.17350  0.50860  0.11360  Biso   1.000  O
  C281     1.0000 0.18000  0.43950  0.13280  Biso   1.000  C
  H220     1.0000 0.19530  0.44220  0.16570  Biso   1.000  H
  H221     1.0000 0.19800  0.41150  0.11920  Biso   1.000  H
  C282     1.0000 0.13490  0.40550  0.12330  Biso   1.000  C
  O117     1.0000 0.11170  0.39973  0.08381  Biso   1.000  O
  O118     1.0000 0.12919  0.38170  0.15710  Biso   1.000  O
  O119     1.0000 0.13166  0.56894  0.84199  Biso   1.000  O
  C283     1.0000 0.12932  0.62965  0.83373  Biso   1.000  C
  O120     1.0000 0.09313  0.66498  0.81525  Biso   1.000  O
  C284     1.0000 0.05201  0.62830  0.80144  Biso   1.000  C
  H222     1.0000 0.05750  0.57760  0.80400  Biso   1.000  H
  H223     1.0000 0.03580  0.63910  0.76960  Biso   1.000  H
  C285     1.0000 0.02478  0.64887  0.83033  Biso   1.000  C
  O121     1.0000 0.04462  0.67112  0.86922  Biso   1.000  O
  O122     1.0000 0.98480  0.63888  0.81298  Biso   1.000  O
  O123     1.0000 0.19935  0.67920  0.78664  Biso   1.000  O
  C286     1.0000 0.17567  0.70724  0.80323  Biso   1.000  C
  O124     1.0000 0.15300  0.76429  0.78951  Biso   1.000  O
  C287     1.0000 0.15213  0.79170  0.74632  Biso   1.000  C
  H224     1.0000 0.18080  0.78380  0.74230  Biso   1.000  H
  H225     1.0000 0.14680  0.84250  0.74550  Biso   1.000  H
  C288     1.0000 0.11643  0.75680  0.70823  Biso   1.000  C
  O125     1.0000 0.10400  0.69821  0.71520  Biso   1.000  O
  O126     1.0000 0.10366  0.78899  0.67148  Biso   1.000  O
  Zn13     1.0000 0.01732  0.70253  0.91272  Biso   1.000  Zn
  Zn14     1.0000 0.91872  0.89082  0.84180  Biso   1.000  Zn
  Zn15     1.0000 0.92931  0.68291  0.94580  Biso   1.000  Zn
  Zn16     1.0000 0.93188  0.63607  0.83527  Biso   1.000  Zn
  O127     1.0000 0.95358  0.69601  0.89161  Biso   1.000  O
  O128     1.0000 0.93046  0.89205  0.78122  Biso   1.000  O
  O129     1.0000 0.90929  0.67440  0.00270  Biso   1.000  O
  C289     1.0000 0.87170  0.65470  0.00210  Biso   1.000  C
  H226     1.0000 0.85560  0.62720  0.97710  Biso   1.000  H
  N16      1.0000 0.85210  0.66800  0.03220  Biso   1.000  N
  C290     1.0000 0.87410  0.71380  0.07120  Biso   1.000  C
  H227     1.0000 0.90610  0.71070  0.07780  Biso   1.000  H
  H228     1.0000 0.86750  0.69660  0.09790  Biso   1.000  H
  C291     1.0000 0.86050  0.78810  0.06340  Biso   1.000  C
  H229     1.0000 0.87520  0.81510  0.09060  Biso   1.000  H
  H230     1.0000 0.82880  0.79150  0.05640  Biso   1.000  H
  H231     1.0000 0.86860  0.80640  0.03820  Biso   1.000  H
  C292     1.0000 0.80400  0.65050  0.02230  Biso   1.000  C
  H232     1.0000 0.78710  0.69360  0.02150  Biso   1.000  H
  H233     1.0000 0.79230  0.62720  0.99270  Biso   1.000  H
  C293     1.0000 0.80030  0.60290  0.05910  Biso   1.000  C
  H234     1.0000 0.76970  0.58920  0.05260  Biso   1.000  H
  H235     1.0000 0.81050  0.62740  0.08800  Biso   1.000  H
  H236     1.0000 0.81820  0.56140  0.06060  Biso   1.000  H
  O130     1.0000 0.91150  0.55280  0.78170  Biso   1.000  O
  O131     1.0000 0.96818  0.54890  0.88029  Biso   1.000  O
  C294     1.0000 0.97640  0.49530  0.86380  Biso   1.000  C
  H237     1.0000 0.95900  0.48390  0.83390  Biso   1.000  H
  N17      1.0000 0.00840  0.45190  0.88570  Biso   1.000  N
  C295     1.0000 0.04180  0.47070  0.92690  Biso   1.000  C
  H238     1.0000 0.03000  0.50620  0.94260  Biso   1.000  H
  H239     1.0000 0.04970  0.42930  0.94660  Biso   1.000  H
  C296     1.0000 0.08120  0.49820  0.91990  Biso   1.000  C
  H240     1.0000 0.09490  0.53270  0.94310  Biso   1.000  H
  H241     1.0000 0.10180  0.46010  0.92160  Biso   1.000  H
  H242     1.0000 0.07330  0.52010  0.89020  Biso   1.000  H
  C297     1.0000 0.01070  0.38330  0.86550  Biso   1.000  C
  H243     1.0000 0.99130  0.38330  0.83380  Biso   1.000  H
  H244     1.0000 0.04090  0.37510  0.86580  Biso   1.000  H
  C298     1.0000 0.99720  0.32440  0.89060  Biso   1.000  C
  H245     1.0000 0.99340  0.28160  0.87290  Biso   1.000  H
  H246     1.0000 0.01990  0.31740  0.91980  Biso   1.000  H
  H247     1.0000 0.96960  0.33640  0.89520  Biso   1.000  H
  O132     1.0000 0.18800  0.46730  0.05600  Biso   1.000  O
  O133     1.0000 0.16560  0.51020  0.11020  Biso   1.000  O
  C299     1.0000 0.17800  0.44800  0.13640  Biso   1.000  C
  H248     1.0000 0.17930  0.45780  0.16770  Biso   1.000  H
  H249     1.0000 0.20770  0.43410  0.13720  Biso   1.000  H
  C300     1.0000 0.14660  0.38750  0.11810  Biso   1.000  C
  O134     1.0000 0.16350  0.33240  0.13770  Biso   1.000  O
  H250     1.0000 0.14670  0.29880  0.12710  Biso   1.000  H
  C301     1.0000 0.94520  0.93970  0.76390  Biso   1.000  C
  H251     1.0000 0.95810  0.97820  0.78250  Biso   1.000  H
  N18      1.0000 0.94450  0.94100  0.72150  Biso   1.000  N
  C302     1.0000 0.91880  0.88430  0.69000  Biso   1.000  C
  H252     1.0000 0.89580  0.86540  0.70100  Biso   1.000  H
  H253     1.0000 0.90480  0.90330  0.65940  Biso   1.000  H
  C303     1.0000 0.94940  0.83070  0.68920  Biso   1.000  C
  H254     1.0000 0.93350  0.78870  0.67540  Biso   1.000  H
  H255     1.0000 0.96800  0.82030  0.72000  Biso   1.000  H
  H256     1.0000 0.96760  0.84650  0.67160  Biso   1.000  H
  C304     1.0000 0.97320  0.99160  0.70720  Biso   1.000  C
  H257     1.0000 0.98650  0.96820  0.68680  Biso   1.000  H
  H258     1.0000 0.99700  0.00850  0.73380  Biso   1.000  H
  C305     1.0000 0.94530  0.05230  0.68310  Biso   1.000  C
  H259     1.0000 0.96350  0.08560  0.67380  Biso   1.000  H
  H260     1.0000 0.93230  0.07530  0.70340  Biso   1.000  H
  H261     1.0000 0.92200  0.03530  0.65650  Biso   1.000  H
  C306     1.0000 0.91470  0.94110  0.75390  Biso   1.000  C
  H262     1.0000 0.90330  0.98090  0.76420  Biso   1.000  H
  N19      1.0000 0.91360  0.93880  0.71180  Biso   1.000  N
  C307     1.0000 0.94760  0.89380  0.70230  Biso   1.000  C
  H263     1.0000 0.93240  0.86220  0.67720  Biso   1.000  H
  H264     1.0000 0.96670  0.92430  0.69170  Biso   1.000  H
  C308     1.0000 0.97550  0.85110  0.73940  Biso   1.000  C
  H265     1.0000 0.97460  0.86940  0.76810  Biso   1.000  H
  H266     1.0000 0.00560  0.85240  0.73900  Biso   1.000  H
  H267     1.0000 0.96500  0.80300  0.73570  Biso   1.000  H
  C309     1.0000 0.89630  0.00450  0.68330  Biso   1.000  C
  H268     1.0000 0.90810  0.04670  0.70110  Biso   1.000  H
  H269     1.0000 0.90540  0.00450  0.65630  Biso   1.000  H
  C310     1.0000 0.84620  0.00370  0.66960  Biso   1.000  C
  H270     1.0000 0.83440  0.04610  0.65270  Biso   1.000  H
  H271     1.0000 0.83760  0.00150  0.69660  Biso   1.000  H
  H272     1.0000 0.83480  0.96300  0.65060  Biso   1.000  H
  C311     1.0000 0.90530  0.61520  0.01520  Biso   1.000  C
  H273     1.0000 0.90130  0.57760  0.99470  Biso   1.000  H
  N20      1.0000 0.90640  0.60330  0.05670  Biso   1.000  N
  C312     1.0000 0.92590  0.65520  0.09220  Biso   1.000  C
  H274     1.0000 0.91090  0.70010  0.08230  Biso   1.000  H
  H275     1.0000 0.91950  0.64080  0.11960  Biso   1.000  H
  C313     1.0000 0.97290  0.66720  0.10480  Biso   1.000  C
  H276     1.0000 0.98360  0.68840  0.13470  Biso   1.000  H
  H277     1.0000 0.97880  0.69840  0.08280  Biso   1.000  H
  H278     1.0000 0.98780  0.62280  0.10520  Biso   1.000  H
  C314     1.0000 0.89740  0.53010  0.06970  Biso   1.000  C
  H279     1.0000 0.87800  0.53210  0.08830  Biso   1.000  H
  H280     1.0000 0.88250  0.50280  0.04230  Biso   1.000  H
  C315     1.0000 0.94020  0.49560  0.09590  Biso   1.000  C
  H281     1.0000 0.93440  0.44950  0.10590  Biso   1.000  H
  H282     1.0000 0.95550  0.52410  0.12220  Biso   1.000  H
  H283     1.0000 0.95840  0.49090  0.07670  Biso   1.000  H
  O135     1.0000 0.91410  0.54170  0.82830  Biso   1.000  O
  C316     1.0000 0.93650  0.50930  0.86120  Biso   1.000  C
  H284     1.0000 0.95830  0.53170  0.88520  Biso   1.000  H
  O136     1.0000 0.92880  0.44040  0.86220  Biso   1.000  O
  C317     1.0000 0.64248  0.70963  0.43191  Biso   1.000  C
  C318     1.0000 0.64722  0.77727  0.41555  Biso   1.000  C
  C319     1.0000 0.65075  0.83451  0.44356  Biso   1.000  C
  C320     1.0000 0.64708  0.82600  0.48713  Biso   1.000  C
  C321     1.0000 0.85746  0.74029  0.49719  Biso   1.000  C
  C322     1.0000 0.63901  0.70119  0.47443  Biso   1.000  C
  C323     1.0000 0.84332  0.86072  0.49702  Biso   1.000  C
  C324     1.0000 0.68415  0.58661  0.48392  Biso   1.000  C
  C325     1.0000 0.68999  0.60533  0.44052  Biso   1.000  C
  C326     1.0000 0.66862  0.66146  0.41484  Biso   1.000  C
  C327     1.0000 0.68863  0.69968  0.38840  Biso   1.000  C
  C328     1.0000 0.67177  0.77196  0.38366  Biso   1.000  C
  C329     1.0000 0.70620  0.83334  0.38594  Biso   1.000  C
  C330     1.0000 0.71041  0.88711  0.42082  Biso   1.000  C
  C331     1.0000 0.68280  0.88984  0.44615  Biso   1.000  C
  C332     1.0000 0.69847  0.91462  0.49129  Biso   1.000  C
  C333     1.0000 0.67275  0.88168  0.51683  Biso   1.000  C
  C334     1.0000 0.80126  0.64172  0.43220  Biso   1.000  C
  C335     1.0000 0.80493  0.71584  0.42104  Biso   1.000  C
  C336     1.0000 0.83276  0.76164  0.45074  Biso   1.000  C
  C337     1.0000 0.82171  0.83270  0.45118  Biso   1.000  C
  C338     1.0000 0.78101  0.85579  0.42389  Biso   1.000  C
  C339     1.0000 0.75557  0.90441  0.44109  Biso   1.000  C
  C340     1.0000 0.77104  0.92900  0.48505  Biso   1.000  C
  C341     1.0000 0.74219  0.93194  0.51074  Biso   1.000  C
  C342     1.0000 0.73353  0.58926  0.44269  Biso   1.000  C
  C343     1.0000 0.75367  0.62651  0.41664  Biso   1.000  C
  C344     1.0000 0.73102  0.68375  0.39038  Biso   1.000  C
  C345     1.0000 0.76303  0.73972  0.39274  Biso   1.000  C
  C346     1.0000 0.75173  0.80950  0.39298  Biso   1.000  C
  C347     1.0000 0.64101  0.56585  0.49021  Biso   1.000  C
  C348     1.0000 0.66249  0.91124  0.55657  Biso   1.000  C
  C349     1.0000 0.66760  0.82035  0.34501  Biso   1.000  C
  O137     1.0000 0.59905  0.54590  0.41194  Biso   1.000  O
  C350     1.0000 0.60028  0.56046  0.44927  Biso   1.000  C
  O138     1.0000 0.56615  0.57691  0.46186  Biso   1.000  O
  C351     1.0000 0.52419  0.57933  0.42667  Biso   1.000  C
  H285     1.0000 0.52480  0.54860  0.40170  Biso   1.000  H
  H286     1.0000 0.50140  0.56170  0.43850  Biso   1.000  H
  C352     1.0000 0.51246  0.65244  0.40889  Biso   1.000  C
  O139     1.0000 0.53721  0.70132  0.42886  Biso   1.000  O
  O140     1.0000 0.47863  0.65968  0.37584  Biso   1.000  O
  O141     1.0000 0.66622  0.51644  0.56434  Biso   1.000  O
  C353     1.0000 0.64408  0.51253  0.52582  Biso   1.000  C
  O142     1.0000 0.61967  0.45754  0.50712  Biso   1.000  O
  C354     1.0000 0.61886  0.40372  0.53845  Biso   1.000  C
  H287     1.0000 0.60390  0.36230  0.52160  Biso   1.000  H
  H288     1.0000 0.64920  0.39030  0.55580  Biso   1.000  H
  C355     1.0000 0.59548  0.42647  0.57100  Biso   1.000  C
  O143     1.0000 0.57598  0.48235  0.56595  Biso   1.000  O
  O144     1.0000 0.59866  0.38217  0.60173  Biso   1.000  O
  O145     1.0000 0.60767  0.84369  0.57522  Biso   1.000  O
  C356     1.0000 0.61742  0.89219  0.55747  Biso   1.000  C
  O146     1.0000 0.59015  0.94052  0.53279  Biso   1.000  O
  C357     1.0000 0.54465  0.93270  0.52749  Biso   1.000  C
  H289     1.0000 0.54190  0.91190  0.55520  Biso   1.000  H
  H290     1.0000 0.53080  0.97920  0.52360  Biso   1.000  H
  C358     1.0000 0.52046  0.88703  0.48714  Biso   1.000  C
  O147     1.0000 0.54235  0.85578  0.46670  Biso   1.000  O
  O148     1.0000 0.48016  0.88462  0.47945  Biso   1.000  O
  O149     1.0000 0.69070  0.02440  0.55250  Biso   1.000  O
  C359     1.0000 0.67577  0.98435  0.57232  Biso   1.000  C
  O150     1.0000 0.67350  0.99140  0.61360  Biso   1.000  O
  C360     1.0000 0.68000  0.06050  0.63280  Biso   1.000  C
  H291     1.0000 0.69530  0.05780  0.66570  Biso   1.000  H
  H292     1.0000 0.69800  0.08850  0.61920  Biso   1.000  H
  C361     1.0000 0.63490  0.09450  0.62330  Biso   1.000  C
  O151     1.0000 0.61170  0.10027  0.58381  Biso   1.000  O
  O152     1.0000 0.62919  0.11830  0.65710  Biso   1.000  O
  O153     1.0000 0.63166  0.93106  0.34199  Biso   1.000  O
  C362     1.0000 0.62932  0.87035  0.33373  Biso   1.000  C
  O154     1.0000 0.59313  0.83502  0.31525  Biso   1.000  O
  C363     1.0000 0.55201  0.87170  0.30144  Biso   1.000  C
  H293     1.0000 0.55750  0.92240  0.30400  Biso   1.000  H
  H294     1.0000 0.53580  0.86090  0.26960  Biso   1.000  H
  C364     1.0000 0.52478  0.85113  0.33033  Biso   1.000  C
  O155     1.0000 0.54462  0.82888  0.36922  Biso   1.000  O
  O156     1.0000 0.48480  0.86112  0.31298  Biso   1.000  O
  O157     1.0000 0.69935  0.82080  0.28664  Biso   1.000  O
  C365     1.0000 0.67567  0.79276  0.30323  Biso   1.000  C
  O158     1.0000 0.65300  0.73571  0.28951  Biso   1.000  O
  C366     1.0000 0.65213  0.70830  0.24632  Biso   1.000  C
  H295     1.0000 0.68080  0.71620  0.24230  Biso   1.000  H
  H296     1.0000 0.64680  0.65750  0.24550  Biso   1.000  H
  C367     1.0000 0.61643  0.74320  0.20823  Biso   1.000  C
  O159     1.0000 0.60400  0.80179  0.21520  Biso   1.000  O
  O160     1.0000 0.60366  0.71101  0.17148  Biso   1.000  O
  Zn17     1.0000 0.51732  0.79747  0.41272  Biso   1.000  Zn
  Zn18     1.0000 0.41872  0.60918  0.34180  Biso   1.000  Zn
  Zn19     1.0000 0.42931  0.81709  0.44580  Biso   1.000  Zn
  Zn20     1.0000 0.43188  0.86393  0.33527  Biso   1.000  Zn
  O161     1.0000 0.45358  0.80399  0.39161  Biso   1.000  O
  O162     1.0000 0.43046  0.60795  0.28122  Biso   1.000  O
  O163     1.0000 0.40929  0.82560  0.50270  Biso   1.000  O
  C368     1.0000 0.37170  0.84530  0.50210  Biso   1.000  C
  H297     1.0000 0.35560  0.87280  0.47710  Biso   1.000  H
  N21      1.0000 0.35210  0.83200  0.53220  Biso   1.000  N
  C369     1.0000 0.37410  0.78620  0.57120  Biso   1.000  C
  H298     1.0000 0.40610  0.78930  0.57780  Biso   1.000  H
  H299     1.0000 0.36750  0.80340  0.59790  Biso   1.000  H
  C370     1.0000 0.36050  0.71190  0.56340  Biso   1.000  C
  H300     1.0000 0.37520  0.68490  0.59060  Biso   1.000  H
  H301     1.0000 0.32880  0.70850  0.55640  Biso   1.000  H
  H302     1.0000 0.36860  0.69360  0.53820  Biso   1.000  H
  C371     1.0000 0.30400  0.84950  0.52230  Biso   1.000  C
  H303     1.0000 0.28710  0.80640  0.52150  Biso   1.000  H
  H304     1.0000 0.29230  0.87280  0.49270  Biso   1.000  H
  C372     1.0000 0.30030  0.89710  0.55910  Biso   1.000  C
  H305     1.0000 0.26970  0.91080  0.55260  Biso   1.000  H
  H306     1.0000 0.31050  0.87260  0.58800  Biso   1.000  H
  H307     1.0000 0.31820  0.93860  0.56060  Biso   1.000  H
  O164     1.0000 0.41150  0.94720  0.28170  Biso   1.000  O
  O165     1.0000 0.46818  0.95110  0.38029  Biso   1.000  O
  C373     1.0000 0.47640  0.00470  0.36380  Biso   1.000  C
  H308     1.0000 0.45900  0.01610  0.33390  Biso   1.000  H
  N22      1.0000 0.50840  0.04810  0.38570  Biso   1.000  N
  C374     1.0000 0.54180  0.02930  0.42690  Biso   1.000  C
  H309     1.0000 0.53000  0.99380  0.44260  Biso   1.000  H
  H310     1.0000 0.54970  0.07070  0.44660  Biso   1.000  H
  C375     1.0000 0.58120  0.00180  0.41990  Biso   1.000  C
  H311     1.0000 0.59490  0.96730  0.44310  Biso   1.000  H
  H312     1.0000 0.60180  0.03990  0.42160  Biso   1.000  H
  H313     1.0000 0.57330  0.97990  0.39020  Biso   1.000  H
  C376     1.0000 0.51070  0.11670  0.36550  Biso   1.000  C
  H314     1.0000 0.49130  0.11670  0.33380  Biso   1.000  H
  H315     1.0000 0.54090  0.12490  0.36580  Biso   1.000  H
  C377     1.0000 0.49720  0.17560  0.39060  Biso   1.000  C
  H316     1.0000 0.49340  0.21840  0.37290  Biso   1.000  H
  H317     1.0000 0.51990  0.18260  0.41980  Biso   1.000  H
  H318     1.0000 0.46960  0.16360  0.39520  Biso   1.000  H
  O166     1.0000 0.68800  0.03270  0.55600  Biso   1.000  O
  O167     1.0000 0.66560  0.98980  0.61020  Biso   1.000  O
  C378     1.0000 0.67800  0.05200  0.63640  Biso   1.000  C
  H319     1.0000 0.67930  0.04220  0.66770  Biso   1.000  H
  H320     1.0000 0.70770  0.06590  0.63720  Biso   1.000  H
  C379     1.0000 0.64660  0.11250  0.61810  Biso   1.000  C
  O168     1.0000 0.66350  0.16760  0.63770  Biso   1.000  O
  H321     1.0000 0.64670  0.20120  0.62710  Biso   1.000  H
  C380     1.0000 0.44520  0.56030  0.26390  Biso   1.000  C
  H322     1.0000 0.45810  0.52180  0.28250  Biso   1.000  H
  N23      1.0000 0.44450  0.55900  0.22150  Biso   1.000  N
  C381     1.0000 0.41880  0.61570  0.19000  Biso   1.000  C
  H323     1.0000 0.39580  0.63460  0.20100  Biso   1.000  H
  H324     1.0000 0.40480  0.59670  0.15940  Biso   1.000  H
  C382     1.0000 0.44940  0.66930  0.18920  Biso   1.000  C
  H325     1.0000 0.43350  0.71130  0.17540  Biso   1.000  H
  H326     1.0000 0.46800  0.67970  0.22000  Biso   1.000  H
  H327     1.0000 0.46760  0.65350  0.17160  Biso   1.000  H
  C383     1.0000 0.47320  0.50840  0.20720  Biso   1.000  C
  H328     1.0000 0.48650  0.53180  0.18680  Biso   1.000  H
  H329     1.0000 0.49700  0.49150  0.23380  Biso   1.000  H
  C384     1.0000 0.44530  0.44770  0.18310  Biso   1.000  C
  H330     1.0000 0.46350  0.41440  0.17380  Biso   1.000  H
  H331     1.0000 0.43230  0.42470  0.20340  Biso   1.000  H
  H332     1.0000 0.42200  0.46470  0.15650  Biso   1.000  H
  C385     1.0000 0.41470  0.55890  0.25390  Biso   1.000  C
  H333     1.0000 0.40330  0.51910  0.26420  Biso   1.000  H
  N24      1.0000 0.41360  0.56120  0.21180  Biso   1.000  N
  C386     1.0000 0.44760  0.60620  0.20230  Biso   1.000  C
  H334     1.0000 0.43240  0.63780  0.17720  Biso   1.000  H
  H335     1.0000 0.46670  0.57570  0.19170  Biso   1.000  H
  C387     1.0000 0.47550  0.64890  0.23940  Biso   1.000  C
  H336     1.0000 0.47460  0.63060  0.26810  Biso   1.000  H
  H337     1.0000 0.50560  0.64760  0.23900  Biso   1.000  H
  H338     1.0000 0.46500  0.69700  0.23570  Biso   1.000  H
  C388     1.0000 0.39630  0.49550  0.18330  Biso   1.000  C
  H339     1.0000 0.40810  0.45330  0.20110  Biso   1.000  H
  H340     1.0000 0.40540  0.49550  0.15630  Biso   1.000  H
  C389     1.0000 0.34620  0.49630  0.16960  Biso   1.000  C
  H341     1.0000 0.33440  0.45390  0.15270  Biso   1.000  H
  H342     1.0000 0.33760  0.49850  0.19660  Biso   1.000  H
  H343     1.0000 0.33480  0.53700  0.15060  Biso   1.000  H
  C390     1.0000 0.40530  0.88480  0.51520  Biso   1.000  C
  H344     1.0000 0.40130  0.92240  0.49470  Biso   1.000  H
  N25      1.0000 0.40640  0.89670  0.55670  Biso   1.000  N
  C391     1.0000 0.42590  0.84480  0.59220  Biso   1.000  C
  H345     1.0000 0.41090  0.79990  0.58230  Biso   1.000  H
  H346     1.0000 0.41950  0.85920  0.61960  Biso   1.000  H
  C392     1.0000 0.47290  0.83280  0.60480  Biso   1.000  C
  H347     1.0000 0.48360  0.81160  0.63470  Biso   1.000  H
  H348     1.0000 0.47880  0.80160  0.58280  Biso   1.000  H
  H349     1.0000 0.48780  0.87720  0.60520  Biso   1.000  H
  C393     1.0000 0.39740  0.96990  0.56970  Biso   1.000  C
  H350     1.0000 0.37800  0.96790  0.58830  Biso   1.000  H
  H351     1.0000 0.38250  0.99720  0.54230  Biso   1.000  H
  C394     1.0000 0.44020  0.00440  0.59590  Biso   1.000  C
  H352     1.0000 0.43440  0.05050  0.60590  Biso   1.000  H
  H353     1.0000 0.45550  0.97590  0.62220  Biso   1.000  H
  H354     1.0000 0.45840  0.00910  0.57670  Biso   1.000  H
  O169     1.0000 0.41410  0.95830  0.32830  Biso   1.000  O
  C395     1.0000 0.43650  0.99070  0.36120  Biso   1.000  C
  H355     1.0000 0.45830  0.96830  0.38520  Biso   1.000  H
  O170     1.0000 0.42880  0.05960  0.36220  Biso   1.000  O
  C396     1.0000 0.14248  0.20963  0.43191  Biso   1.000  C
  C397     1.0000 0.14722  0.27727  0.41555  Biso   1.000  C
  C398     1.0000 0.15075  0.33451  0.44356  Biso   1.000  C
  C399     1.0000 0.14708  0.32600  0.48713  Biso   1.000  C
  C400     1.0000 0.35746  0.24029  0.49719  Biso   1.000  C
  C401     1.0000 0.13901  0.20119  0.47443  Biso   1.000  C
  C402     1.0000 0.34332  0.36072  0.49702  Biso   1.000  C
  C403     1.0000 0.18415  0.08661  0.48392  Biso   1.000  C
  C404     1.0000 0.18999  0.10533  0.44052  Biso   1.000  C
  C405     1.0000 0.16862  0.16146  0.41484  Biso   1.000  C
  C406     1.0000 0.18863  0.19968  0.38840  Biso   1.000  C
  C407     1.0000 0.17177  0.27196  0.38366  Biso   1.000  C
  C408     1.0000 0.20620  0.33334  0.38594  Biso   1.000  C
  C409     1.0000 0.21041  0.38711  0.42082  Biso   1.000  C
  C410     1.0000 0.18280  0.38984  0.44615  Biso   1.000  C
  C411     1.0000 0.19847  0.41462  0.49129  Biso   1.000  C
  C412     1.0000 0.17275  0.38168  0.51683  Biso   1.000  C
  C413     1.0000 0.30126  0.14172  0.43220  Biso   1.000  C
  C414     1.0000 0.30493  0.21584  0.42104  Biso   1.000  C
  C415     1.0000 0.33276  0.26164  0.45074  Biso   1.000  C
  C416     1.0000 0.32171  0.33270  0.45118  Biso   1.000  C
  C417     1.0000 0.28101  0.35579  0.42389  Biso   1.000  C
  C418     1.0000 0.25557  0.40441  0.44109  Biso   1.000  C
  C419     1.0000 0.27104  0.42900  0.48505  Biso   1.000  C
  C420     1.0000 0.24219  0.43194  0.51074  Biso   1.000  C
  C421     1.0000 0.23353  0.08926  0.44269  Biso   1.000  C
  C422     1.0000 0.25367  0.12651  0.41664  Biso   1.000  C
  C423     1.0000 0.23102  0.18375  0.39038  Biso   1.000  C
  C424     1.0000 0.26303  0.23972  0.39274  Biso   1.000  C
  C425     1.0000 0.25173  0.30950  0.39298  Biso   1.000  C
  C426     1.0000 0.14101  0.06585  0.49021  Biso   1.000  C
  C427     1.0000 0.16249  0.41124  0.55657  Biso   1.000  C
  C428     1.0000 0.16760  0.32035  0.34501  Biso   1.000  C
  O171     1.0000 0.09905  0.04590  0.41194  Biso   1.000  O
  C429     1.0000 0.10028  0.06046  0.44927  Biso   1.000  C
  O172     1.0000 0.06615  0.07691  0.46186  Biso   1.000  O
  C430     1.0000 0.02419  0.07933  0.42667  Biso   1.000  C
  H356     1.0000 0.02480  0.04860  0.40170  Biso   1.000  H
  H357     1.0000 0.00140  0.06170  0.43850  Biso   1.000  H
  C431     1.0000 0.01246  0.15244  0.40889  Biso   1.000  C
  O173     1.0000 0.03721  0.20132  0.42886  Biso   1.000  O
  O174     1.0000 0.97863  0.15968  0.37584  Biso   1.000  O
  O175     1.0000 0.16622  0.01644  0.56434  Biso   1.000  O
  C432     1.0000 0.14408  0.01253  0.52582  Biso   1.000  C
  O176     1.0000 0.11967  0.95754  0.50712  Biso   1.000  O
  C433     1.0000 0.11886  0.90372  0.53845  Biso   1.000  C
  H358     1.0000 0.10390  0.86230  0.52160  Biso   1.000  H
  H359     1.0000 0.14920  0.89030  0.55580  Biso   1.000  H
  C434     1.0000 0.09548  0.92647  0.57100  Biso   1.000  C
  O177     1.0000 0.07598  0.98235  0.56595  Biso   1.000  O
  O178     1.0000 0.09866  0.88217  0.60173  Biso   1.000  O
  O179     1.0000 0.10767  0.34369  0.57522  Biso   1.000  O
  C435     1.0000 0.11742  0.39219  0.55747  Biso   1.000  C
  O180     1.0000 0.09015  0.44052  0.53279  Biso   1.000  O
  C436     1.0000 0.04465  0.43270  0.52749  Biso   1.000  C
  H360     1.0000 0.04190  0.41190  0.55520  Biso   1.000  H
  H361     1.0000 0.03080  0.47920  0.52360  Biso   1.000  H
  C437     1.0000 0.02046  0.38703  0.48714  Biso   1.000  C
  O181     1.0000 0.04235  0.35578  0.46670  Biso   1.000  O
  O182     1.0000 0.98016  0.38462  0.47945  Biso   1.000  O
  O183     1.0000 0.19070  0.52440  0.55250  Biso   1.000  O
  C438     1.0000 0.17577  0.48435  0.57232  Biso   1.000  C
  O184     1.0000 0.17350  0.49140  0.61360  Biso   1.000  O
  C439     1.0000 0.18000  0.56050  0.63280  Biso   1.000  C
  H362     1.0000 0.19530  0.55780  0.66570  Biso   1.000  H
  H363     1.0000 0.19800  0.58850  0.61920  Biso   1.000  H
  C440     1.0000 0.13490  0.59450  0.62330  Biso   1.000  C
  O185     1.0000 0.11170  0.60027  0.58381  Biso   1.000  O
  O186     1.0000 0.12919  0.61830  0.65710  Biso   1.000  O
  O187     1.0000 0.13166  0.43106  0.34199  Biso   1.000  O
  C441     1.0000 0.12932  0.37035  0.33373  Biso   1.000  C
  O188     1.0000 0.09313  0.33502  0.31525  Biso   1.000  O
  C442     1.0000 0.05201  0.37170  0.30144  Biso   1.000  C
  H364     1.0000 0.05750  0.42240  0.30400  Biso   1.000  H
  H365     1.0000 0.03580  0.36090  0.26960  Biso   1.000  H
  C443     1.0000 0.02478  0.35113  0.33033  Biso   1.000  C
  O189     1.0000 0.04462  0.32888  0.36922  Biso   1.000  O
  O190     1.0000 0.98480  0.36112  0.31298  Biso   1.000  O
  O191     1.0000 0.19935  0.32080  0.28664  Biso   1.000  O
  C444     1.0000 0.17567  0.29276  0.30323  Biso   1.000  C
  O192     1.0000 0.15300  0.23571  0.28951  Biso   1.000  O
  C445     1.0000 0.15213  0.20830  0.24632  Biso   1.000  C
  H366     1.0000 0.18080  0.21620  0.24230  Biso   1.000  H
  H367     1.0000 0.14680  0.15750  0.24550  Biso   1.000  H
  C446     1.0000 0.11643  0.24320  0.20823  Biso   1.000  C
  O193     1.0000 0.10400  0.30179  0.21520  Biso   1.000  O
  O194     1.0000 0.10366  0.21101  0.17148  Biso   1.000  O
  Zn21     1.0000 0.01732  0.29747  0.41272  Biso   1.000  Zn
  Zn22     1.0000 0.91872  0.10918  0.34180  Biso   1.000  Zn
  Zn23     1.0000 0.92931  0.31709  0.44580  Biso   1.000  Zn
  Zn24     1.0000 0.93188  0.36393  0.33527  Biso   1.000  Zn
  O195     1.0000 0.95358  0.30399  0.39161  Biso   1.000  O
  O196     1.0000 0.93046  0.10795  0.28122  Biso   1.000  O
  O197     1.0000 0.90929  0.32560  0.50270  Biso   1.000  O
  C447     1.0000 0.87170  0.34530  0.50210  Biso   1.000  C
  H368     1.0000 0.85560  0.37280  0.47710  Biso   1.000  H
  N26      1.0000 0.85210  0.33200  0.53220  Biso   1.000  N
  C448     1.0000 0.87410  0.28620  0.57120  Biso   1.000  C
  H369     1.0000 0.90610  0.28930  0.57780  Biso   1.000  H
  H370     1.0000 0.86750  0.30340  0.59790  Biso   1.000  H
  C449     1.0000 0.86050  0.21190  0.56340  Biso   1.000  C
  H371     1.0000 0.87520  0.18490  0.59060  Biso   1.000  H
  H372     1.0000 0.82880  0.20850  0.55640  Biso   1.000  H
  H373     1.0000 0.86860  0.19360  0.53820  Biso   1.000  H
  C450     1.0000 0.80400  0.34950  0.52230  Biso   1.000  C
  H374     1.0000 0.78710  0.30640  0.52150  Biso   1.000  H
  H375     1.0000 0.79230  0.37280  0.49270  Biso   1.000  H
  C451     1.0000 0.80030  0.39710  0.55910  Biso   1.000  C
  H376     1.0000 0.76970  0.41080  0.55260  Biso   1.000  H
  H377     1.0000 0.81050  0.37260  0.58800  Biso   1.000  H
  H378     1.0000 0.81820  0.43860  0.56060  Biso   1.000  H
  O198     1.0000 0.91150  0.44720  0.28170  Biso   1.000  O
  O199     1.0000 0.96818  0.45110  0.38029  Biso   1.000  O
  C452     1.0000 0.97640  0.50470  0.36380  Biso   1.000  C
  H379     1.0000 0.95900  0.51610  0.33390  Biso   1.000  H
  N27      1.0000 0.00840  0.54810  0.38570  Biso   1.000  N
  C453     1.0000 0.04180  0.52930  0.42690  Biso   1.000  C
  H380     1.0000 0.03000  0.49380  0.44260  Biso   1.000  H
  H381     1.0000 0.04970  0.57070  0.44660  Biso   1.000  H
  C454     1.0000 0.08120  0.50180  0.41990  Biso   1.000  C
  H382     1.0000 0.09490  0.46730  0.44310  Biso   1.000  H
  H383     1.0000 0.10180  0.53990  0.42160  Biso   1.000  H
  H384     1.0000 0.07330  0.47990  0.39020  Biso   1.000  H
  C455     1.0000 0.01070  0.61670  0.36550  Biso   1.000  C
  H385     1.0000 0.99130  0.61670  0.33380  Biso   1.000  H
  H386     1.0000 0.04090  0.62490  0.36580  Biso   1.000  H
  C456     1.0000 0.99720  0.67560  0.39060  Biso   1.000  C
  H387     1.0000 0.99340  0.71840  0.37290  Biso   1.000  H
  H388     1.0000 0.01990  0.68260  0.41980  Biso   1.000  H
  H389     1.0000 0.96960  0.66360  0.39520  Biso   1.000  H
  O200     1.0000 0.18800  0.53270  0.55600  Biso   1.000  O
  O201     1.0000 0.16560  0.48980  0.61020  Biso   1.000  O
  C457     1.0000 0.17800  0.55200  0.63640  Biso   1.000  C
  H390     1.0000 0.17930  0.54220  0.66770  Biso   1.000  H
  H391     1.0000 0.20770  0.56590  0.63720  Biso   1.000  H
  C458     1.0000 0.14660  0.61250  0.61810  Biso   1.000  C
  O202     1.0000 0.16350  0.66760  0.63770  Biso   1.000  O
  H392     1.0000 0.14670  0.70120  0.62710  Biso   1.000  H
  C459     1.0000 0.94520  0.06030  0.26390  Biso   1.000  C
  H393     1.0000 0.95810  0.02180  0.28250  Biso   1.000  H
  N28      1.0000 0.94450  0.05900  0.22150  Biso   1.000  N
  C460     1.0000 0.91880  0.11570  0.19000  Biso   1.000  C
  H394     1.0000 0.89580  0.13460  0.20100  Biso   1.000  H
  H395     1.0000 0.90480  0.09670  0.15940  Biso   1.000  H
  C461     1.0000 0.94940  0.16930  0.18920  Biso   1.000  C
  H396     1.0000 0.93350  0.21130  0.17540  Biso   1.000  H
  H397     1.0000 0.96800  0.17970  0.22000  Biso   1.000  H
  H398     1.0000 0.96760  0.15350  0.17160  Biso   1.000  H
  C462     1.0000 0.97320  0.00840  0.20720  Biso   1.000  C
  H399     1.0000 0.98650  0.03180  0.18680  Biso   1.000  H
  H400     1.0000 0.99700  0.99150  0.23380  Biso   1.000  H
  C463     1.0000 0.94530  0.94770  0.18310  Biso   1.000  C
  H401     1.0000 0.96350  0.91440  0.17380  Biso   1.000  H
  H402     1.0000 0.93230  0.92470  0.20340  Biso   1.000  H
  H403     1.0000 0.92200  0.96470  0.15650  Biso   1.000  H
  C464     1.0000 0.91470  0.05890  0.25390  Biso   1.000  C
  H404     1.0000 0.90330  0.01910  0.26420  Biso   1.000  H
  N29      1.0000 0.91360  0.06120  0.21180  Biso   1.000  N
  C465     1.0000 0.94760  0.10620  0.20230  Biso   1.000  C
  H405     1.0000 0.93240  0.13780  0.17720  Biso   1.000  H
  H406     1.0000 0.96670  0.07570  0.19170  Biso   1.000  H
  C466     1.0000 0.97550  0.14890  0.23940  Biso   1.000  C
  H407     1.0000 0.97460  0.13060  0.26810  Biso   1.000  H
  H408     1.0000 0.00560  0.14760  0.23900  Biso   1.000  H
  H409     1.0000 0.96500  0.19700  0.23570  Biso   1.000  H
  C467     1.0000 0.89630  0.99550  0.18330  Biso   1.000  C
  H410     1.0000 0.90810  0.95330  0.20110  Biso   1.000  H
  H411     1.0000 0.90540  0.99550  0.15630  Biso   1.000  H
  C468     1.0000 0.84620  0.99630  0.16960  Biso   1.000  C
  H412     1.0000 0.83440  0.95390  0.15270  Biso   1.000  H
  H413     1.0000 0.83760  0.99850  0.19660  Biso   1.000  H
  H414     1.0000 0.83480  0.03700  0.15060  Biso   1.000  H
  C469     1.0000 0.90530  0.38480  0.51520  Biso   1.000  C
  H415     1.0000 0.90130  0.42240  0.49470  Biso   1.000  H
  N30      1.0000 0.90640  0.39670  0.55670  Biso   1.000  N
  C470     1.0000 0.92590  0.34480  0.59220  Biso   1.000  C
  H416     1.0000 0.91090  0.29990  0.58230  Biso   1.000  H
  H417     1.0000 0.91950  0.35920  0.61960  Biso   1.000  H
  C471     1.0000 0.97290  0.33280  0.60480  Biso   1.000  C
  H418     1.0000 0.98360  0.31160  0.63470  Biso   1.000  H
  H419     1.0000 0.97880  0.30160  0.58280  Biso   1.000  H
  H420     1.0000 0.98780  0.37720  0.60520  Biso   1.000  H
  C472     1.0000 0.89740  0.46990  0.56970  Biso   1.000  C
  H421     1.0000 0.87800  0.46790  0.58830  Biso   1.000  H
  H422     1.0000 0.88250  0.49720  0.54230  Biso   1.000  H
  C473     1.0000 0.94020  0.50440  0.59590  Biso   1.000  C
  H423     1.0000 0.93440  0.55050  0.60590  Biso   1.000  H
  H424     1.0000 0.95550  0.47590  0.62220  Biso   1.000  H
  H425     1.0000 0.95840  0.50910  0.57670  Biso   1.000  H
  O203     1.0000 0.91410  0.45830  0.32830  Biso   1.000  O
  C474     1.0000 0.93650  0.49070  0.36120  Biso   1.000  C
  H426     1.0000 0.95830  0.46830  0.38520  Biso   1.000  H
  O204     1.0000 0.92880  0.55960  0.36220  Biso   1.000  O
  C475     1.0000 0.35752  0.70963  0.06809  Biso   1.000  C
  C476     1.0000 0.35278  0.77727  0.08445  Biso   1.000  C
  C477     1.0000 0.34925  0.83451  0.05644  Biso   1.000  C
  C478     1.0000 0.35292  0.82600  0.01287  Biso   1.000  C
  C479     1.0000 0.14254  0.74029  0.00281  Biso   1.000  C
  C480     1.0000 0.36099  0.70119  0.02557  Biso   1.000  C
  C481     1.0000 0.15668  0.86072  0.00298  Biso   1.000  C
  C482     1.0000 0.31585  0.58661  0.01608  Biso   1.000  C
  C483     1.0000 0.31001  0.60533  0.05948  Biso   1.000  C
  C484     1.0000 0.33138  0.66146  0.08516  Biso   1.000  C
  C485     1.0000 0.31137  0.69968  0.11160  Biso   1.000  C
  C486     1.0000 0.32823  0.77196  0.11634  Biso   1.000  C
  C487     1.0000 0.29380  0.83334  0.11406  Biso   1.000  C
  C488     1.0000 0.28959  0.88711  0.07918  Biso   1.000  C
  C489     1.0000 0.31720  0.88984  0.05385  Biso   1.000  C
  C490     1.0000 0.30153  0.91462  0.00871  Biso   1.000  C
  C491     1.0000 0.32725  0.88168  0.98317  Biso   1.000  C
  C492     1.0000 0.19874  0.64172  0.06780  Biso   1.000  C
  C493     1.0000 0.19507  0.71584  0.07896  Biso   1.000  C
  C494     1.0000 0.16724  0.76164  0.04926  Biso   1.000  C
  C495     1.0000 0.17829  0.83270  0.04882  Biso   1.000  C
  C496     1.0000 0.21899  0.85579  0.07611  Biso   1.000  C
  C497     1.0000 0.24443  0.90441  0.05891  Biso   1.000  C
  C498     1.0000 0.22896  0.92900  0.01495  Biso   1.000  C
  C499     1.0000 0.25781  0.93194  0.98926  Biso   1.000  C
  C500     1.0000 0.26647  0.58926  0.05731  Biso   1.000  C
  C501     1.0000 0.24633  0.62651  0.08336  Biso   1.000  C
  C502     1.0000 0.26898  0.68375  0.10962  Biso   1.000  C
  C503     1.0000 0.23697  0.73972  0.10726  Biso   1.000  C
  C504     1.0000 0.24827  0.80950  0.10702  Biso   1.000  C
  C505     1.0000 0.35899  0.56585  0.00979  Biso   1.000  C
  C506     1.0000 0.33751  0.91124  0.94343  Biso   1.000  C
  C507     1.0000 0.33240  0.82035  0.15499  Biso   1.000  C
  O205     1.0000 0.40095  0.54590  0.08806  Biso   1.000  O
  C508     1.0000 0.39972  0.56046  0.05073  Biso   1.000  C
  O206     1.0000 0.43385  0.57691  0.03814  Biso   1.000  O
  C509     1.0000 0.47581  0.57933  0.07333  Biso   1.000  C
  H427     1.0000 0.47520  0.54860  0.09830  Biso   1.000  H
  H428     1.0000 0.49860  0.56170  0.06150  Biso   1.000  H
  C510     1.0000 0.48754  0.65244  0.09111  Biso   1.000  C
  O207     1.0000 0.46279  0.70132  0.07114  Biso   1.000  O
  O208     1.0000 0.52137  0.65968  0.12416  Biso   1.000  O
  O209     1.0000 0.33378  0.51644  0.93566  Biso   1.000  O
  C511     1.0000 0.35592  0.51253  0.97418  Biso   1.000  C
  O210     1.0000 0.38033  0.45754  0.99288  Biso   1.000  O
  C512     1.0000 0.38114  0.40372  0.96155  Biso   1.000  C
  H429     1.0000 0.39610  0.36230  0.97840  Biso   1.000  H
  H430     1.0000 0.35080  0.39030  0.94420  Biso   1.000  H
  C513     1.0000 0.40452  0.42647  0.92900  Biso   1.000  C
  O211     1.0000 0.42402  0.48235  0.93405  Biso   1.000  O
  O212     1.0000 0.40134  0.38217  0.89827  Biso   1.000  O
  O213     1.0000 0.39233  0.84369  0.92478  Biso   1.000  O
  C514     1.0000 0.38258  0.89219  0.94253  Biso   1.000  C
  O214     1.0000 0.40985  0.94052  0.96721  Biso   1.000  O
  C515     1.0000 0.45535  0.93270  0.97251  Biso   1.000  C
  H431     1.0000 0.45810  0.91190  0.94480  Biso   1.000  H
  H432     1.0000 0.46920  0.97920  0.97640  Biso   1.000  H
  C516     1.0000 0.47954  0.88703  0.01286  Biso   1.000  C
  O215     1.0000 0.45765  0.85578  0.03330  Biso   1.000  O
  O216     1.0000 0.51984  0.88462  0.02055  Biso   1.000  O
  O217     1.0000 0.30930  0.02440  0.94750  Biso   1.000  O
  C517     1.0000 0.32423  0.98435  0.92768  Biso   1.000  C
  O218     1.0000 0.32650  0.99140  0.88640  Biso   1.000  O
  C518     1.0000 0.32000  0.06050  0.86720  Biso   1.000  C
  H433     1.0000 0.30470  0.05780  0.83430  Biso   1.000  H
  H434     1.0000 0.30200  0.08850  0.88080  Biso   1.000  H
  C519     1.0000 0.36510  0.09450  0.87670  Biso   1.000  C
  O219     1.0000 0.38830  0.10027  0.91619  Biso   1.000  O
  O220     1.0000 0.37081  0.11830  0.84290  Biso   1.000  O
  O221     1.0000 0.36834  0.93106  0.15801  Biso   1.000  O
  C520     1.0000 0.37068  0.87035  0.16627  Biso   1.000  C
  O222     1.0000 0.40687  0.83502  0.18475  Biso   1.000  O
  C521     1.0000 0.44799  0.87170  0.19856  Biso   1.000  C
  H435     1.0000 0.44250  0.92240  0.19600  Biso   1.000  H
  H436     1.0000 0.46420  0.86090  0.23040  Biso   1.000  H
  C522     1.0000 0.47522  0.85113  0.16967  Biso   1.000  C
  O223     1.0000 0.45538  0.82888  0.13078  Biso   1.000  O
  O224     1.0000 0.51520  0.86112  0.18702  Biso   1.000  O
  O225     1.0000 0.30065  0.82080  0.21336  Biso   1.000  O
  C523     1.0000 0.32433  0.79276  0.19677  Biso   1.000  C
  O226     1.0000 0.34700  0.73571  0.21049  Biso   1.000  O
  C524     1.0000 0.34787  0.70830  0.25368  Biso   1.000  C
  H437     1.0000 0.31920  0.71620  0.25770  Biso   1.000  H
  H438     1.0000 0.35320  0.65750  0.25450  Biso   1.000  H
  C525     1.0000 0.38357  0.74320  0.29177  Biso   1.000  C
  O227     1.0000 0.39600  0.80179  0.28480  Biso   1.000  O
  O228     1.0000 0.39634  0.71101  0.32852  Biso   1.000  O
  Zn25     1.0000 0.48268  0.79747  0.08728  Biso   1.000  Zn
  Zn26     1.0000 0.58128  0.60918  0.15820  Biso   1.000  Zn
  Zn27     1.0000 0.57069  0.81709  0.05420  Biso   1.000  Zn
  Zn28     1.0000 0.56812  0.86393  0.16473  Biso   1.000  Zn
  O229     1.0000 0.54642  0.80399  0.10839  Biso   1.000  O
  O230     1.0000 0.56954  0.60795  0.21878  Biso   1.000  O
  O231     1.0000 0.59071  0.82560  0.99730  Biso   1.000  O
  C526     1.0000 0.62830  0.84530  0.99790  Biso   1.000  C
  H439     1.0000 0.64440  0.87280  0.02290  Biso   1.000  H
  N31      1.0000 0.64790  0.83200  0.96780  Biso   1.000  N
  C527     1.0000 0.62590  0.78620  0.92880  Biso   1.000  C
  H440     1.0000 0.59390  0.78930  0.92220  Biso   1.000  H
  H441     1.0000 0.63250  0.80340  0.90210  Biso   1.000  H
  C528     1.0000 0.63950  0.71190  0.93660  Biso   1.000  C
  H442     1.0000 0.62480  0.68490  0.90940  Biso   1.000  H
  H443     1.0000 0.67120  0.70850  0.94360  Biso   1.000  H
  H444     1.0000 0.63140  0.69360  0.96180  Biso   1.000  H
  C529     1.0000 0.69600  0.84950  0.97770  Biso   1.000  C
  H445     1.0000 0.71290  0.80640  0.97850  Biso   1.000  H
  H446     1.0000 0.70770  0.87280  0.00730  Biso   1.000  H
  C530     1.0000 0.69970  0.89710  0.94090  Biso   1.000  C
  H447     1.0000 0.73030  0.91080  0.94740  Biso   1.000  H
  H448     1.0000 0.68950  0.87260  0.91200  Biso   1.000  H
  H449     1.0000 0.68180  0.93860  0.93940  Biso   1.000  H
  O232     1.0000 0.58850  0.94720  0.21830  Biso   1.000  O
  O233     1.0000 0.53182  0.95110  0.11971  Biso   1.000  O
  C531     1.0000 0.52360  0.00470  0.13620  Biso   1.000  C
  H450     1.0000 0.54100  0.01610  0.16610  Biso   1.000  H
  N32      1.0000 0.49160  0.04810  0.11430  Biso   1.000  N
  C532     1.0000 0.45820  0.02930  0.07310  Biso   1.000  C
  H451     1.0000 0.47000  0.99380  0.05740  Biso   1.000  H
  H452     1.0000 0.45030  0.07070  0.05340  Biso   1.000  H
  C533     1.0000 0.41880  0.00180  0.08010  Biso   1.000  C
  H453     1.0000 0.40510  0.96730  0.05690  Biso   1.000  H
  H454     1.0000 0.39820  0.03990  0.07840  Biso   1.000  H
  H455     1.0000 0.42670  0.97990  0.10980  Biso   1.000  H
  C534     1.0000 0.48930  0.11670  0.13450  Biso   1.000  C
  H456     1.0000 0.50870  0.11670  0.16620  Biso   1.000  H
  H457     1.0000 0.45910  0.12490  0.13420  Biso   1.000  H
  C535     1.0000 0.50280  0.17560  0.10940  Biso   1.000  C
  H458     1.0000 0.50660  0.21840  0.12710  Biso   1.000  H
  H459     1.0000 0.48010  0.18260  0.08020  Biso   1.000  H
  H460     1.0000 0.53040  0.16360  0.10480  Biso   1.000  H
  O234     1.0000 0.31200  0.03270  0.94400  Biso   1.000  O
  O235     1.0000 0.33440  0.98980  0.88980  Biso   1.000  O
  C536     1.0000 0.32200  0.05200  0.86360  Biso   1.000  C
  H461     1.0000 0.32070  0.04220  0.83230  Biso   1.000  H
  H462     1.0000 0.29230  0.06590  0.86280  Biso   1.000  H
  C537     1.0000 0.35340  0.11250  0.88190  Biso   1.000  C
  O236     1.0000 0.33650  0.16760  0.86230  Biso   1.000  O
  H463     1.0000 0.35330  0.20120  0.87290  Biso   1.000  H
  C538     1.0000 0.55480  0.56030  0.23610  Biso   1.000  C
  H464     1.0000 0.54190  0.52180  0.21750  Biso   1.000  H
  N33      1.0000 0.55550  0.55900  0.27850  Biso   1.000  N
  C539     1.0000 0.58120  0.61570  0.31000  Biso   1.000  C
  H465     1.0000 0.60420  0.63460  0.29900  Biso   1.000  H
  H466     1.0000 0.59520  0.59670  0.34060  Biso   1.000  H
  C540     1.0000 0.55060  0.66930  0.31080  Biso   1.000  C
  H467     1.0000 0.56650  0.71130  0.32460  Biso   1.000  H
  H468     1.0000 0.53200  0.67970  0.28000  Biso   1.000  H
  H469     1.0000 0.53240  0.65350  0.32840  Biso   1.000  H
  C541     1.0000 0.52680  0.50840  0.29280  Biso   1.000  C
  H470     1.0000 0.51350  0.53180  0.31320  Biso   1.000  H
  H471     1.0000 0.50300  0.49150  0.26620  Biso   1.000  H
  C542     1.0000 0.55470  0.44770  0.31690  Biso   1.000  C
  H472     1.0000 0.53650  0.41440  0.32620  Biso   1.000  H
  H473     1.0000 0.56770  0.42470  0.29660  Biso   1.000  H
  H474     1.0000 0.57800  0.46470  0.34350  Biso   1.000  H
  C543     1.0000 0.58530  0.55890  0.24610  Biso   1.000  C
  H475     1.0000 0.59670  0.51910  0.23580  Biso   1.000  H
  N34      1.0000 0.58640  0.56120  0.28820  Biso   1.000  N
  C544     1.0000 0.55240  0.60620  0.29770  Biso   1.000  C
  H476     1.0000 0.56760  0.63780  0.32280  Biso   1.000  H
  H477     1.0000 0.53330  0.57570  0.30830  Biso   1.000  H
  C545     1.0000 0.52450  0.64890  0.26060  Biso   1.000  C
  H478     1.0000 0.52540  0.63060  0.23190  Biso   1.000  H
  H479     1.0000 0.49440  0.64760  0.26100  Biso   1.000  H
  H480     1.0000 0.53500  0.69700  0.26430  Biso   1.000  H
  C546     1.0000 0.60370  0.49550  0.31670  Biso   1.000  C
  H481     1.0000 0.59190  0.45330  0.29890  Biso   1.000  H
  H482     1.0000 0.59460  0.49550  0.34370  Biso   1.000  H
  C547     1.0000 0.65380  0.49630  0.33040  Biso   1.000  C
  H483     1.0000 0.66560  0.45390  0.34730  Biso   1.000  H
  H484     1.0000 0.66240  0.49850  0.30340  Biso   1.000  H
  H485     1.0000 0.66520  0.53700  0.34940  Biso   1.000  H
  C548     1.0000 0.59470  0.88480  0.98480  Biso   1.000  C
  H486     1.0000 0.59870  0.92240  0.00530  Biso   1.000  H
  N35      1.0000 0.59360  0.89670  0.94330  Biso   1.000  N
  C549     1.0000 0.57410  0.84480  0.90780  Biso   1.000  C
  H487     1.0000 0.58910  0.79990  0.91770  Biso   1.000  H
  H488     1.0000 0.58050  0.85920  0.88040  Biso   1.000  H
  C550     1.0000 0.52710  0.83280  0.89520  Biso   1.000  C
  H489     1.0000 0.51640  0.81160  0.86530  Biso   1.000  H
  H490     1.0000 0.52120  0.80160  0.91720  Biso   1.000  H
  H491     1.0000 0.51220  0.87720  0.89480  Biso   1.000  H
  C551     1.0000 0.60260  0.96990  0.93030  Biso   1.000  C
  H492     1.0000 0.62200  0.96790  0.91170  Biso   1.000  H
  H493     1.0000 0.61750  0.99720  0.95770  Biso   1.000  H
  C552     1.0000 0.55980  0.00440  0.90410  Biso   1.000  C
  H494     1.0000 0.56560  0.05050  0.89410  Biso   1.000  H
  H495     1.0000 0.54450  0.97590  0.87780  Biso   1.000  H
  H496     1.0000 0.54160  0.00910  0.92330  Biso   1.000  H
  O237     1.0000 0.58590  0.95830  0.17170  Biso   1.000  O
  C553     1.0000 0.56350  0.99070  0.13880  Biso   1.000  C
  H497     1.0000 0.54170  0.96830  0.11480  Biso   1.000  H
  O238     1.0000 0.57120  0.05960  0.13780  Biso   1.000  O
  C554     1.0000 0.85752  0.20963  0.06809  Biso   1.000  C
  C555     1.0000 0.85278  0.27727  0.08445  Biso   1.000  C
  C556     1.0000 0.84925  0.33451  0.05644  Biso   1.000  C
  C557     1.0000 0.85292  0.32600  0.01287  Biso   1.000  C
  C558     1.0000 0.64254  0.24029  0.00281  Biso   1.000  C
  C559     1.0000 0.86099  0.20119  0.02557  Biso   1.000  C
  C560     1.0000 0.65668  0.36072  0.00298  Biso   1.000  C
  C561     1.0000 0.81585  0.08661  0.01608  Biso   1.000  C
  C562     1.0000 0.81001  0.10533  0.05948  Biso   1.000  C
  C563     1.0000 0.83138  0.16146  0.08516  Biso   1.000  C
  C564     1.0000 0.81137  0.19968  0.11160  Biso   1.000  C
  C565     1.0000 0.82823  0.27196  0.11634  Biso   1.000  C
  C566     1.0000 0.79380  0.33334  0.11406  Biso   1.000  C
  C567     1.0000 0.78959  0.38711  0.07918  Biso   1.000  C
  C568     1.0000 0.81720  0.38984  0.05385  Biso   1.000  C
  C569     1.0000 0.80153  0.41462  0.00871  Biso   1.000  C
  C570     1.0000 0.82725  0.38168  0.98317  Biso   1.000  C
  C571     1.0000 0.69874  0.14172  0.06780  Biso   1.000  C
  C572     1.0000 0.69507  0.21584  0.07896  Biso   1.000  C
  C573     1.0000 0.66724  0.26164  0.04926  Biso   1.000  C
  C574     1.0000 0.67829  0.33270  0.04882  Biso   1.000  C
  C575     1.0000 0.71899  0.35579  0.07611  Biso   1.000  C
  C576     1.0000 0.74443  0.40441  0.05891  Biso   1.000  C
  C577     1.0000 0.72896  0.42900  0.01495  Biso   1.000  C
  C578     1.0000 0.75781  0.43194  0.98926  Biso   1.000  C
  C579     1.0000 0.76647  0.08926  0.05731  Biso   1.000  C
  C580     1.0000 0.74633  0.12651  0.08336  Biso   1.000  C
  C581     1.0000 0.76898  0.18375  0.10962  Biso   1.000  C
  C582     1.0000 0.73697  0.23972  0.10726  Biso   1.000  C
  C583     1.0000 0.74827  0.30950  0.10702  Biso   1.000  C
  C584     1.0000 0.85899  0.06585  0.00979  Biso   1.000  C
  C585     1.0000 0.83751  0.41124  0.94343  Biso   1.000  C
  C586     1.0000 0.83240  0.32035  0.15499  Biso   1.000  C
  O239     1.0000 0.90095  0.04590  0.08806  Biso   1.000  O
  C587     1.0000 0.89972  0.06046  0.05073  Biso   1.000  C
  O240     1.0000 0.93385  0.07691  0.03814  Biso   1.000  O
  C588     1.0000 0.97581  0.07933  0.07333  Biso   1.000  C
  H498     1.0000 0.97520  0.04860  0.09830  Biso   1.000  H
  H499     1.0000 0.99860  0.06170  0.06150  Biso   1.000  H
  C589     1.0000 0.98754  0.15244  0.09111  Biso   1.000  C
  O241     1.0000 0.96279  0.20132  0.07114  Biso   1.000  O
  O242     1.0000 0.02137  0.15968  0.12416  Biso   1.000  O
  O243     1.0000 0.83378  0.01644  0.93566  Biso   1.000  O
  C590     1.0000 0.85592  0.01253  0.97418  Biso   1.000  C
  O244     1.0000 0.88033  0.95754  0.99288  Biso   1.000  O
  C591     1.0000 0.88114  0.90372  0.96155  Biso   1.000  C
  H500     1.0000 0.89610  0.86230  0.97840  Biso   1.000  H
  H501     1.0000 0.85080  0.89030  0.94420  Biso   1.000  H
  C592     1.0000 0.90452  0.92647  0.92900  Biso   1.000  C
  O245     1.0000 0.92402  0.98235  0.93405  Biso   1.000  O
  O246     1.0000 0.90134  0.88217  0.89827  Biso   1.000  O
  O247     1.0000 0.89233  0.34369  0.92478  Biso   1.000  O
  C593     1.0000 0.88258  0.39219  0.94253  Biso   1.000  C
  O248     1.0000 0.90985  0.44052  0.96721  Biso   1.000  O
  C594     1.0000 0.95535  0.43270  0.97251  Biso   1.000  C
  H502     1.0000 0.95810  0.41190  0.94480  Biso   1.000  H
  H503     1.0000 0.96920  0.47920  0.97640  Biso   1.000  H
  C595     1.0000 0.97954  0.38703  0.01286  Biso   1.000  C
  O249     1.0000 0.95765  0.35578  0.03330  Biso   1.000  O
  O250     1.0000 0.01984  0.38462  0.02055  Biso   1.000  O
  O251     1.0000 0.80930  0.52440  0.94750  Biso   1.000  O
  C596     1.0000 0.82423  0.48435  0.92768  Biso   1.000  C
  O252     1.0000 0.82650  0.49140  0.88640  Biso   1.000  O
  C597     1.0000 0.82000  0.56050  0.86720  Biso   1.000  C
  H504     1.0000 0.80470  0.55780  0.83430  Biso   1.000  H
  H505     1.0000 0.80200  0.58850  0.88080  Biso   1.000  H
  C598     1.0000 0.86510  0.59450  0.87670  Biso   1.000  C
  O253     1.0000 0.88830  0.60027  0.91619  Biso   1.000  O
  O254     1.0000 0.87081  0.61830  0.84290  Biso   1.000  O
  O255     1.0000 0.86834  0.43106  0.15801  Biso   1.000  O
  C599     1.0000 0.87068  0.37035  0.16627  Biso   1.000  C
  O256     1.0000 0.90687  0.33502  0.18475  Biso   1.000  O
  C600     1.0000 0.94799  0.37170  0.19856  Biso   1.000  C
  H506     1.0000 0.94250  0.42240  0.19600  Biso   1.000  H
  H507     1.0000 0.96420  0.36090  0.23040  Biso   1.000  H
  C601     1.0000 0.97522  0.35113  0.16967  Biso   1.000  C
  O257     1.0000 0.95538  0.32888  0.13078  Biso   1.000  O
  O258     1.0000 0.01520  0.36112  0.18702  Biso   1.000  O
  O259     1.0000 0.80065  0.32080  0.21336  Biso   1.000  O
  C602     1.0000 0.82433  0.29276  0.19677  Biso   1.000  C
  O260     1.0000 0.84700  0.23571  0.21049  Biso   1.000  O
  C603     1.0000 0.84787  0.20830  0.25368  Biso   1.000  C
  H508     1.0000 0.81920  0.21620  0.25770  Biso   1.000  H
  H509     1.0000 0.85320  0.15750  0.25450  Biso   1.000  H
  C604     1.0000 0.88357  0.24320  0.29177  Biso   1.000  C
  O261     1.0000 0.89600  0.30179  0.28480  Biso   1.000  O
  O262     1.0000 0.89634  0.21101  0.32852  Biso   1.000  O
  Zn29     1.0000 0.98268  0.29747  0.08728  Biso   1.000  Zn
  Zn30     1.0000 0.08128  0.10918  0.15820  Biso   1.000  Zn
  Zn31     1.0000 0.07069  0.31709  0.05420  Biso   1.000  Zn
  Zn32     1.0000 0.06812  0.36393  0.16473  Biso   1.000  Zn
  O263     1.0000 0.04642  0.30399  0.10839  Biso   1.000  O
  O264     1.0000 0.06954  0.10795  0.21878  Biso   1.000  O
  O265     1.0000 0.09071  0.32560  0.99730  Biso   1.000  O
  C605     1.0000 0.12830  0.34530  0.99790  Biso   1.000  C
  H510     1.0000 0.14440  0.37280  0.02290  Biso   1.000  H
  N36      1.0000 0.14790  0.33200  0.96780  Biso   1.000  N
  C606     1.0000 0.12590  0.28620  0.92880  Biso   1.000  C
  H511     1.0000 0.09390  0.28930  0.92220  Biso   1.000  H
  H512     1.0000 0.13250  0.30340  0.90210  Biso   1.000  H
  C607     1.0000 0.13950  0.21190  0.93660  Biso   1.000  C
  H513     1.0000 0.12480  0.18490  0.90940  Biso   1.000  H
  H514     1.0000 0.17120  0.20850  0.94360  Biso   1.000  H
  H515     1.0000 0.13140  0.19360  0.96180  Biso   1.000  H
  C608     1.0000 0.19600  0.34950  0.97770  Biso   1.000  C
  H516     1.0000 0.21290  0.30640  0.97850  Biso   1.000  H
  H517     1.0000 0.20770  0.37280  0.00730  Biso   1.000  H
  C609     1.0000 0.19970  0.39710  0.94090  Biso   1.000  C
  H518     1.0000 0.23030  0.41080  0.94740  Biso   1.000  H
  H519     1.0000 0.18950  0.37260  0.91200  Biso   1.000  H
  H520     1.0000 0.18180  0.43860  0.93940  Biso   1.000  H
  O266     1.0000 0.08850  0.44720  0.21830  Biso   1.000  O
  O267     1.0000 0.03182  0.45110  0.11971  Biso   1.000  O
  C610     1.0000 0.02360  0.50470  0.13620  Biso   1.000  C
  H521     1.0000 0.04100  0.51610  0.16610  Biso   1.000  H
  N37      1.0000 0.99160  0.54810  0.11430  Biso   1.000  N
  C611     1.0000 0.95820  0.52930  0.07310  Biso   1.000  C
  H522     1.0000 0.97000  0.49380  0.05740  Biso   1.000  H
  H523     1.0000 0.95030  0.57070  0.05340  Biso   1.000  H
  C612     1.0000 0.91880  0.50180  0.08010  Biso   1.000  C
  H524     1.0000 0.90510  0.46730  0.05690  Biso   1.000  H
  H525     1.0000 0.89820  0.53990  0.07840  Biso   1.000  H
  H526     1.0000 0.92670  0.47990  0.10980  Biso   1.000  H
  C613     1.0000 0.98930  0.61670  0.13450  Biso   1.000  C
  H527     1.0000 0.00870  0.61670  0.16620  Biso   1.000  H
  H528     1.0000 0.95910  0.62490  0.13420  Biso   1.000  H
  C614     1.0000 0.00280  0.67560  0.10940  Biso   1.000  C
  H529     1.0000 0.00660  0.71840  0.12710  Biso   1.000  H
  H530     1.0000 0.98010  0.68260  0.08020  Biso   1.000  H
  H531     1.0000 0.03040  0.66360  0.10480  Biso   1.000  H
  O268     1.0000 0.81200  0.53270  0.94400  Biso   1.000  O
  O269     1.0000 0.83440  0.48980  0.88980  Biso   1.000  O
  C615     1.0000 0.82200  0.55200  0.86360  Biso   1.000  C
  H532     1.0000 0.82070  0.54220  0.83230  Biso   1.000  H
  H533     1.0000 0.79230  0.56590  0.86280  Biso   1.000  H
  C616     1.0000 0.85340  0.61250  0.88190  Biso   1.000  C
  O270     1.0000 0.83650  0.66760  0.86230  Biso   1.000  O
  H534     1.0000 0.85330  0.70120  0.87290  Biso   1.000  H
  C617     1.0000 0.05480  0.06030  0.23610  Biso   1.000  C
  H535     1.0000 0.04190  0.02180  0.21750  Biso   1.000  H
  N38      1.0000 0.05550  0.05900  0.27850  Biso   1.000  N
  C618     1.0000 0.08120  0.11570  0.31000  Biso   1.000  C
  H536     1.0000 0.10420  0.13460  0.29900  Biso   1.000  H
  H537     1.0000 0.09520  0.09670  0.34060  Biso   1.000  H
  C619     1.0000 0.05060  0.16930  0.31080  Biso   1.000  C
  H538     1.0000 0.06650  0.21130  0.32460  Biso   1.000  H
  H539     1.0000 0.03200  0.17970  0.28000  Biso   1.000  H
  H540     1.0000 0.03240  0.15350  0.32840  Biso   1.000  H
  C620     1.0000 0.02680  0.00840  0.29280  Biso   1.000  C
  H541     1.0000 0.01350  0.03180  0.31320  Biso   1.000  H
  H542     1.0000 0.00300  0.99150  0.26620  Biso   1.000  H
  C621     1.0000 0.05470  0.94770  0.31690  Biso   1.000  C
  H543     1.0000 0.03650  0.91440  0.32620  Biso   1.000  H
  H544     1.0000 0.06770  0.92470  0.29660  Biso   1.000  H
  H545     1.0000 0.07800  0.96470  0.34350  Biso   1.000  H
  C622     1.0000 0.08530  0.05890  0.24610  Biso   1.000  C
  H546     1.0000 0.09670  0.01910  0.23580  Biso   1.000  H
  N39      1.0000 0.08640  0.06120  0.28820  Biso   1.000  N
  C623     1.0000 0.05240  0.10620  0.29770  Biso   1.000  C
  H547     1.0000 0.06760  0.13780  0.32280  Biso   1.000  H
  H548     1.0000 0.03330  0.07570  0.30830  Biso   1.000  H
  C624     1.0000 0.02450  0.14890  0.26060  Biso   1.000  C
  H549     1.0000 0.02540  0.13060  0.23190  Biso   1.000  H
  H550     1.0000 0.99440  0.14760  0.26100  Biso   1.000  H
  H551     1.0000 0.03500  0.19700  0.26430  Biso   1.000  H
  C625     1.0000 0.10370  0.99550  0.31670  Biso   1.000  C
  H552     1.0000 0.09190  0.95330  0.29890  Biso   1.000  H
  H553     1.0000 0.09460  0.99550  0.34370  Biso   1.000  H
  C626     1.0000 0.15380  0.99630  0.33040  Biso   1.000  C
  H554     1.0000 0.16560  0.95390  0.34730  Biso   1.000  H
  H555     1.0000 0.16240  0.99850  0.30340  Biso   1.000  H
  H556     1.0000 0.16520  0.03700  0.34940  Biso   1.000  H
  C627     1.0000 0.09470  0.38480  0.98480  Biso   1.000  C
  H557     1.0000 0.09870  0.42240  0.00530  Biso   1.000  H
  N40      1.0000 0.09360  0.39670  0.94330  Biso   1.000  N
  C628     1.0000 0.07410  0.34480  0.90780  Biso   1.000  C
  H558     1.0000 0.08910  0.29990  0.91770  Biso   1.000  H
  H559     1.0000 0.08050  0.35920  0.88040  Biso   1.000  H
  C629     1.0000 0.02710  0.33280  0.89520  Biso   1.000  C
  H560     1.0000 0.01640  0.31160  0.86530  Biso   1.000  H
  H561     1.0000 0.02120  0.30160  0.91720  Biso   1.000  H
  H562     1.0000 0.01220  0.37720  0.89480  Biso   1.000  H
  C630     1.0000 0.10260  0.46990  0.93030  Biso   1.000  C
  H563     1.0000 0.12200  0.46790  0.91170  Biso   1.000  H
  H564     1.0000 0.11750  0.49720  0.95770  Biso   1.000  H
  C631     1.0000 0.05980  0.50440  0.90410  Biso   1.000  C
  H565     1.0000 0.06560  0.55050  0.89410  Biso   1.000  H
  H566     1.0000 0.04450  0.47590  0.87780  Biso   1.000  H
  H567     1.0000 0.04160  0.50910  0.92330  Biso   1.000  H
  O271     1.0000 0.08590  0.45830  0.17170  Biso   1.000  O
  C632     1.0000 0.06350  0.49070  0.13880  Biso   1.000  C
  H568     1.0000 0.04170  0.46830  0.11480  Biso   1.000  H
  O272     1.0000 0.07120  0.55960  0.13780  Biso   1.000  O
