data_image0
_cell_length_a       27.75
_cell_length_b       27.75
_cell_length_c       27.75
_cell_angle_alpha    70.755
_cell_angle_beta     70.755
_cell_angle_gamma    70.755

_symmetry_space_group_name_H-M    "P 1"
_symmetry_int_tables_number       1

loop_
  _symmetry_equiv_pos_as_xyz
  'x, y, z'

loop_
  _atom_site_label
  _atom_site_occupancy
  _atom_site_fract_x
  _atom_site_fract_y
  _atom_site_fract_z
  _atom_site_thermal_displace_type
  _atom_site_B_iso_or_equiv
  _atom_site_type_symbol
  O1       1.0000 0.73290  0.34820  0.42370  Biso   1.000  O
  N1       1.0000 0.77920  0.34460  0.43520  Biso   1.000  N
  C1       1.0000 0.77620  0.32220  0.48380  Biso   1.000  C
  H1       1.0000 0.74500  0.31090  0.50400  Biso   1.000  H
  C2       1.0000 0.81630  0.31230  0.51100  Biso   1.000  C
  C3       1.0000 0.86370  0.33030  0.48490  Biso   1.000  C
  C4       1.0000 0.90060  0.31830  0.51600  Biso   1.000  C
  C5       1.0000 0.89100  0.28700  0.56820  Biso   1.000  C
  H2       1.0000 0.91620  0.27880  0.58780  Biso   1.000  H
  C6       1.0000 0.84640  0.26770  0.59200  Biso   1.000  C
  C7       1.0000 0.80930  0.28110  0.56320  Biso   1.000  C
  H3       1.0000 0.77820  0.26870  0.57920  Biso   1.000  H
  C8       1.0000 0.94910  0.33560  0.49660  Biso   1.000  C
  H4       1.0000 0.97000  0.32710  0.52080  Biso   1.000  H
  N2       1.0000 0.96560  0.36110  0.45020  Biso   1.000  N
  O2       1.0000 0.01390  0.36910  0.44600  Biso   1.000  O
  C9       1.0000 0.12350  0.36030  0.43330  Biso   1.000  C
  H5       1.0000 0.10660  0.33490  0.45960  Biso   1.000  H
  C10      1.0000 0.17250  0.36080  0.43480  Biso   1.000  C
  H6       1.0000 0.18910  0.33520  0.46090  Biso   1.000  H
  O3       1.0000 0.87190  0.35830  0.43720  Biso   1.000  O
  C11      1.0000 0.83860  0.23320  0.64880  Biso   1.000  C
  O4       1.0000 0.27120  0.36620  0.43550  Biso   1.000  O
  C12      1.0000 0.02630  0.20810  0.20540  Biso   1.000  C
  C13      1.0000 0.08060  0.21800  0.17780  Biso   1.000  C
  H7       1.0000 0.07700  0.25410  0.15560  Biso   1.000  H
  H8       1.0000 0.09930  0.21310  0.20410  Biso   1.000  H
  H9       1.0000 0.10050  0.19300  0.15580  Biso   1.000  H
  C14      1.0000 0.99510  0.22210  0.16410  Biso   1.000  C
  H10      1.0000 0.95990  0.21590  0.18160  Biso   1.000  H
  H11      1.0000 0.99170  0.25940  0.14530  Biso   1.000  H
  H12      1.0000 0.01370  0.20010  0.13900  Biso   1.000  H
  C15      1.0000 0.02810  0.15280  0.24090  Biso   1.000  C
  H13      1.0000 0.99210  0.14870  0.25760  Biso   1.000  H
  H14      1.0000 0.04730  0.12690  0.21980  Biso   1.000  H
  H15      1.0000 0.04600  0.14700  0.26810  Biso   1.000  H
  C16      1.0000 0.88900  0.19240  0.65890  Biso   1.000  C
  H16      1.0000 0.88210  0.17140  0.69540  Biso   1.000  H
  H17      1.0000 0.90090  0.16920  0.63500  Biso   1.000  H
  H18      1.0000 0.91630  0.21030  0.65280  Biso   1.000  H
  C17      1.0000 0.79680  0.20240  0.66250  Biso   1.000  C
  H19      1.0000 0.76350  0.22700  0.65660  Biso   1.000  H
  H20      1.0000 0.80870  0.17770  0.64010  Biso   1.000  H
  H21      1.0000 0.79170  0.18280  0.69960  Biso   1.000  H
  C18      1.0000 0.81720  0.27160  0.68460  Biso   1.000  C
  H22      1.0000 0.78490  0.29680  0.67640  Biso   1.000  H
  H23      1.0000 0.80950  0.25180  0.72150  Biso   1.000  H
  H24      1.0000 0.84370  0.29060  0.67860  Biso   1.000  H
  C19      1.0000 0.85100  0.17510  0.64850  Biso   1.000  C
  H25      1.0000 0.88650  0.16450  0.62710  Biso   1.000  H
  H26      1.0000 0.84790  0.15310  0.68460  Biso   1.000  H
  H27      1.0000 0.82550  0.17060  0.63360  Biso   1.000  H
  C20      1.0000 0.78270  0.24900  0.68220  Biso   1.000  C
  H28      1.0000 0.77960  0.22630  0.71790  Biso   1.000  H
  H29      1.0000 0.77520  0.28590  0.68380  Biso   1.000  H
  H30      1.0000 0.75750  0.24600  0.66640  Biso   1.000  H
  C21      1.0000 0.87590  0.23800  0.67640  Biso   1.000  C
  H31      1.0000 0.91240  0.22820  0.65620  Biso   1.000  H
  H32      1.0000 0.86760  0.27470  0.67850  Biso   1.000  H
  H33      1.0000 0.87160  0.21490  0.71200  Biso   1.000  H
  C22      1.0000 0.63630  0.41300  0.35900  Biso   1.000  C
  H34      1.0000 0.64300  0.44550  0.35600  Biso   1.000  H
  C23      1.0000 0.58730  0.41300  0.35600  Biso   1.000  C
  H35      1.0000 0.56160  0.44520  0.34930  Biso   1.000  H
  C24      1.0000 0.62010  0.32490  0.35040  Biso   1.000  C
  H36      1.0000 0.61700  0.29810  0.33820  Biso   1.000  H
  C25      1.0000 0.66860  0.32500  0.35430  Biso   1.000  C
  H37      1.0000 0.69760  0.29570  0.34860  Biso   1.000  H
  O5       1.0000 0.42370  0.73290  0.34820  Biso   1.000  O
  N3       1.0000 0.43520  0.77920  0.34460  Biso   1.000  N
  C26      1.0000 0.48380  0.77620  0.32220  Biso   1.000  C
  H38      1.0000 0.50400  0.74500  0.31090  Biso   1.000  H
  C27      1.0000 0.51100  0.81630  0.31230  Biso   1.000  C
  C28      1.0000 0.48490  0.86370  0.33030  Biso   1.000  C
  C29      1.0000 0.51600  0.90060  0.31830  Biso   1.000  C
  C30      1.0000 0.56820  0.89100  0.28700  Biso   1.000  C
  H39      1.0000 0.58780  0.91620  0.27880  Biso   1.000  H
  C31      1.0000 0.59200  0.84640  0.26770  Biso   1.000  C
  C32      1.0000 0.56320  0.80930  0.28110  Biso   1.000  C
  H40      1.0000 0.57920  0.77820  0.26870  Biso   1.000  H
  C33      1.0000 0.49660  0.94910  0.33560  Biso   1.000  C
  H41      1.0000 0.52080  0.97000  0.32710  Biso   1.000  H
  N4       1.0000 0.45020  0.96560  0.36110  Biso   1.000  N
  O6       1.0000 0.44600  0.01390  0.36910  Biso   1.000  O
  C34      1.0000 0.43330  0.12350  0.36030  Biso   1.000  C
  H42      1.0000 0.45960  0.10660  0.33490  Biso   1.000  H
  C35      1.0000 0.43480  0.17250  0.36080  Biso   1.000  C
  H43      1.0000 0.46090  0.18910  0.33520  Biso   1.000  H
  O7       1.0000 0.43720  0.87190  0.35830  Biso   1.000  O
  C36      1.0000 0.64880  0.83860  0.23320  Biso   1.000  C
  O8       1.0000 0.43550  0.27120  0.36620  Biso   1.000  O
  C37      1.0000 0.20540  0.02630  0.20810  Biso   1.000  C
  C38      1.0000 0.17780  0.08060  0.21800  Biso   1.000  C
  H44      1.0000 0.15560  0.07700  0.25410  Biso   1.000  H
  H45      1.0000 0.20410  0.09930  0.21310  Biso   1.000  H
  H46      1.0000 0.15580  0.10050  0.19300  Biso   1.000  H
  C39      1.0000 0.16410  0.99510  0.22210  Biso   1.000  C
  H47      1.0000 0.18160  0.95990  0.21590  Biso   1.000  H
  H48      1.0000 0.14530  0.99170  0.25940  Biso   1.000  H
  H49      1.0000 0.13900  0.01370  0.20010  Biso   1.000  H
  C40      1.0000 0.24090  0.02810  0.15280  Biso   1.000  C
  H50      1.0000 0.25760  0.99210  0.14870  Biso   1.000  H
  H51      1.0000 0.21980  0.04730  0.12690  Biso   1.000  H
  H52      1.0000 0.26810  0.04600  0.14700  Biso   1.000  H
  C41      1.0000 0.65890  0.88900  0.19240  Biso   1.000  C
  H53      1.0000 0.69540  0.88210  0.17140  Biso   1.000  H
  H54      1.0000 0.63500  0.90090  0.16920  Biso   1.000  H
  H55      1.0000 0.65280  0.91630  0.21030  Biso   1.000  H
  C42      1.0000 0.66250  0.79680  0.20240  Biso   1.000  C
  H56      1.0000 0.65660  0.76350  0.22700  Biso   1.000  H
  H57      1.0000 0.64010  0.80870  0.17770  Biso   1.000  H
  H58      1.0000 0.69960  0.79170  0.18280  Biso   1.000  H
  C43      1.0000 0.68460  0.81720  0.27160  Biso   1.000  C
  H59      1.0000 0.67640  0.78490  0.29680  Biso   1.000  H
  H60      1.0000 0.72150  0.80950  0.25180  Biso   1.000  H
  H61      1.0000 0.67860  0.84370  0.29060  Biso   1.000  H
  C44      1.0000 0.64850  0.85100  0.17510  Biso   1.000  C
  H62      1.0000 0.62710  0.88650  0.16450  Biso   1.000  H
  H63      1.0000 0.68460  0.84790  0.15310  Biso   1.000  H
  H64      1.0000 0.63360  0.82550  0.17060  Biso   1.000  H
  C45      1.0000 0.68220  0.78270  0.24900  Biso   1.000  C
  H65      1.0000 0.71790  0.77960  0.22630  Biso   1.000  H
  H66      1.0000 0.68380  0.77520  0.28590  Biso   1.000  H
  H67      1.0000 0.66640  0.75750  0.24600  Biso   1.000  H
  C46      1.0000 0.67640  0.87590  0.23800  Biso   1.000  C
  H68      1.0000 0.65620  0.91240  0.22820  Biso   1.000  H
  H69      1.0000 0.67850  0.86760  0.27470  Biso   1.000  H
  H70      1.0000 0.71200  0.87160  0.21490  Biso   1.000  H
  C47      1.0000 0.35900  0.63630  0.41300  Biso   1.000  C
  H71      1.0000 0.35600  0.64300  0.44550  Biso   1.000  H
  C48      1.0000 0.35600  0.58730  0.41300  Biso   1.000  C
  H72      1.0000 0.34930  0.56160  0.44520  Biso   1.000  H
  C49      1.0000 0.35040  0.62010  0.32490  Biso   1.000  C
  H73      1.0000 0.33820  0.61700  0.29810  Biso   1.000  H
  C50      1.0000 0.35430  0.66860  0.32500  Biso   1.000  C
  H74      1.0000 0.34860  0.69760  0.29570  Biso   1.000  H
  O9       1.0000 0.34820  0.42370  0.73290  Biso   1.000  O
  N5       1.0000 0.34460  0.43520  0.77920  Biso   1.000  N
  C51      1.0000 0.32220  0.48380  0.77620  Biso   1.000  C
  H75      1.0000 0.31090  0.50400  0.74500  Biso   1.000  H
  C52      1.0000 0.31230  0.51100  0.81630  Biso   1.000  C
  C53      1.0000 0.33030  0.48490  0.86370  Biso   1.000  C
  C54      1.0000 0.31830  0.51600  0.90060  Biso   1.000  C
  C55      1.0000 0.28700  0.56820  0.89100  Biso   1.000  C
  H76      1.0000 0.27880  0.58780  0.91620  Biso   1.000  H
  C56      1.0000 0.26770  0.59200  0.84640  Biso   1.000  C
  C57      1.0000 0.28110  0.56320  0.80930  Biso   1.000  C
  H77      1.0000 0.26870  0.57920  0.77820  Biso   1.000  H
  C58      1.0000 0.33560  0.49660  0.94910  Biso   1.000  C
  H78      1.0000 0.32710  0.52080  0.97000  Biso   1.000  H
  N6       1.0000 0.36110  0.45020  0.96560  Biso   1.000  N
  O10      1.0000 0.36910  0.44600  0.01390  Biso   1.000  O
  C59      1.0000 0.36030  0.43330  0.12350  Biso   1.000  C
  H79      1.0000 0.33490  0.45960  0.10660  Biso   1.000  H
  C60      1.0000 0.36080  0.43480  0.17250  Biso   1.000  C
  H80      1.0000 0.33520  0.46090  0.18910  Biso   1.000  H
  O11      1.0000 0.35830  0.43720  0.87190  Biso   1.000  O
  C61      1.0000 0.23320  0.64880  0.83860  Biso   1.000  C
  O12      1.0000 0.36620  0.43550  0.27120  Biso   1.000  O
  C62      1.0000 0.20810  0.20540  0.02630  Biso   1.000  C
  C63      1.0000 0.21800  0.17780  0.08060  Biso   1.000  C
  H81      1.0000 0.25410  0.15560  0.07700  Biso   1.000  H
  H82      1.0000 0.21310  0.20410  0.09930  Biso   1.000  H
  H83      1.0000 0.19300  0.15580  0.10050  Biso   1.000  H
  C64      1.0000 0.22210  0.16410  0.99510  Biso   1.000  C
  H84      1.0000 0.21590  0.18160  0.95990  Biso   1.000  H
  H85      1.0000 0.25940  0.14530  0.99170  Biso   1.000  H
  H86      1.0000 0.20010  0.13900  0.01370  Biso   1.000  H
  C65      1.0000 0.15280  0.24090  0.02810  Biso   1.000  C
  H87      1.0000 0.14870  0.25760  0.99210  Biso   1.000  H
  H88      1.0000 0.12690  0.21980  0.04730  Biso   1.000  H
  H89      1.0000 0.14700  0.26810  0.04600  Biso   1.000  H
  C66      1.0000 0.19240  0.65890  0.88900  Biso   1.000  C
  H90      1.0000 0.17140  0.69540  0.88210  Biso   1.000  H
  H91      1.0000 0.16920  0.63500  0.90090  Biso   1.000  H
  H92      1.0000 0.21030  0.65280  0.91630  Biso   1.000  H
  C67      1.0000 0.20240  0.66250  0.79680  Biso   1.000  C
  H93      1.0000 0.22700  0.65660  0.76350  Biso   1.000  H
  H94      1.0000 0.17770  0.64010  0.80870  Biso   1.000  H
  H95      1.0000 0.18280  0.69960  0.79170  Biso   1.000  H
  C68      1.0000 0.27160  0.68460  0.81720  Biso   1.000  C
  H96      1.0000 0.29680  0.67640  0.78490  Biso   1.000  H
  H97      1.0000 0.25180  0.72150  0.80950  Biso   1.000  H
  H98      1.0000 0.29060  0.67860  0.84370  Biso   1.000  H
  C69      1.0000 0.17510  0.64850  0.85100  Biso   1.000  C
  H99      1.0000 0.16450  0.62710  0.88650  Biso   1.000  H
  H100     1.0000 0.15310  0.68460  0.84790  Biso   1.000  H
  H101     1.0000 0.17060  0.63360  0.82550  Biso   1.000  H
  C70      1.0000 0.24900  0.68220  0.78270  Biso   1.000  C
  H102     1.0000 0.22630  0.71790  0.77960  Biso   1.000  H
  H103     1.0000 0.28590  0.68380  0.77520  Biso   1.000  H
  H104     1.0000 0.24600  0.66640  0.75750  Biso   1.000  H
  C71      1.0000 0.23800  0.67640  0.87590  Biso   1.000  C
  H105     1.0000 0.22820  0.65620  0.91240  Biso   1.000  H
  H106     1.0000 0.27470  0.67850  0.86760  Biso   1.000  H
  H107     1.0000 0.21490  0.71200  0.87160  Biso   1.000  H
  C72      1.0000 0.41300  0.35900  0.63630  Biso   1.000  C
  H108     1.0000 0.44550  0.35600  0.64300  Biso   1.000  H
  C73      1.0000 0.41300  0.35600  0.58730  Biso   1.000  C
  H109     1.0000 0.44520  0.34930  0.56160  Biso   1.000  H
  C74      1.0000 0.32490  0.35040  0.62010  Biso   1.000  C
  H110     1.0000 0.29810  0.33820  0.61700  Biso   1.000  H
  C75      1.0000 0.32500  0.35430  0.66860  Biso   1.000  C
  H111     1.0000 0.29570  0.34860  0.69760  Biso   1.000  H
  O13      1.0000 0.34820  0.73290  0.42370  Biso   1.000  O
  N7       1.0000 0.34460  0.77920  0.43520  Biso   1.000  N
  C76      1.0000 0.32220  0.77620  0.48380  Biso   1.000  C
  H112     1.0000 0.31090  0.74500  0.50400  Biso   1.000  H
  C77      1.0000 0.31230  0.81630  0.51100  Biso   1.000  C
  C78      1.0000 0.33030  0.86370  0.48490  Biso   1.000  C
  C79      1.0000 0.31830  0.90060  0.51600  Biso   1.000  C
  C80      1.0000 0.28700  0.89100  0.56820  Biso   1.000  C
  H113     1.0000 0.27880  0.91620  0.58780  Biso   1.000  H
  C81      1.0000 0.26770  0.84640  0.59200  Biso   1.000  C
  C82      1.0000 0.28110  0.80930  0.56320  Biso   1.000  C
  H114     1.0000 0.26870  0.77820  0.57920  Biso   1.000  H
  C83      1.0000 0.33560  0.94910  0.49660  Biso   1.000  C
  H115     1.0000 0.32710  0.97000  0.52080  Biso   1.000  H
  N8       1.0000 0.36110  0.96560  0.45020  Biso   1.000  N
  O14      1.0000 0.36910  0.01390  0.44600  Biso   1.000  O
  C84      1.0000 0.36030  0.12350  0.43330  Biso   1.000  C
  H116     1.0000 0.33490  0.10660  0.45960  Biso   1.000  H
  C85      1.0000 0.36080  0.17250  0.43480  Biso   1.000  C
  H117     1.0000 0.33520  0.18910  0.46090  Biso   1.000  H
  O15      1.0000 0.35830  0.87190  0.43720  Biso   1.000  O
  C86      1.0000 0.23320  0.83860  0.64880  Biso   1.000  C
  O16      1.0000 0.36620  0.27120  0.43550  Biso   1.000  O
  C87      1.0000 0.20810  0.02630  0.20540  Biso   1.000  C
  C88      1.0000 0.21800  0.08060  0.17780  Biso   1.000  C
  H118     1.0000 0.25410  0.07700  0.15560  Biso   1.000  H
  H119     1.0000 0.21310  0.09930  0.20410  Biso   1.000  H
  H120     1.0000 0.19300  0.10050  0.15580  Biso   1.000  H
  C89      1.0000 0.22210  0.99510  0.16410  Biso   1.000  C
  H121     1.0000 0.21590  0.95990  0.18160  Biso   1.000  H
  H122     1.0000 0.25940  0.99170  0.14530  Biso   1.000  H
  H123     1.0000 0.20010  0.01370  0.13900  Biso   1.000  H
  C90      1.0000 0.15280  0.02810  0.24090  Biso   1.000  C
  H124     1.0000 0.14870  0.99210  0.25760  Biso   1.000  H
  H125     1.0000 0.12690  0.04730  0.21980  Biso   1.000  H
  H126     1.0000 0.14700  0.04600  0.26810  Biso   1.000  H
  C91      1.0000 0.19240  0.88900  0.65890  Biso   1.000  C
  H127     1.0000 0.17140  0.88210  0.69540  Biso   1.000  H
  H128     1.0000 0.16920  0.90090  0.63500  Biso   1.000  H
  H129     1.0000 0.21030  0.91630  0.65280  Biso   1.000  H
  C92      1.0000 0.20240  0.79680  0.66250  Biso   1.000  C
  H130     1.0000 0.22700  0.76350  0.65660  Biso   1.000  H
  H131     1.0000 0.17770  0.80870  0.64010  Biso   1.000  H
  H132     1.0000 0.18280  0.79170  0.69960  Biso   1.000  H
  C93      1.0000 0.27160  0.81720  0.68460  Biso   1.000  C
  H133     1.0000 0.29680  0.78490  0.67640  Biso   1.000  H
  H134     1.0000 0.25180  0.80950  0.72150  Biso   1.000  H
  H135     1.0000 0.29060  0.84370  0.67860  Biso   1.000  H
  C94      1.0000 0.17510  0.85100  0.64850  Biso   1.000  C
  H136     1.0000 0.16450  0.88650  0.62710  Biso   1.000  H
  H137     1.0000 0.15310  0.84790  0.68460  Biso   1.000  H
  H138     1.0000 0.17060  0.82550  0.63360  Biso   1.000  H
  C95      1.0000 0.24900  0.78270  0.68220  Biso   1.000  C
  H139     1.0000 0.22630  0.77960  0.71790  Biso   1.000  H
  H140     1.0000 0.28590  0.77520  0.68380  Biso   1.000  H
  H141     1.0000 0.24600  0.75750  0.66640  Biso   1.000  H
  C96      1.0000 0.23800  0.87590  0.67640  Biso   1.000  C
  H142     1.0000 0.22820  0.91240  0.65620  Biso   1.000  H
  H143     1.0000 0.27470  0.86760  0.67850  Biso   1.000  H
  H144     1.0000 0.21490  0.87160  0.71200  Biso   1.000  H
  C97      1.0000 0.41300  0.63630  0.35900  Biso   1.000  C
  H145     1.0000 0.44550  0.64300  0.35600  Biso   1.000  H
  C98      1.0000 0.41300  0.58730  0.35600  Biso   1.000  C
  H146     1.0000 0.44520  0.56160  0.34930  Biso   1.000  H
  C99      1.0000 0.32490  0.62010  0.35040  Biso   1.000  C
  H147     1.0000 0.29810  0.61700  0.33820  Biso   1.000  H
  C100     1.0000 0.32500  0.66860  0.35430  Biso   1.000  C
  H148     1.0000 0.29570  0.69760  0.34860  Biso   1.000  H
  O17      1.0000 0.73290  0.42370  0.34820  Biso   1.000  O
  N9       1.0000 0.77920  0.43520  0.34460  Biso   1.000  N
  C101     1.0000 0.77620  0.48380  0.32220  Biso   1.000  C
  H149     1.0000 0.74500  0.50400  0.31090  Biso   1.000  H
  C102     1.0000 0.81630  0.51100  0.31230  Biso   1.000  C
  C103     1.0000 0.86370  0.48490  0.33030  Biso   1.000  C
  C104     1.0000 0.90060  0.51600  0.31830  Biso   1.000  C
  C105     1.0000 0.89100  0.56820  0.28700  Biso   1.000  C
  H150     1.0000 0.91620  0.58780  0.27880  Biso   1.000  H
  C106     1.0000 0.84640  0.59200  0.26770  Biso   1.000  C
  C107     1.0000 0.80930  0.56320  0.28110  Biso   1.000  C
  H151     1.0000 0.77820  0.57920  0.26870  Biso   1.000  H
  C108     1.0000 0.94910  0.49660  0.33560  Biso   1.000  C
  H152     1.0000 0.97000  0.52080  0.32710  Biso   1.000  H
  N10      1.0000 0.96560  0.45020  0.36110  Biso   1.000  N
  O18      1.0000 0.01390  0.44600  0.36910  Biso   1.000  O
  C109     1.0000 0.12350  0.43330  0.36030  Biso   1.000  C
  H153     1.0000 0.10660  0.45960  0.33490  Biso   1.000  H
  C110     1.0000 0.17250  0.43480  0.36080  Biso   1.000  C
  H154     1.0000 0.18910  0.46090  0.33520  Biso   1.000  H
  O19      1.0000 0.87190  0.43720  0.35830  Biso   1.000  O
  C111     1.0000 0.83860  0.64880  0.23320  Biso   1.000  C
  O20      1.0000 0.27120  0.43550  0.36620  Biso   1.000  O
  C112     1.0000 0.02630  0.20540  0.20810  Biso   1.000  C
  C113     1.0000 0.08060  0.17780  0.21800  Biso   1.000  C
  H155     1.0000 0.07700  0.15560  0.25410  Biso   1.000  H
  H156     1.0000 0.09930  0.20410  0.21310  Biso   1.000  H
  H157     1.0000 0.10050  0.15580  0.19300  Biso   1.000  H
  C114     1.0000 0.99510  0.16410  0.22210  Biso   1.000  C
  H158     1.0000 0.95990  0.18160  0.21590  Biso   1.000  H
  H159     1.0000 0.99170  0.14530  0.25940  Biso   1.000  H
  H160     1.0000 0.01370  0.13900  0.20010  Biso   1.000  H
  C115     1.0000 0.02810  0.24090  0.15280  Biso   1.000  C
  H161     1.0000 0.99210  0.25760  0.14870  Biso   1.000  H
  H162     1.0000 0.04730  0.21980  0.12690  Biso   1.000  H
  H163     1.0000 0.04600  0.26810  0.14700  Biso   1.000  H
  C116     1.0000 0.88900  0.65890  0.19240  Biso   1.000  C
  H164     1.0000 0.88210  0.69540  0.17140  Biso   1.000  H
  H165     1.0000 0.90090  0.63500  0.16920  Biso   1.000  H
  H166     1.0000 0.91630  0.65280  0.21030  Biso   1.000  H
  C117     1.0000 0.79680  0.66250  0.20240  Biso   1.000  C
  H167     1.0000 0.76350  0.65660  0.22700  Biso   1.000  H
  H168     1.0000 0.80870  0.64010  0.17770  Biso   1.000  H
  H169     1.0000 0.79170  0.69960  0.18280  Biso   1.000  H
  C118     1.0000 0.81720  0.68460  0.27160  Biso   1.000  C
  H170     1.0000 0.78490  0.67640  0.29680  Biso   1.000  H
  H171     1.0000 0.80950  0.72150  0.25180  Biso   1.000  H
  H172     1.0000 0.84370  0.67860  0.29060  Biso   1.000  H
  C119     1.0000 0.85100  0.64850  0.17510  Biso   1.000  C
  H173     1.0000 0.88650  0.62710  0.16450  Biso   1.000  H
  H174     1.0000 0.84790  0.68460  0.15310  Biso   1.000  H
  H175     1.0000 0.82550  0.63360  0.17060  Biso   1.000  H
  C120     1.0000 0.78270  0.68220  0.24900  Biso   1.000  C
  H176     1.0000 0.77960  0.71790  0.22630  Biso   1.000  H
  H177     1.0000 0.77520  0.68380  0.28590  Biso   1.000  H
  H178     1.0000 0.75750  0.66640  0.24600  Biso   1.000  H
  C121     1.0000 0.87590  0.67640  0.23800  Biso   1.000  C
  H179     1.0000 0.91240  0.65620  0.22820  Biso   1.000  H
  H180     1.0000 0.86760  0.67850  0.27470  Biso   1.000  H
  H181     1.0000 0.87160  0.71200  0.21490  Biso   1.000  H
  C122     1.0000 0.63630  0.35900  0.41300  Biso   1.000  C
  H182     1.0000 0.64300  0.35600  0.44550  Biso   1.000  H
  C123     1.0000 0.58730  0.35600  0.41300  Biso   1.000  C
  H183     1.0000 0.56160  0.34930  0.44520  Biso   1.000  H
  C124     1.0000 0.62010  0.35040  0.32490  Biso   1.000  C
  H184     1.0000 0.61700  0.33820  0.29810  Biso   1.000  H
  C125     1.0000 0.66860  0.35430  0.32500  Biso   1.000  C
  H185     1.0000 0.69760  0.34860  0.29570  Biso   1.000  H
  O21      1.0000 0.42370  0.34820  0.73290  Biso   1.000  O
  N11      1.0000 0.43520  0.34460  0.77920  Biso   1.000  N
  C126     1.0000 0.48380  0.32220  0.77620  Biso   1.000  C
  H186     1.0000 0.50400  0.31090  0.74500  Biso   1.000  H
  C127     1.0000 0.51100  0.31230  0.81630  Biso   1.000  C
  C128     1.0000 0.48490  0.33030  0.86370  Biso   1.000  C
  C129     1.0000 0.51600  0.31830  0.90060  Biso   1.000  C
  C130     1.0000 0.56820  0.28700  0.89100  Biso   1.000  C
  H187     1.0000 0.58780  0.27880  0.91620  Biso   1.000  H
  C131     1.0000 0.59200  0.26770  0.84640  Biso   1.000  C
  C132     1.0000 0.56320  0.28110  0.80930  Biso   1.000  C
  H188     1.0000 0.57920  0.26870  0.77820  Biso   1.000  H
  C133     1.0000 0.49660  0.33560  0.94910  Biso   1.000  C
  H189     1.0000 0.52080  0.32710  0.97000  Biso   1.000  H
  N12      1.0000 0.45020  0.36110  0.96560  Biso   1.000  N
  O22      1.0000 0.44600  0.36910  0.01390  Biso   1.000  O
  C134     1.0000 0.43330  0.36030  0.12350  Biso   1.000  C
  H190     1.0000 0.45960  0.33490  0.10660  Biso   1.000  H
  C135     1.0000 0.43480  0.36080  0.17250  Biso   1.000  C
  H191     1.0000 0.46090  0.33520  0.18910  Biso   1.000  H
  O23      1.0000 0.43720  0.35830  0.87190  Biso   1.000  O
  C136     1.0000 0.64880  0.23320  0.83860  Biso   1.000  C
  O24      1.0000 0.43550  0.36620  0.27120  Biso   1.000  O
  C137     1.0000 0.20540  0.20810  0.02630  Biso   1.000  C
  C138     1.0000 0.17780  0.21800  0.08060  Biso   1.000  C
  H192     1.0000 0.15560  0.25410  0.07700  Biso   1.000  H
  H193     1.0000 0.20410  0.21310  0.09930  Biso   1.000  H
  H194     1.0000 0.15580  0.19300  0.10050  Biso   1.000  H
  C139     1.0000 0.16410  0.22210  0.99510  Biso   1.000  C
  H195     1.0000 0.18160  0.21590  0.95990  Biso   1.000  H
  H196     1.0000 0.14530  0.25940  0.99170  Biso   1.000  H
  H197     1.0000 0.13900  0.20010  0.01370  Biso   1.000  H
  C140     1.0000 0.24090  0.15280  0.02810  Biso   1.000  C
  H198     1.0000 0.25760  0.14870  0.99210  Biso   1.000  H
  H199     1.0000 0.21980  0.12690  0.04730  Biso   1.000  H
  H200     1.0000 0.26810  0.14700  0.04600  Biso   1.000  H
  C141     1.0000 0.65890  0.19240  0.88900  Biso   1.000  C
  H201     1.0000 0.69540  0.17140  0.88210  Biso   1.000  H
  H202     1.0000 0.63500  0.16920  0.90090  Biso   1.000  H
  H203     1.0000 0.65280  0.21030  0.91630  Biso   1.000  H
  C142     1.0000 0.66250  0.20240  0.79680  Biso   1.000  C
  H204     1.0000 0.65660  0.22700  0.76350  Biso   1.000  H
  H205     1.0000 0.64010  0.17770  0.80870  Biso   1.000  H
  H206     1.0000 0.69960  0.18280  0.79170  Biso   1.000  H
  C143     1.0000 0.68460  0.27160  0.81720  Biso   1.000  C
  H207     1.0000 0.67640  0.29680  0.78490  Biso   1.000  H
  H208     1.0000 0.72150  0.25180  0.80950  Biso   1.000  H
  H209     1.0000 0.67860  0.29060  0.84370  Biso   1.000  H
  C144     1.0000 0.64850  0.17510  0.85100  Biso   1.000  C
  H210     1.0000 0.62710  0.16450  0.88650  Biso   1.000  H
  H211     1.0000 0.68460  0.15310  0.84790  Biso   1.000  H
  H212     1.0000 0.63360  0.17060  0.82550  Biso   1.000  H
  C145     1.0000 0.68220  0.24900  0.78270  Biso   1.000  C
  H213     1.0000 0.71790  0.22630  0.77960  Biso   1.000  H
  H214     1.0000 0.68380  0.28590  0.77520  Biso   1.000  H
  H215     1.0000 0.66640  0.24600  0.75750  Biso   1.000  H
  C146     1.0000 0.67640  0.23800  0.87590  Biso   1.000  C
  H216     1.0000 0.65620  0.22820  0.91240  Biso   1.000  H
  H217     1.0000 0.67850  0.27470  0.86760  Biso   1.000  H
  H218     1.0000 0.71200  0.21490  0.87160  Biso   1.000  H
  C147     1.0000 0.35900  0.41300  0.63630  Biso   1.000  C
  H219     1.0000 0.35600  0.44550  0.64300  Biso   1.000  H
  C148     1.0000 0.35600  0.41300  0.58730  Biso   1.000  C
  H220     1.0000 0.34930  0.44520  0.56160  Biso   1.000  H
  C149     1.0000 0.35040  0.32490  0.62010  Biso   1.000  C
  H221     1.0000 0.33820  0.29810  0.61700  Biso   1.000  H
  C150     1.0000 0.35430  0.32500  0.66860  Biso   1.000  C
  H222     1.0000 0.34860  0.29570  0.69760  Biso   1.000  H
  Zn1      1.0000 0.93724  0.38353  0.38353  Biso   1.000  Zn
  Zn2      1.0000 0.83677  0.37573  0.37573  Biso   1.000  Zn
  Zn3      1.0000 0.44230  0.34303  0.34303  Biso   1.000  Zn
  C151     1.0000 0.67660  0.36640  0.36640  Biso   1.000  C
  C152     1.0000 0.57600  0.36450  0.36450  Biso   1.000  C
  B1       1.0000 0.73300  0.36800  0.36800  Biso   1.000  B
  B2       1.0000 0.04030  0.39480  0.39480  Biso   1.000  B
  O25      1.0000 0.77360  0.33520  0.33520  Biso   1.000  O
  N13      1.0000 0.82450  0.33200  0.33200  Biso   1.000  N
  C153     1.0000 0.85700  0.30270  0.30270  Biso   1.000  C
  H223     1.0000 0.84280  0.28680  0.28680  Biso   1.000  H
  C154     1.0000 0.91390  0.29140  0.29140  Biso   1.000  C
  C155     1.0000 0.94090  0.31230  0.31230  Biso   1.000  C
  C156     1.0000 0.99750  0.29770  0.29770  Biso   1.000  C
  C157     1.0000 0.02390  0.26400  0.26400  Biso   1.000  C
  H224     1.0000 0.06130  0.25470  0.25470  Biso   1.000  H
  C158     1.0000 0.99730  0.24380  0.24380  Biso   1.000  C
  C159     1.0000 0.94290  0.25780  0.25780  Biso   1.000  C
  H225     1.0000 0.92440  0.24410  0.24410  Biso   1.000  H
  C160     1.0000 0.02880  0.31690  0.31690  Biso   1.000  C
  H226     1.0000 0.06580  0.30460  0.30460  Biso   1.000  H
  N14      1.0000 0.01500  0.34810  0.34810  Biso   1.000  N
  O26      1.0000 0.05630  0.35770  0.35770  Biso   1.000  O
  C161     1.0000 0.09760  0.39520  0.39520  Biso   1.000  C
  C162     1.0000 0.19770  0.39850  0.39850  Biso   1.000  C
  C163     1.0000 0.52230  0.36360  0.36360  Biso   1.000  C
  O27      1.0000 0.48560  0.39160  0.39160  Biso   1.000  O
  O28      1.0000 0.51770  0.33760  0.33760  Biso   1.000  O
  O29      1.0000 0.91470  0.34300  0.34300  Biso   1.000  O
  C164     1.0000 0.25050  0.40070  0.40070  Biso   1.000  C
  C165     1.0000 0.63030  0.39470  0.39470  Biso   1.000  C
  H227     1.0000 0.63290  0.41500  0.41500  Biso   1.000  H
  C166     1.0000 0.58080  0.39400  0.39400  Biso   1.000  C
  H228     1.0000 0.55020  0.41370  0.41370  Biso   1.000  H
  C167     1.0000 0.62130  0.33610  0.33610  Biso   1.000  C
  H229     1.0000 0.61860  0.31580  0.31580  Biso   1.000  H
  C168     1.0000 0.67030  0.33730  0.33730  Biso   1.000  C
  H230     1.0000 0.70080  0.31760  0.31760  Biso   1.000  H
  Zn4      1.0000 0.38353  0.93724  0.38353  Biso   1.000  Zn
  Zn5      1.0000 0.37573  0.83677  0.37573  Biso   1.000  Zn
  Zn6      1.0000 0.34303  0.44230  0.34303  Biso   1.000  Zn
  C169     1.0000 0.36640  0.67660  0.36640  Biso   1.000  C
  C170     1.0000 0.36450  0.57600  0.36450  Biso   1.000  C
  B3       1.0000 0.36800  0.73300  0.36800  Biso   1.000  B
  B4       1.0000 0.39480  0.04030  0.39480  Biso   1.000  B
  O30      1.0000 0.33520  0.77360  0.33520  Biso   1.000  O
  N15      1.0000 0.33200  0.82450  0.33200  Biso   1.000  N
  C171     1.0000 0.30270  0.85700  0.30270  Biso   1.000  C
  H231     1.0000 0.28680  0.84280  0.28680  Biso   1.000  H
  C172     1.0000 0.29140  0.91390  0.29140  Biso   1.000  C
  C173     1.0000 0.31230  0.94090  0.31230  Biso   1.000  C
  C174     1.0000 0.29770  0.99750  0.29770  Biso   1.000  C
  C175     1.0000 0.26400  0.02390  0.26400  Biso   1.000  C
  H232     1.0000 0.25470  0.06130  0.25470  Biso   1.000  H
  C176     1.0000 0.24380  0.99730  0.24380  Biso   1.000  C
  C177     1.0000 0.25780  0.94290  0.25780  Biso   1.000  C
  H233     1.0000 0.24410  0.92440  0.24410  Biso   1.000  H
  C178     1.0000 0.31690  0.02880  0.31690  Biso   1.000  C
  H234     1.0000 0.30460  0.06580  0.30460  Biso   1.000  H
  N16      1.0000 0.34810  0.01500  0.34810  Biso   1.000  N
  O31      1.0000 0.35770  0.05630  0.35770  Biso   1.000  O
  C179     1.0000 0.39520  0.09760  0.39520  Biso   1.000  C
  C180     1.0000 0.39850  0.19770  0.39850  Biso   1.000  C
  C181     1.0000 0.36360  0.52230  0.36360  Biso   1.000  C
  O32      1.0000 0.39160  0.48560  0.39160  Biso   1.000  O
  O33      1.0000 0.33760  0.51770  0.33760  Biso   1.000  O
  O34      1.0000 0.34300  0.91470  0.34300  Biso   1.000  O
  C182     1.0000 0.40070  0.25050  0.40070  Biso   1.000  C
  C183     1.0000 0.39470  0.63030  0.39470  Biso   1.000  C
  H235     1.0000 0.41500  0.63290  0.41500  Biso   1.000  H
  C184     1.0000 0.39400  0.58080  0.39400  Biso   1.000  C
  H236     1.0000 0.41370  0.55020  0.41370  Biso   1.000  H
  C185     1.0000 0.33610  0.62130  0.33610  Biso   1.000  C
  H237     1.0000 0.31580  0.61860  0.31580  Biso   1.000  H
  C186     1.0000 0.33730  0.67030  0.33730  Biso   1.000  C
  H238     1.0000 0.31760  0.70080  0.31760  Biso   1.000  H
  Zn7      1.0000 0.38353  0.38353  0.93724  Biso   1.000  Zn
  Zn8      1.0000 0.37573  0.37573  0.83677  Biso   1.000  Zn
  Zn9      1.0000 0.34303  0.34303  0.44230  Biso   1.000  Zn
  C187     1.0000 0.36640  0.36640  0.67660  Biso   1.000  C
  C188     1.0000 0.36450  0.36450  0.57600  Biso   1.000  C
  B5       1.0000 0.36800  0.36800  0.73300  Biso   1.000  B
  B6       1.0000 0.39480  0.39480  0.04030  Biso   1.000  B
  O35      1.0000 0.33520  0.33520  0.77360  Biso   1.000  O
  N17      1.0000 0.33200  0.33200  0.82450  Biso   1.000  N
  C189     1.0000 0.30270  0.30270  0.85700  Biso   1.000  C
  H239     1.0000 0.28680  0.28680  0.84280  Biso   1.000  H
  C190     1.0000 0.29140  0.29140  0.91390  Biso   1.000  C
  C191     1.0000 0.31230  0.31230  0.94090  Biso   1.000  C
  C192     1.0000 0.29770  0.29770  0.99750  Biso   1.000  C
  C193     1.0000 0.26400  0.26400  0.02390  Biso   1.000  C
  H240     1.0000 0.25470  0.25470  0.06130  Biso   1.000  H
  C194     1.0000 0.24380  0.24380  0.99730  Biso   1.000  C
  C195     1.0000 0.25780  0.25780  0.94290  Biso   1.000  C
  H241     1.0000 0.24410  0.24410  0.92440  Biso   1.000  H
  C196     1.0000 0.31690  0.31690  0.02880  Biso   1.000  C
  H242     1.0000 0.30460  0.30460  0.06580  Biso   1.000  H
  N18      1.0000 0.34810  0.34810  0.01500  Biso   1.000  N
  O36      1.0000 0.35770  0.35770  0.05630  Biso   1.000  O
  C197     1.0000 0.39520  0.39520  0.09760  Biso   1.000  C
  C198     1.0000 0.39850  0.39850  0.19770  Biso   1.000  C
  C199     1.0000 0.36360  0.36360  0.52230  Biso   1.000  C
  O37      1.0000 0.39160  0.39160  0.48560  Biso   1.000  O
  O38      1.0000 0.33760  0.33760  0.51770  Biso   1.000  O
  O39      1.0000 0.34300  0.34300  0.91470  Biso   1.000  O
  C200     1.0000 0.40070  0.40070  0.25050  Biso   1.000  C
  C201     1.0000 0.39470  0.39470  0.63030  Biso   1.000  C
  H243     1.0000 0.41500  0.41500  0.63290  Biso   1.000  H
  C202     1.0000 0.39400  0.39400  0.58080  Biso   1.000  C
  H244     1.0000 0.41370  0.41370  0.55020  Biso   1.000  H
  C203     1.0000 0.33610  0.33610  0.62130  Biso   1.000  C
  H245     1.0000 0.31580  0.31580  0.61860  Biso   1.000  H
  C204     1.0000 0.33730  0.33730  0.67030  Biso   1.000  C
  H246     1.0000 0.31760  0.31760  0.70080  Biso   1.000  H
  Zn10     1.0000 0.41684  0.41684  0.41684  Biso   1.000  Zn
  O40      1.0000 0.38510  0.38510  0.38510  Biso   1.000  O
  O41      1.0000 0.65180  0.26710  0.57630  Biso   1.000  O
  N19      1.0000 0.65540  0.22080  0.56480  Biso   1.000  N
  C205     1.0000 0.67780  0.22380  0.51620  Biso   1.000  C
  H247     1.0000 0.68910  0.25500  0.49600  Biso   1.000  H
  C206     1.0000 0.68770  0.18370  0.48900  Biso   1.000  C
  C207     1.0000 0.66970  0.13630  0.51510  Biso   1.000  C
  C208     1.0000 0.68170  0.09940  0.48400  Biso   1.000  C
  C209     1.0000 0.71300  0.10900  0.43180  Biso   1.000  C
  H248     1.0000 0.72120  0.08380  0.41220  Biso   1.000  H
  C210     1.0000 0.73230  0.15360  0.40800  Biso   1.000  C
  C211     1.0000 0.71890  0.19070  0.43680  Biso   1.000  C
  H249     1.0000 0.73130  0.22180  0.42080  Biso   1.000  H
  C212     1.0000 0.66440  0.05090  0.50340  Biso   1.000  C
  H250     1.0000 0.67290  0.03000  0.47920  Biso   1.000  H
  N20      1.0000 0.63890  0.03440  0.54980  Biso   1.000  N
  O42      1.0000 0.63090  0.98610  0.55400  Biso   1.000  O
  C213     1.0000 0.63970  0.87650  0.56670  Biso   1.000  C
  H251     1.0000 0.66510  0.89340  0.54040  Biso   1.000  H
  C214     1.0000 0.63920  0.82750  0.56520  Biso   1.000  C
  H252     1.0000 0.66480  0.81090  0.53910  Biso   1.000  H
  O43      1.0000 0.64170  0.12810  0.56280  Biso   1.000  O
  C215     1.0000 0.76680  0.16140  0.35120  Biso   1.000  C
  O44      1.0000 0.63380  0.72880  0.56450  Biso   1.000  O
  C216     1.0000 0.79190  0.97370  0.79460  Biso   1.000  C
  C217     1.0000 0.78200  0.91940  0.82220  Biso   1.000  C
  H253     1.0000 0.74590  0.92300  0.84440  Biso   1.000  H
  H254     1.0000 0.78690  0.90070  0.79590  Biso   1.000  H
  H255     1.0000 0.80700  0.89950  0.84420  Biso   1.000  H
  C218     1.0000 0.77790  0.00490  0.83590  Biso   1.000  C
  H256     1.0000 0.78410  0.04010  0.81840  Biso   1.000  H
  H257     1.0000 0.74060  0.00830  0.85470  Biso   1.000  H
  H258     1.0000 0.79990  0.98630  0.86100  Biso   1.000  H
  C219     1.0000 0.84720  0.97190  0.75910  Biso   1.000  C
  H259     1.0000 0.85130  0.00790  0.74240  Biso   1.000  H
  H260     1.0000 0.87310  0.95270  0.78020  Biso   1.000  H
  H261     1.0000 0.85300  0.95400  0.73190  Biso   1.000  H
  C220     1.0000 0.80760  0.11100  0.34110  Biso   1.000  C
  H262     1.0000 0.82860  0.11790  0.30460  Biso   1.000  H
  H263     1.0000 0.83080  0.09910  0.36500  Biso   1.000  H
  H264     1.0000 0.78970  0.08370  0.34720  Biso   1.000  H
  C221     1.0000 0.79760  0.20320  0.33750  Biso   1.000  C
  H265     1.0000 0.77300  0.23650  0.34340  Biso   1.000  H
  H266     1.0000 0.82230  0.19130  0.35990  Biso   1.000  H
  H267     1.0000 0.81720  0.20830  0.30040  Biso   1.000  H
  C222     1.0000 0.72840  0.18280  0.31540  Biso   1.000  C
  H268     1.0000 0.70320  0.21510  0.32360  Biso   1.000  H
  H269     1.0000 0.74820  0.19050  0.27850  Biso   1.000  H
  H270     1.0000 0.70940  0.15630  0.32140  Biso   1.000  H
  C223     1.0000 0.82490  0.14900  0.35150  Biso   1.000  C
  H271     1.0000 0.83550  0.11350  0.37290  Biso   1.000  H
  H272     1.0000 0.84690  0.15210  0.31540  Biso   1.000  H
  H273     1.0000 0.82940  0.17450  0.36640  Biso   1.000  H
  C224     1.0000 0.75100  0.21730  0.31780  Biso   1.000  C
  H274     1.0000 0.77370  0.22040  0.28210  Biso   1.000  H
  H275     1.0000 0.71410  0.22480  0.31620  Biso   1.000  H
  H276     1.0000 0.75400  0.24250  0.33360  Biso   1.000  H
  C225     1.0000 0.76200  0.12410  0.32360  Biso   1.000  C
  H277     1.0000 0.77180  0.08760  0.34380  Biso   1.000  H
  H278     1.0000 0.72530  0.13240  0.32150  Biso   1.000  H
  H279     1.0000 0.78510  0.12840  0.28800  Biso   1.000  H
  C226     1.0000 0.58700  0.36370  0.64100  Biso   1.000  C
  H280     1.0000 0.55450  0.35700  0.64400  Biso   1.000  H
  C227     1.0000 0.58700  0.41270  0.64400  Biso   1.000  C
  H281     1.0000 0.55480  0.43840  0.65070  Biso   1.000  H
  C228     1.0000 0.67510  0.37990  0.64960  Biso   1.000  C
  H282     1.0000 0.70190  0.38300  0.66180  Biso   1.000  H
  C229     1.0000 0.67500  0.33140  0.64570  Biso   1.000  C
  H283     1.0000 0.70430  0.30240  0.65140  Biso   1.000  H
  O45      1.0000 0.26710  0.57630  0.65180  Biso   1.000  O
  N21      1.0000 0.22080  0.56480  0.65540  Biso   1.000  N
  C230     1.0000 0.22380  0.51620  0.67780  Biso   1.000  C
  H284     1.0000 0.25500  0.49600  0.68910  Biso   1.000  H
  C231     1.0000 0.18370  0.48900  0.68770  Biso   1.000  C
  C232     1.0000 0.13630  0.51510  0.66970  Biso   1.000  C
  C233     1.0000 0.09940  0.48400  0.68170  Biso   1.000  C
  C234     1.0000 0.10900  0.43180  0.71300  Biso   1.000  C
  H285     1.0000 0.08380  0.41220  0.72120  Biso   1.000  H
  C235     1.0000 0.15360  0.40800  0.73230  Biso   1.000  C
  C236     1.0000 0.19070  0.43680  0.71890  Biso   1.000  C
  H286     1.0000 0.22180  0.42080  0.73130  Biso   1.000  H
  C237     1.0000 0.05090  0.50340  0.66440  Biso   1.000  C
  H287     1.0000 0.03000  0.47920  0.67290  Biso   1.000  H
  N22      1.0000 0.03440  0.54980  0.63890  Biso   1.000  N
  O46      1.0000 0.98610  0.55400  0.63090  Biso   1.000  O
  C238     1.0000 0.87650  0.56670  0.63970  Biso   1.000  C
  H288     1.0000 0.89340  0.54040  0.66510  Biso   1.000  H
  C239     1.0000 0.82750  0.56520  0.63920  Biso   1.000  C
  H289     1.0000 0.81090  0.53910  0.66480  Biso   1.000  H
  O47      1.0000 0.12810  0.56280  0.64170  Biso   1.000  O
  C240     1.0000 0.16140  0.35120  0.76680  Biso   1.000  C
  O48      1.0000 0.72880  0.56450  0.63380  Biso   1.000  O
  C241     1.0000 0.97370  0.79460  0.79190  Biso   1.000  C
  C242     1.0000 0.91940  0.82220  0.78200  Biso   1.000  C
  H290     1.0000 0.92300  0.84440  0.74590  Biso   1.000  H
  H291     1.0000 0.90070  0.79590  0.78690  Biso   1.000  H
  H292     1.0000 0.89950  0.84420  0.80700  Biso   1.000  H
  C243     1.0000 0.00490  0.83590  0.77790  Biso   1.000  C
  H293     1.0000 0.04010  0.81840  0.78410  Biso   1.000  H
  H294     1.0000 0.00830  0.85470  0.74060  Biso   1.000  H
  H295     1.0000 0.98630  0.86100  0.79990  Biso   1.000  H
  C244     1.0000 0.97190  0.75910  0.84720  Biso   1.000  C
  H296     1.0000 0.00790  0.74240  0.85130  Biso   1.000  H
  H297     1.0000 0.95270  0.78020  0.87310  Biso   1.000  H
  H298     1.0000 0.95400  0.73190  0.85300  Biso   1.000  H
  C245     1.0000 0.11100  0.34110  0.80760  Biso   1.000  C
  H299     1.0000 0.11790  0.30460  0.82860  Biso   1.000  H
  H300     1.0000 0.09910  0.36500  0.83080  Biso   1.000  H
  H301     1.0000 0.08370  0.34720  0.78970  Biso   1.000  H
  C246     1.0000 0.20320  0.33750  0.79760  Biso   1.000  C
  H302     1.0000 0.23650  0.34340  0.77300  Biso   1.000  H
  H303     1.0000 0.19130  0.35990  0.82230  Biso   1.000  H
  H304     1.0000 0.20830  0.30040  0.81720  Biso   1.000  H
  C247     1.0000 0.18280  0.31540  0.72840  Biso   1.000  C
  H305     1.0000 0.21510  0.32360  0.70320  Biso   1.000  H
  H306     1.0000 0.19050  0.27850  0.74820  Biso   1.000  H
  H307     1.0000 0.15630  0.32140  0.70940  Biso   1.000  H
  C248     1.0000 0.14900  0.35150  0.82490  Biso   1.000  C
  H308     1.0000 0.11350  0.37290  0.83550  Biso   1.000  H
  H309     1.0000 0.15210  0.31540  0.84690  Biso   1.000  H
  H310     1.0000 0.17450  0.36640  0.82940  Biso   1.000  H
  C249     1.0000 0.21730  0.31780  0.75100  Biso   1.000  C
  H311     1.0000 0.22040  0.28210  0.77370  Biso   1.000  H
  H312     1.0000 0.22480  0.31620  0.71410  Biso   1.000  H
  H313     1.0000 0.24250  0.33360  0.75400  Biso   1.000  H
  C250     1.0000 0.12410  0.32360  0.76200  Biso   1.000  C
  H314     1.0000 0.08760  0.34380  0.77180  Biso   1.000  H
  H315     1.0000 0.13240  0.32150  0.72530  Biso   1.000  H
  H316     1.0000 0.12840  0.28800  0.78510  Biso   1.000  H
  C251     1.0000 0.36370  0.64100  0.58700  Biso   1.000  C
  H317     1.0000 0.35700  0.64400  0.55450  Biso   1.000  H
  C252     1.0000 0.41270  0.64400  0.58700  Biso   1.000  C
  H318     1.0000 0.43840  0.65070  0.55480  Biso   1.000  H
  C253     1.0000 0.37990  0.64960  0.67510  Biso   1.000  C
  H319     1.0000 0.38300  0.66180  0.70190  Biso   1.000  H
  C254     1.0000 0.33140  0.64570  0.67500  Biso   1.000  C
  H320     1.0000 0.30240  0.65140  0.70430  Biso   1.000  H
  O49      1.0000 0.57630  0.65180  0.26710  Biso   1.000  O
  N23      1.0000 0.56480  0.65540  0.22080  Biso   1.000  N
  C255     1.0000 0.51620  0.67780  0.22380  Biso   1.000  C
  H321     1.0000 0.49600  0.68910  0.25500  Biso   1.000  H
  C256     1.0000 0.48900  0.68770  0.18370  Biso   1.000  C
  C257     1.0000 0.51510  0.66970  0.13630  Biso   1.000  C
  C258     1.0000 0.48400  0.68170  0.09940  Biso   1.000  C
  C259     1.0000 0.43180  0.71300  0.10900  Biso   1.000  C
  H322     1.0000 0.41220  0.72120  0.08380  Biso   1.000  H
  C260     1.0000 0.40800  0.73230  0.15360  Biso   1.000  C
  C261     1.0000 0.43680  0.71890  0.19070  Biso   1.000  C
  H323     1.0000 0.42080  0.73130  0.22180  Biso   1.000  H
  C262     1.0000 0.50340  0.66440  0.05090  Biso   1.000  C
  H324     1.0000 0.47920  0.67290  0.03000  Biso   1.000  H
  N24      1.0000 0.54980  0.63890  0.03440  Biso   1.000  N
  O50      1.0000 0.55400  0.63090  0.98610  Biso   1.000  O
  C263     1.0000 0.56670  0.63970  0.87650  Biso   1.000  C
  H325     1.0000 0.54040  0.66510  0.89340  Biso   1.000  H
  C264     1.0000 0.56520  0.63920  0.82750  Biso   1.000  C
  H326     1.0000 0.53910  0.66480  0.81090  Biso   1.000  H
  O51      1.0000 0.56280  0.64170  0.12810  Biso   1.000  O
  C265     1.0000 0.35120  0.76680  0.16140  Biso   1.000  C
  O52      1.0000 0.56450  0.63380  0.72880  Biso   1.000  O
  C266     1.0000 0.79460  0.79190  0.97370  Biso   1.000  C
  C267     1.0000 0.82220  0.78200  0.91940  Biso   1.000  C
  H327     1.0000 0.84440  0.74590  0.92300  Biso   1.000  H
  H328     1.0000 0.79590  0.78690  0.90070  Biso   1.000  H
  H329     1.0000 0.84420  0.80700  0.89950  Biso   1.000  H
  C268     1.0000 0.83590  0.77790  0.00490  Biso   1.000  C
  H330     1.0000 0.81840  0.78410  0.04010  Biso   1.000  H
  H331     1.0000 0.85470  0.74060  0.00830  Biso   1.000  H
  H332     1.0000 0.86100  0.79990  0.98630  Biso   1.000  H
  C269     1.0000 0.75910  0.84720  0.97190  Biso   1.000  C
  H333     1.0000 0.74240  0.85130  0.00790  Biso   1.000  H
  H334     1.0000 0.78020  0.87310  0.95270  Biso   1.000  H
  H335     1.0000 0.73190  0.85300  0.95400  Biso   1.000  H
  C270     1.0000 0.34110  0.80760  0.11100  Biso   1.000  C
  H336     1.0000 0.30460  0.82860  0.11790  Biso   1.000  H
  H337     1.0000 0.36500  0.83080  0.09910  Biso   1.000  H
  H338     1.0000 0.34720  0.78970  0.08370  Biso   1.000  H
  C271     1.0000 0.33750  0.79760  0.20320  Biso   1.000  C
  H339     1.0000 0.34340  0.77300  0.23650  Biso   1.000  H
  H340     1.0000 0.35990  0.82230  0.19130  Biso   1.000  H
  H341     1.0000 0.30040  0.81720  0.20830  Biso   1.000  H
  C272     1.0000 0.31540  0.72840  0.18280  Biso   1.000  C
  H342     1.0000 0.32360  0.70320  0.21510  Biso   1.000  H
  H343     1.0000 0.27850  0.74820  0.19050  Biso   1.000  H
  H344     1.0000 0.32140  0.70940  0.15630  Biso   1.000  H
  C273     1.0000 0.35150  0.82490  0.14900  Biso   1.000  C
  H345     1.0000 0.37290  0.83550  0.11350  Biso   1.000  H
  H346     1.0000 0.31540  0.84690  0.15210  Biso   1.000  H
  H347     1.0000 0.36640  0.82940  0.17450  Biso   1.000  H
  C274     1.0000 0.31780  0.75100  0.21730  Biso   1.000  C
  H348     1.0000 0.28210  0.77370  0.22040  Biso   1.000  H
  H349     1.0000 0.31620  0.71410  0.22480  Biso   1.000  H
  H350     1.0000 0.33360  0.75400  0.24250  Biso   1.000  H
  C275     1.0000 0.32360  0.76200  0.12410  Biso   1.000  C
  H351     1.0000 0.34380  0.77180  0.08760  Biso   1.000  H
  H352     1.0000 0.32150  0.72530  0.13240  Biso   1.000  H
  H353     1.0000 0.28800  0.78510  0.12840  Biso   1.000  H
  C276     1.0000 0.64100  0.58700  0.36370  Biso   1.000  C
  H354     1.0000 0.64400  0.55450  0.35700  Biso   1.000  H
  C277     1.0000 0.64400  0.58700  0.41270  Biso   1.000  C
  H355     1.0000 0.65070  0.55480  0.43840  Biso   1.000  H
  C278     1.0000 0.64960  0.67510  0.37990  Biso   1.000  C
  H356     1.0000 0.66180  0.70190  0.38300  Biso   1.000  H
  C279     1.0000 0.64570  0.67500  0.33140  Biso   1.000  C
  H357     1.0000 0.65140  0.70430  0.30240  Biso   1.000  H
  O53      1.0000 0.26710  0.65180  0.57630  Biso   1.000  O
  N25      1.0000 0.22080  0.65540  0.56480  Biso   1.000  N
  C280     1.0000 0.22380  0.67780  0.51620  Biso   1.000  C
  H358     1.0000 0.25500  0.68910  0.49600  Biso   1.000  H
  C281     1.0000 0.18370  0.68770  0.48900  Biso   1.000  C
  C282     1.0000 0.13630  0.66970  0.51510  Biso   1.000  C
  C283     1.0000 0.09940  0.68170  0.48400  Biso   1.000  C
  C284     1.0000 0.10900  0.71300  0.43180  Biso   1.000  C
  H359     1.0000 0.08380  0.72120  0.41220  Biso   1.000  H
  C285     1.0000 0.15360  0.73230  0.40800  Biso   1.000  C
  C286     1.0000 0.19070  0.71890  0.43680  Biso   1.000  C
  H360     1.0000 0.22180  0.73130  0.42080  Biso   1.000  H
  C287     1.0000 0.05090  0.66440  0.50340  Biso   1.000  C
  H361     1.0000 0.03000  0.67290  0.47920  Biso   1.000  H
  N26      1.0000 0.03440  0.63890  0.54980  Biso   1.000  N
  O54      1.0000 0.98610  0.63090  0.55400  Biso   1.000  O
  C288     1.0000 0.87650  0.63970  0.56670  Biso   1.000  C
  H362     1.0000 0.89340  0.66510  0.54040  Biso   1.000  H
  C289     1.0000 0.82750  0.63920  0.56520  Biso   1.000  C
  H363     1.0000 0.81090  0.66480  0.53910  Biso   1.000  H
  O55      1.0000 0.12810  0.64170  0.56280  Biso   1.000  O
  C290     1.0000 0.16140  0.76680  0.35120  Biso   1.000  C
  O56      1.0000 0.72880  0.63380  0.56450  Biso   1.000  O
  C291     1.0000 0.97370  0.79190  0.79460  Biso   1.000  C
  C292     1.0000 0.91940  0.78200  0.82220  Biso   1.000  C
  H364     1.0000 0.92300  0.74590  0.84440  Biso   1.000  H
  H365     1.0000 0.90070  0.78690  0.79590  Biso   1.000  H
  H366     1.0000 0.89950  0.80700  0.84420  Biso   1.000  H
  C293     1.0000 0.00490  0.77790  0.83590  Biso   1.000  C
  H367     1.0000 0.04010  0.78410  0.81840  Biso   1.000  H
  H368     1.0000 0.00830  0.74060  0.85470  Biso   1.000  H
  H369     1.0000 0.98630  0.79990  0.86100  Biso   1.000  H
  C294     1.0000 0.97190  0.84720  0.75910  Biso   1.000  C
  H370     1.0000 0.00790  0.85130  0.74240  Biso   1.000  H
  H371     1.0000 0.95270  0.87310  0.78020  Biso   1.000  H
  H372     1.0000 0.95400  0.85300  0.73190  Biso   1.000  H
  C295     1.0000 0.11100  0.80760  0.34110  Biso   1.000  C
  H373     1.0000 0.11790  0.82860  0.30460  Biso   1.000  H
  H374     1.0000 0.09910  0.83080  0.36500  Biso   1.000  H
  H375     1.0000 0.08370  0.78970  0.34720  Biso   1.000  H
  C296     1.0000 0.20320  0.79760  0.33750  Biso   1.000  C
  H376     1.0000 0.23650  0.77300  0.34340  Biso   1.000  H
  H377     1.0000 0.19130  0.82230  0.35990  Biso   1.000  H
  H378     1.0000 0.20830  0.81720  0.30040  Biso   1.000  H
  C297     1.0000 0.18280  0.72840  0.31540  Biso   1.000  C
  H379     1.0000 0.21510  0.70320  0.32360  Biso   1.000  H
  H380     1.0000 0.19050  0.74820  0.27850  Biso   1.000  H
  H381     1.0000 0.15630  0.70940  0.32140  Biso   1.000  H
  C298     1.0000 0.14900  0.82490  0.35150  Biso   1.000  C
  H382     1.0000 0.11350  0.83550  0.37290  Biso   1.000  H
  H383     1.0000 0.15210  0.84690  0.31540  Biso   1.000  H
  H384     1.0000 0.17450  0.82940  0.36640  Biso   1.000  H
  C299     1.0000 0.21730  0.75100  0.31780  Biso   1.000  C
  H385     1.0000 0.22040  0.77370  0.28210  Biso   1.000  H
  H386     1.0000 0.22480  0.71410  0.31620  Biso   1.000  H
  H387     1.0000 0.24250  0.75400  0.33360  Biso   1.000  H
  C300     1.0000 0.12410  0.76200  0.32360  Biso   1.000  C
  H388     1.0000 0.08760  0.77180  0.34380  Biso   1.000  H
  H389     1.0000 0.13240  0.72530  0.32150  Biso   1.000  H
  H390     1.0000 0.12840  0.78510  0.28800  Biso   1.000  H
  C301     1.0000 0.36370  0.58700  0.64100  Biso   1.000  C
  H391     1.0000 0.35700  0.55450  0.64400  Biso   1.000  H
  C302     1.0000 0.41270  0.58700  0.64400  Biso   1.000  C
  H392     1.0000 0.43840  0.55480  0.65070  Biso   1.000  H
  C303     1.0000 0.37990  0.67510  0.64960  Biso   1.000  C
  H393     1.0000 0.38300  0.70190  0.66180  Biso   1.000  H
  C304     1.0000 0.33140  0.67500  0.64570  Biso   1.000  C
  H394     1.0000 0.30240  0.70430  0.65140  Biso   1.000  H
  O57      1.0000 0.57630  0.26710  0.65180  Biso   1.000  O
  N27      1.0000 0.56480  0.22080  0.65540  Biso   1.000  N
  C305     1.0000 0.51620  0.22380  0.67780  Biso   1.000  C
  H395     1.0000 0.49600  0.25500  0.68910  Biso   1.000  H
  C306     1.0000 0.48900  0.18370  0.68770  Biso   1.000  C
  C307     1.0000 0.51510  0.13630  0.66970  Biso   1.000  C
  C308     1.0000 0.48400  0.09940  0.68170  Biso   1.000  C
  C309     1.0000 0.43180  0.10900  0.71300  Biso   1.000  C
  H396     1.0000 0.41220  0.08380  0.72120  Biso   1.000  H
  C310     1.0000 0.40800  0.15360  0.73230  Biso   1.000  C
  C311     1.0000 0.43680  0.19070  0.71890  Biso   1.000  C
  H397     1.0000 0.42080  0.22180  0.73130  Biso   1.000  H
  C312     1.0000 0.50340  0.05090  0.66440  Biso   1.000  C
  H398     1.0000 0.47920  0.03000  0.67290  Biso   1.000  H
  N28      1.0000 0.54980  0.03440  0.63890  Biso   1.000  N
  O58      1.0000 0.55400  0.98610  0.63090  Biso   1.000  O
  C313     1.0000 0.56670  0.87650  0.63970  Biso   1.000  C
  H399     1.0000 0.54040  0.89340  0.66510  Biso   1.000  H
  C314     1.0000 0.56520  0.82750  0.63920  Biso   1.000  C
  H400     1.0000 0.53910  0.81090  0.66480  Biso   1.000  H
  O59      1.0000 0.56280  0.12810  0.64170  Biso   1.000  O
  C315     1.0000 0.35120  0.16140  0.76680  Biso   1.000  C
  O60      1.0000 0.56450  0.72880  0.63380  Biso   1.000  O
  C316     1.0000 0.79460  0.97370  0.79190  Biso   1.000  C
  C317     1.0000 0.82220  0.91940  0.78200  Biso   1.000  C
  H401     1.0000 0.84440  0.92300  0.74590  Biso   1.000  H
  H402     1.0000 0.79590  0.90070  0.78690  Biso   1.000  H
  H403     1.0000 0.84420  0.89950  0.80700  Biso   1.000  H
  C318     1.0000 0.83590  0.00490  0.77790  Biso   1.000  C
  H404     1.0000 0.81840  0.04010  0.78410  Biso   1.000  H
  H405     1.0000 0.85470  0.00830  0.74060  Biso   1.000  H
  H406     1.0000 0.86100  0.98630  0.79990  Biso   1.000  H
  C319     1.0000 0.75910  0.97190  0.84720  Biso   1.000  C
  H407     1.0000 0.74240  0.00790  0.85130  Biso   1.000  H
  H408     1.0000 0.78020  0.95270  0.87310  Biso   1.000  H
  H409     1.0000 0.73190  0.95400  0.85300  Biso   1.000  H
  C320     1.0000 0.34110  0.11100  0.80760  Biso   1.000  C
  H410     1.0000 0.30460  0.11790  0.82860  Biso   1.000  H
  H411     1.0000 0.36500  0.09910  0.83080  Biso   1.000  H
  H412     1.0000 0.34720  0.08370  0.78970  Biso   1.000  H
  C321     1.0000 0.33750  0.20320  0.79760  Biso   1.000  C
  H413     1.0000 0.34340  0.23650  0.77300  Biso   1.000  H
  H414     1.0000 0.35990  0.19130  0.82230  Biso   1.000  H
  H415     1.0000 0.30040  0.20830  0.81720  Biso   1.000  H
  C322     1.0000 0.31540  0.18280  0.72840  Biso   1.000  C
  H416     1.0000 0.32360  0.21510  0.70320  Biso   1.000  H
  H417     1.0000 0.27850  0.19050  0.74820  Biso   1.000  H
  H418     1.0000 0.32140  0.15630  0.70940  Biso   1.000  H
  C323     1.0000 0.35150  0.14900  0.82490  Biso   1.000  C
  H419     1.0000 0.37290  0.11350  0.83550  Biso   1.000  H
  H420     1.0000 0.31540  0.15210  0.84690  Biso   1.000  H
  H421     1.0000 0.36640  0.17450  0.82940  Biso   1.000  H
  C324     1.0000 0.31780  0.21730  0.75100  Biso   1.000  C
  H422     1.0000 0.28210  0.22040  0.77370  Biso   1.000  H
  H423     1.0000 0.31620  0.22480  0.71410  Biso   1.000  H
  H424     1.0000 0.33360  0.24250  0.75400  Biso   1.000  H
  C325     1.0000 0.32360  0.12410  0.76200  Biso   1.000  C
  H425     1.0000 0.34380  0.08760  0.77180  Biso   1.000  H
  H426     1.0000 0.32150  0.13240  0.72530  Biso   1.000  H
  H427     1.0000 0.28800  0.12840  0.78510  Biso   1.000  H
  C326     1.0000 0.64100  0.36370  0.58700  Biso   1.000  C
  H428     1.0000 0.64400  0.35700  0.55450  Biso   1.000  H
  C327     1.0000 0.64400  0.41270  0.58700  Biso   1.000  C
  H429     1.0000 0.65070  0.43840  0.55480  Biso   1.000  H
  C328     1.0000 0.64960  0.37990  0.67510  Biso   1.000  C
  H430     1.0000 0.66180  0.38300  0.70190  Biso   1.000  H
  C329     1.0000 0.64570  0.33140  0.67500  Biso   1.000  C
  H431     1.0000 0.65140  0.30240  0.70430  Biso   1.000  H
  O61      1.0000 0.65180  0.57630  0.26710  Biso   1.000  O
  N29      1.0000 0.65540  0.56480  0.22080  Biso   1.000  N
  C330     1.0000 0.67780  0.51620  0.22380  Biso   1.000  C
  H432     1.0000 0.68910  0.49600  0.25500  Biso   1.000  H
  C331     1.0000 0.68770  0.48900  0.18370  Biso   1.000  C
  C332     1.0000 0.66970  0.51510  0.13630  Biso   1.000  C
  C333     1.0000 0.68170  0.48400  0.09940  Biso   1.000  C
  C334     1.0000 0.71300  0.43180  0.10900  Biso   1.000  C
  H433     1.0000 0.72120  0.41220  0.08380  Biso   1.000  H
  C335     1.0000 0.73230  0.40800  0.15360  Biso   1.000  C
  C336     1.0000 0.71890  0.43680  0.19070  Biso   1.000  C
  H434     1.0000 0.73130  0.42080  0.22180  Biso   1.000  H
  C337     1.0000 0.66440  0.50340  0.05090  Biso   1.000  C
  H435     1.0000 0.67290  0.47920  0.03000  Biso   1.000  H
  N30      1.0000 0.63890  0.54980  0.03440  Biso   1.000  N
  O62      1.0000 0.63090  0.55400  0.98610  Biso   1.000  O
  C338     1.0000 0.63970  0.56670  0.87650  Biso   1.000  C
  H436     1.0000 0.66510  0.54040  0.89340  Biso   1.000  H
  C339     1.0000 0.63920  0.56520  0.82750  Biso   1.000  C
  H437     1.0000 0.66480  0.53910  0.81090  Biso   1.000  H
  O63      1.0000 0.64170  0.56280  0.12810  Biso   1.000  O
  C340     1.0000 0.76680  0.35120  0.16140  Biso   1.000  C
  O64      1.0000 0.63380  0.56450  0.72880  Biso   1.000  O
  C341     1.0000 0.79190  0.79460  0.97370  Biso   1.000  C
  C342     1.0000 0.78200  0.82220  0.91940  Biso   1.000  C
  H438     1.0000 0.74590  0.84440  0.92300  Biso   1.000  H
  H439     1.0000 0.78690  0.79590  0.90070  Biso   1.000  H
  H440     1.0000 0.80700  0.84420  0.89950  Biso   1.000  H
  C343     1.0000 0.77790  0.83590  0.00490  Biso   1.000  C
  H441     1.0000 0.78410  0.81840  0.04010  Biso   1.000  H
  H442     1.0000 0.74060  0.85470  0.00830  Biso   1.000  H
  H443     1.0000 0.79990  0.86100  0.98630  Biso   1.000  H
  C344     1.0000 0.84720  0.75910  0.97190  Biso   1.000  C
  H444     1.0000 0.85130  0.74240  0.00790  Biso   1.000  H
  H445     1.0000 0.87310  0.78020  0.95270  Biso   1.000  H
  H446     1.0000 0.85300  0.73190  0.95400  Biso   1.000  H
  C345     1.0000 0.80760  0.34110  0.11100  Biso   1.000  C
  H447     1.0000 0.82860  0.30460  0.11790  Biso   1.000  H
  H448     1.0000 0.83080  0.36500  0.09910  Biso   1.000  H
  H449     1.0000 0.78970  0.34720  0.08370  Biso   1.000  H
  C346     1.0000 0.79760  0.33750  0.20320  Biso   1.000  C
  H450     1.0000 0.77300  0.34340  0.23650  Biso   1.000  H
  H451     1.0000 0.82230  0.35990  0.19130  Biso   1.000  H
  H452     1.0000 0.81720  0.30040  0.20830  Biso   1.000  H
  C347     1.0000 0.72840  0.31540  0.18280  Biso   1.000  C
  H453     1.0000 0.70320  0.32360  0.21510  Biso   1.000  H
  H454     1.0000 0.74820  0.27850  0.19050  Biso   1.000  H
  H455     1.0000 0.70940  0.32140  0.15630  Biso   1.000  H
  C348     1.0000 0.82490  0.35150  0.14900  Biso   1.000  C
  H456     1.0000 0.83550  0.37290  0.11350  Biso   1.000  H
  H457     1.0000 0.84690  0.31540  0.15210  Biso   1.000  H
  H458     1.0000 0.82940  0.36640  0.17450  Biso   1.000  H
  C349     1.0000 0.75100  0.31780  0.21730  Biso   1.000  C
  H459     1.0000 0.77370  0.28210  0.22040  Biso   1.000  H
  H460     1.0000 0.71410  0.31620  0.22480  Biso   1.000  H
  H461     1.0000 0.75400  0.33360  0.24250  Biso   1.000  H
  C350     1.0000 0.76200  0.32360  0.12410  Biso   1.000  C
  H462     1.0000 0.77180  0.34380  0.08760  Biso   1.000  H
  H463     1.0000 0.72530  0.32150  0.13240  Biso   1.000  H
  H464     1.0000 0.78510  0.28800  0.12840  Biso   1.000  H
  C351     1.0000 0.58700  0.64100  0.36370  Biso   1.000  C
  H465     1.0000 0.55450  0.64400  0.35700  Biso   1.000  H
  C352     1.0000 0.58700  0.64400  0.41270  Biso   1.000  C
  H466     1.0000 0.55480  0.65070  0.43840  Biso   1.000  H
  C353     1.0000 0.67510  0.64960  0.37990  Biso   1.000  C
  H467     1.0000 0.70190  0.66180  0.38300  Biso   1.000  H
  C354     1.0000 0.67500  0.64570  0.33140  Biso   1.000  C
  H468     1.0000 0.70430  0.65140  0.30240  Biso   1.000  H
  Zn11     1.0000 0.61647  0.06276  0.61647  Biso   1.000  Zn
  Zn12     1.0000 0.62427  0.16323  0.62427  Biso   1.000  Zn
  Zn13     1.0000 0.65697  0.55770  0.65697  Biso   1.000  Zn
  C355     1.0000 0.63360  0.32340  0.63360  Biso   1.000  C
  C356     1.0000 0.63550  0.42400  0.63550  Biso   1.000  C
  B7       1.0000 0.63200  0.26700  0.63200  Biso   1.000  B
  B8       1.0000 0.60520  0.95970  0.60520  Biso   1.000  B
  O65      1.0000 0.66480  0.22640  0.66480  Biso   1.000  O
  N31      1.0000 0.66800  0.17550  0.66800  Biso   1.000  N
  C357     1.0000 0.69730  0.14300  0.69730  Biso   1.000  C
  H469     1.0000 0.71320  0.15720  0.71320  Biso   1.000  H
  C358     1.0000 0.70860  0.08610  0.70860  Biso   1.000  C
  C359     1.0000 0.68770  0.05910  0.68770  Biso   1.000  C
  C360     1.0000 0.70230  0.00250  0.70230  Biso   1.000  C
  C361     1.0000 0.73600  0.97610  0.73600  Biso   1.000  C
  H470     1.0000 0.74530  0.93870  0.74530  Biso   1.000  H
  C362     1.0000 0.75620  0.00270  0.75620  Biso   1.000  C
  C363     1.0000 0.74220  0.05710  0.74220  Biso   1.000  C
  H471     1.0000 0.75590  0.07560  0.75590  Biso   1.000  H
  C364     1.0000 0.68310  0.97120  0.68310  Biso   1.000  C
  H472     1.0000 0.69540  0.93420  0.69540  Biso   1.000  H
  N32      1.0000 0.65190  0.98500  0.65190  Biso   1.000  N
  O66      1.0000 0.64230  0.94370  0.64230  Biso   1.000  O
  C365     1.0000 0.60480  0.90240  0.60480  Biso   1.000  C
  C366     1.0000 0.60150  0.80230  0.60150  Biso   1.000  C
  C367     1.0000 0.63640  0.47770  0.63640  Biso   1.000  C
  O67      1.0000 0.60840  0.51440  0.60840  Biso   1.000  O
  O68      1.0000 0.66240  0.48230  0.66240  Biso   1.000  O
  O69      1.0000 0.65700  0.08530  0.65700  Biso   1.000  O
  C368     1.0000 0.59930  0.74950  0.59930  Biso   1.000  C
  C369     1.0000 0.60530  0.36970  0.60530  Biso   1.000  C
  H473     1.0000 0.58500  0.36710  0.58500  Biso   1.000  H
  C370     1.0000 0.60600  0.41920  0.60600  Biso   1.000  C
  H474     1.0000 0.58630  0.44980  0.58630  Biso   1.000  H
  C371     1.0000 0.66390  0.37870  0.66390  Biso   1.000  C
  H475     1.0000 0.68420  0.38140  0.68420  Biso   1.000  H
  C372     1.0000 0.66270  0.32970  0.66270  Biso   1.000  C
  H476     1.0000 0.68240  0.29920  0.68240  Biso   1.000  H
  Zn14     1.0000 0.06276  0.61647  0.61647  Biso   1.000  Zn
  Zn15     1.0000 0.16323  0.62427  0.62427  Biso   1.000  Zn
  Zn16     1.0000 0.55770  0.65697  0.65697  Biso   1.000  Zn
  C373     1.0000 0.32340  0.63360  0.63360  Biso   1.000  C
  C374     1.0000 0.42400  0.63550  0.63550  Biso   1.000  C
  B9       1.0000 0.26700  0.63200  0.63200  Biso   1.000  B
  B10      1.0000 0.95970  0.60520  0.60520  Biso   1.000  B
  O70      1.0000 0.22640  0.66480  0.66480  Biso   1.000  O
  N33      1.0000 0.17550  0.66800  0.66800  Biso   1.000  N
  C375     1.0000 0.14300  0.69730  0.69730  Biso   1.000  C
  H477     1.0000 0.15720  0.71320  0.71320  Biso   1.000  H
  C376     1.0000 0.08610  0.70860  0.70860  Biso   1.000  C
  C377     1.0000 0.05910  0.68770  0.68770  Biso   1.000  C
  C378     1.0000 0.00250  0.70230  0.70230  Biso   1.000  C
  C379     1.0000 0.97610  0.73600  0.73600  Biso   1.000  C
  H478     1.0000 0.93870  0.74530  0.74530  Biso   1.000  H
  C380     1.0000 0.00270  0.75620  0.75620  Biso   1.000  C
  C381     1.0000 0.05710  0.74220  0.74220  Biso   1.000  C
  H479     1.0000 0.07560  0.75590  0.75590  Biso   1.000  H
  C382     1.0000 0.97120  0.68310  0.68310  Biso   1.000  C
  H480     1.0000 0.93420  0.69540  0.69540  Biso   1.000  H
  N34      1.0000 0.98500  0.65190  0.65190  Biso   1.000  N
  O71      1.0000 0.94370  0.64230  0.64230  Biso   1.000  O
  C383     1.0000 0.90240  0.60480  0.60480  Biso   1.000  C
  C384     1.0000 0.80230  0.60150  0.60150  Biso   1.000  C
  C385     1.0000 0.47770  0.63640  0.63640  Biso   1.000  C
  O72      1.0000 0.51440  0.60840  0.60840  Biso   1.000  O
  O73      1.0000 0.48230  0.66240  0.66240  Biso   1.000  O
  O74      1.0000 0.08530  0.65700  0.65700  Biso   1.000  O
  C386     1.0000 0.74950  0.59930  0.59930  Biso   1.000  C
  C387     1.0000 0.36970  0.60530  0.60530  Biso   1.000  C
  H481     1.0000 0.36710  0.58500  0.58500  Biso   1.000  H
  C388     1.0000 0.41920  0.60600  0.60600  Biso   1.000  C
  H482     1.0000 0.44980  0.58630  0.58630  Biso   1.000  H
  C389     1.0000 0.37870  0.66390  0.66390  Biso   1.000  C
  H483     1.0000 0.38140  0.68420  0.68420  Biso   1.000  H
  C390     1.0000 0.32970  0.66270  0.66270  Biso   1.000  C
  H484     1.0000 0.29920  0.68240  0.68240  Biso   1.000  H
  Zn17     1.0000 0.61647  0.61647  0.06276  Biso   1.000  Zn
  Zn18     1.0000 0.62427  0.62427  0.16323  Biso   1.000  Zn
  Zn19     1.0000 0.65697  0.65697  0.55770  Biso   1.000  Zn
  C391     1.0000 0.63360  0.63360  0.32340  Biso   1.000  C
  C392     1.0000 0.63550  0.63550  0.42400  Biso   1.000  C
  B11      1.0000 0.63200  0.63200  0.26700  Biso   1.000  B
  B12      1.0000 0.60520  0.60520  0.95970  Biso   1.000  B
  O75      1.0000 0.66480  0.66480  0.22640  Biso   1.000  O
  N35      1.0000 0.66800  0.66800  0.17550  Biso   1.000  N
  C393     1.0000 0.69730  0.69730  0.14300  Biso   1.000  C
  H485     1.0000 0.71320  0.71320  0.15720  Biso   1.000  H
  C394     1.0000 0.70860  0.70860  0.08610  Biso   1.000  C
  C395     1.0000 0.68770  0.68770  0.05910  Biso   1.000  C
  C396     1.0000 0.70230  0.70230  0.00250  Biso   1.000  C
  C397     1.0000 0.73600  0.73600  0.97610  Biso   1.000  C
  H486     1.0000 0.74530  0.74530  0.93870  Biso   1.000  H
  C398     1.0000 0.75620  0.75620  0.00270  Biso   1.000  C
  C399     1.0000 0.74220  0.74220  0.05710  Biso   1.000  C
  H487     1.0000 0.75590  0.75590  0.07560  Biso   1.000  H
  C400     1.0000 0.68310  0.68310  0.97120  Biso   1.000  C
  H488     1.0000 0.69540  0.69540  0.93420  Biso   1.000  H
  N36      1.0000 0.65190  0.65190  0.98500  Biso   1.000  N
  O76      1.0000 0.64230  0.64230  0.94370  Biso   1.000  O
  C401     1.0000 0.60480  0.60480  0.90240  Biso   1.000  C
  C402     1.0000 0.60150  0.60150  0.80230  Biso   1.000  C
  C403     1.0000 0.63640  0.63640  0.47770  Biso   1.000  C
  O77      1.0000 0.60840  0.60840  0.51440  Biso   1.000  O
  O78      1.0000 0.66240  0.66240  0.48230  Biso   1.000  O
  O79      1.0000 0.65700  0.65700  0.08530  Biso   1.000  O
  C404     1.0000 0.59930  0.59930  0.74950  Biso   1.000  C
  C405     1.0000 0.60530  0.60530  0.36970  Biso   1.000  C
  H489     1.0000 0.58500  0.58500  0.36710  Biso   1.000  H
  C406     1.0000 0.60600  0.60600  0.41920  Biso   1.000  C
  H490     1.0000 0.58630  0.58630  0.44980  Biso   1.000  H
  C407     1.0000 0.66390  0.66390  0.37870  Biso   1.000  C
  H491     1.0000 0.68420  0.68420  0.38140  Biso   1.000  H
  C408     1.0000 0.66270  0.66270  0.32970  Biso   1.000  C
  H492     1.0000 0.68240  0.68240  0.29920  Biso   1.000  H
  Zn20     1.0000 0.58316  0.58316  0.58316  Biso   1.000  Zn
  O80      1.0000 0.61490  0.61490  0.61490  Biso   1.000  O
